MODEL 1
REMARK VINA RESULT:      -9.4      0.000      0.000
REMARK  2 active torsions:
REMARK  status: ('A' for Active; 'I' for Inactive)
REMARK    1  A    between atoms: C7_7  and  N1_8 
REMARK    2  A    between atoms: N1_8  and  C8_9 
ROOT
HETATM    1  C8  UNL     1      24.922  -0.202  53.708  1.00  0.00     0.129 C 
HETATM    2  C9  UNL     1      24.627  -0.877  54.833  1.00  0.00     0.069 C 
HETATM    3  C10 UNL     1      23.342  -1.389  55.328  1.00  0.00     0.116 C 
HETATM    4  N2  UNL     1      22.416  -1.109  54.509  1.00  0.00    -0.282 NA
HETATM    5  C11 UNL     1      21.033  -1.403  54.577  1.00  0.00     0.270 C 
HETATM    6  N3  UNL     1      20.147  -0.441  54.006  1.00  0.00    -0.371 N 
HETATM    7  C12 UNL     1      20.094  -0.003  52.668  1.00  0.00     0.040 A 
HETATM    8  C13 UNL     1      18.837   0.167  52.117  1.00  0.00     0.030 A 
HETATM    9  C14 UNL     1      18.577   0.589  50.820  1.00  0.00     0.002 A 
HETATM   10  C15 UNL     1      19.667   0.861  50.018  1.00  0.00     0.001 A 
HETATM   11  C16 UNL     1      20.923   0.694  50.562  1.00  0.00     0.014 A 
HETATM   12  C17 UNL     1      21.165   0.273  51.855  1.00  0.00     0.003 A 
HETATM   13  O1  UNL     1      22.510   0.179  52.177  1.00  0.00     0.000 OA
HETATM   14  C18 UNL     1      23.279   1.198  52.700  1.00  0.00     0.138 A 
HETATM   15  N4  UNL     1      23.733  -0.005  52.954  1.00  0.00    -0.242 N 
HETATM   16  H13 UNL     1      19.424   0.031  54.629  1.00  0.00     0.161 HD
ENDROOT
BRANCH   1  17
HETATM   17  N1  UNL     1      26.169   0.288  53.240  1.00  0.00    -0.341 N 
HETATM   18  H8  UNL     1      25.773   1.110  52.734  1.00  0.00     0.167 HD
BRANCH  17  19
HETATM   19  C7  UNL     1      27.520  -0.064  53.326  1.00  0.00     0.039 A 
HETATM   20  C2  UNL     1      28.468   0.912  53.541  1.00  0.00    -0.035 A 
HETATM   21  C1  UNL     1      28.179   2.338  53.690  1.00  0.00     0.050 C 
HETATM   22  C3  UNL     1      29.771   0.448  53.609  1.00  0.00     0.009 A 
HETATM   23  C4  UNL     1      30.145  -0.872  53.481  1.00  0.00     0.001 A 
HETATM   24  C5  UNL     1      29.129  -1.773  53.269  1.00  0.00     0.002 A 
HETATM   25  C6  UNL     1      27.784  -1.409  53.184  1.00  0.00     0.030 A 
ENDBRANCH  17  19
ENDBRANCH   1  17
TORSDOF 2
ENDMDL
MODEL 2
REMARK VINA RESULT:      -9.0      3.681      5.351
REMARK  2 active torsions:
REMARK  status: ('A' for Active; 'I' for Inactive)
REMARK    1  A    between atoms: C7_7  and  N1_8 
REMARK    2  A    between atoms: N1_8  and  C8_9 
ROOT
HETATM    1  C8  UNL     1      25.608   2.587  51.086  1.00  0.00     0.129 C 
HETATM    2  C9  UNL     1      26.778   2.077  51.511  1.00  0.00     0.069 C 
HETATM    3  C10 UNL     1      27.055   0.933  52.391  1.00  0.00     0.116 C 
HETATM    4  N2  UNL     1      25.969   0.397  52.765  1.00  0.00    -0.282 NA
HETATM    5  C11 UNL     1      25.759  -0.719  53.610  1.00  0.00     0.270 C 
HETATM    6  N3  UNL     1      24.592  -0.687  54.432  1.00  0.00    -0.371 N 
HETATM    7  C12 UNL     1      23.247  -0.615  54.019  1.00  0.00     0.040 A 
HETATM    8  C13 UNL     1      22.342  -1.407  54.702  1.00  0.00     0.030 A 
HETATM    9  C14 UNL     1      20.980  -1.476  54.446  1.00  0.00     0.002 A 
HETATM   10  C15 UNL     1      20.491  -0.687  53.424  1.00  0.00     0.001 A 
HETATM   11  C16 UNL     1      21.390   0.105  52.739  1.00  0.00     0.014 A 
HETATM   12  C17 UNL     1      22.743   0.162  53.007  1.00  0.00     0.003 A 
HETATM   13  O1  UNL     1      23.445   1.031  52.186  1.00  0.00     0.000 OA
HETATM   14  C18 UNL     1      23.659   2.371  52.438  1.00  0.00     0.138 A 
HETATM   15  N4  UNL     1      24.539   1.827  51.633  1.00  0.00    -0.242 N 
HETATM   16  H13 UNL     1      24.704  -0.717  55.490  1.00  0.00     0.161 HD
ENDROOT
BRANCH   1  17
HETATM   17  N1  UNL     1      25.353   3.693  50.235  1.00  0.00    -0.341 N 
HETATM   18  H8  UNL     1      24.339   3.486  50.100  1.00  0.00     0.167 HD
BRANCH  17  19
HETATM   19  C7  UNL     1      26.065   4.762  49.680  1.00  0.00     0.039 A 
HETATM   20  C2  UNL     1      25.635   6.053  49.891  1.00  0.00    -0.035 A 
HETATM   21  C1  UNL     1      24.451   6.422  50.669  1.00  0.00     0.050 C 
HETATM   22  C3  UNL     1      26.417   7.028  49.295  1.00  0.00     0.009 A 
HETATM   23  C4  UNL     1      27.546   6.783  48.545  1.00  0.00     0.001 A 
HETATM   24  C5  UNL     1      27.897   5.464  48.390  1.00  0.00     0.002 A 
HETATM   25  C6  UNL     1      27.177   4.405  48.948  1.00  0.00     0.030 A 
ENDBRANCH  17  19
ENDBRANCH   1  17
TORSDOF 2
ENDMDL
MODEL 3
REMARK VINA RESULT:      -9.0      1.458      7.758
REMARK  2 active torsions:
REMARK  status: ('A' for Active; 'I' for Inactive)
REMARK    1  A    between atoms: C7_7  and  N1_8 
REMARK    2  A    between atoms: N1_8  and  C8_9 
ROOT
HETATM    1  C8  UNL     1      23.321   0.819  52.597  1.00  0.00     0.129 C 
HETATM    2  C9  UNL     1      23.479   2.126  52.872  1.00  0.00     0.069 C 
HETATM    3  C10 UNL     1      24.682   2.884  53.239  1.00  0.00     0.116 C 
HETATM    4  N2  UNL     1      25.687   2.112  53.283  1.00  0.00    -0.282 NA
HETATM    5  C11 UNL     1      27.037   2.407  53.590  1.00  0.00     0.270 C 
HETATM    6  N3  UNL     1      27.776   1.387  54.263  1.00  0.00    -0.371 N 
HETATM    7  C12 UNL     1      28.056   0.083  53.811  1.00  0.00     0.040 A 
HETATM    8  C13 UNL     1      29.329  -0.399  54.047  1.00  0.00     0.030 A 
HETATM    9  C14 UNL     1      29.796  -1.654  53.680  1.00  0.00     0.002 A 
HETATM   10  C15 UNL     1      28.912  -2.487  53.025  1.00  0.00     0.001 A 
HETATM   11  C16 UNL     1      27.639  -2.011  52.787  1.00  0.00     0.014 A 
HETATM   12  C17 UNL     1      27.190  -0.759  53.159  1.00  0.00     0.003 A 
HETATM   13  O1  UNL     1      25.872  -0.505  52.812  1.00  0.00     0.000 OA
HETATM   14  C18 UNL     1      24.772  -0.786  53.594  1.00  0.00     0.138 A 
HETATM   15  N4  UNL     1      24.576   0.161  52.710  1.00  0.00    -0.242 N 
HETATM   16  H13 UNL     1      28.181   1.592  55.226  1.00  0.00     0.161 HD
ENDROOT
BRANCH   1  17
HETATM   17  N1  UNL     1      22.151   0.097  52.243  1.00  0.00    -0.341 N 
HETATM   18  H8  UNL     1      22.452  -0.803  52.676  1.00  0.00     0.167 HD
BRANCH  17  19
HETATM   19  C7  UNL     1      20.948   0.337  51.571  1.00  0.00     0.039 A 
HETATM   20  C2  UNL     1      19.753   0.009  52.172  1.00  0.00    -0.035 A 
HETATM   21  C1  UNL     1      19.623  -0.593  53.499  1.00  0.00     0.050 C 
HETATM   22  C3  UNL     1      18.628   0.291  51.415  1.00  0.00     0.009 A 
HETATM   23  C4  UNL     1      18.645   0.856  50.158  1.00  0.00     0.001 A 
HETATM   24  C5  UNL     1      19.884   1.148  49.642  1.00  0.00     0.002 A 
HETATM   25  C6  UNL     1      21.079   0.903  50.322  1.00  0.00     0.030 A 
ENDBRANCH  17  19
ENDBRANCH   1  17
TORSDOF 2
ENDMDL
MODEL 4
REMARK VINA RESULT:      -8.9      3.117      4.640
REMARK  2 active torsions:
REMARK  status: ('A' for Active; 'I' for Inactive)
REMARK    1  A    between atoms: C7_7  and  N1_8 
REMARK    2  A    between atoms: N1_8  and  C8_9 
ROOT
HETATM    1  C8  UNL     1      24.563   0.301  53.022  1.00  0.00     0.129 C 
HETATM    2  C9  UNL     1      23.246   0.044  52.931  1.00  0.00     0.069 C 
HETATM    3  C10 UNL     1      22.209   0.665  52.096  1.00  0.00     0.116 C 
HETATM    4  N2  UNL     1      22.717   1.578  51.378  1.00  0.00    -0.282 NA
HETATM    5  C11 UNL     1      22.098   2.431  50.433  1.00  0.00     0.270 C 
HETATM    6  N3  UNL     1      22.631   3.751  50.318  1.00  0.00    -0.371 N 
HETATM    7  C12 UNL     1      23.939   4.124  49.951  1.00  0.00     0.040 A 
HETATM    8  C13 UNL     1      24.063   5.205  49.100  1.00  0.00     0.030 A 
HETATM    9  C14 UNL     1      25.260   5.723  48.625  1.00  0.00     0.002 A 
HETATM   10  C15 UNL     1      26.422   5.105  49.042  1.00  0.00     0.001 A 
HETATM   11  C16 UNL     1      26.304   4.025  49.892  1.00  0.00     0.014 A 
HETATM   12  C17 UNL     1      25.104   3.521  50.355  1.00  0.00     0.003 A 
HETATM   13  O1  UNL     1      25.237   2.430  51.199  1.00  0.00     0.000 OA
HETATM   14  C18 UNL     1      25.378   2.494  52.570  1.00  0.00     0.138 A 
HETATM   15  N4  UNL     1      24.898   1.356  52.130  1.00  0.00    -0.242 N 
HETATM   16  H13 UNL     1      22.001   4.584  50.527  1.00  0.00     0.161 HD
ENDROOT
BRANCH   1  17
HETATM   17  N1  UNL     1      25.556  -0.308  53.833  1.00  0.00    -0.341 N 
HETATM   18  H8  UNL     1      24.890  -0.699  54.534  1.00  0.00     0.167 HD
BRANCH  17  19
HETATM   19  C7  UNL     1      26.949  -0.439  53.844  1.00  0.00     0.039 A 
HETATM   20  C2  UNL     1      27.552  -1.391  53.052  1.00  0.00    -0.035 A 
HETATM   21  C1  UNL     1      26.840  -2.315  52.169  1.00  0.00     0.050 C 
HETATM   22  C3  UNL     1      28.933  -1.430  53.145  1.00  0.00     0.009 A 
HETATM   23  C4  UNL     1      29.693  -0.606  53.946  1.00  0.00     0.001 A 
HETATM   24  C5  UNL     1      29.002   0.313  54.699  1.00  0.00     0.002 A 
HETATM   25  C6  UNL     1      27.611   0.433  54.680  1.00  0.00     0.030 A 
ENDBRANCH  17  19
ENDBRANCH   1  17
TORSDOF 2
ENDMDL
MODEL 5
REMARK VINA RESULT:      -8.5      2.179      6.785
REMARK  2 active torsions:
REMARK  status: ('A' for Active; 'I' for Inactive)
REMARK    1  A    between atoms: C7_7  and  N1_8 
REMARK    2  A    between atoms: N1_8  and  C8_9 
ROOT
HETATM    1  C8  UNL     1      22.464   0.903  52.552  1.00  0.00     0.129 C 
HETATM    2  C9  UNL     1      22.035  -0.117  53.315  1.00  0.00     0.069 C 
HETATM    3  C10 UNL     1      22.744  -0.914  54.327  1.00  0.00     0.116 C 
HETATM    4  N2  UNL     1      23.942  -0.513  54.436  1.00  0.00    -0.282 NA
HETATM    5  C11 UNL     1      24.976  -0.985  55.280  1.00  0.00     0.270 C 
HETATM    6  N3  UNL     1      26.303  -0.922  54.758  1.00  0.00    -0.371 N 
HETATM    7  C12 UNL     1      27.017   0.222  54.350  1.00  0.00     0.040 A 
HETATM    8  C13 UNL     1      28.352   0.283  54.704  1.00  0.00     0.030 A 
HETATM    9  C14 UNL     1      29.220   1.322  54.396  1.00  0.00     0.002 A 
HETATM   10  C15 UNL     1      28.702   2.380  53.677  1.00  0.00     0.001 A 
HETATM   11  C16 UNL     1      27.371   2.324  53.321  1.00  0.00     0.014 A 
HETATM   12  C17 UNL     1      26.521   1.283  53.635  1.00  0.00     0.003 A 
HETATM   13  O1  UNL     1      25.226   1.450  53.169  1.00  0.00     0.000 OA
HETATM   14  C18 UNL     1      24.761   1.041  51.936  1.00  0.00     0.138 A 
HETATM   15  N4  UNL     1      23.828   1.171  52.848  1.00  0.00    -0.242 N 
HETATM   16  H13 UNL     1      26.858  -1.824  54.645  1.00  0.00     0.161 HD
ENDROOT
BRANCH   1  17
HETATM   17  N1  UNL     1      21.769   1.666  51.577  1.00  0.00    -0.341 N 
HETATM   18  H8  UNL     1      20.947   1.881  52.182  1.00  0.00     0.167 HD
BRANCH  17  19
HETATM   19  C7  UNL     1      21.960   2.080  50.254  1.00  0.00     0.039 A 
HETATM   20  C2  UNL     1      22.495   3.323  49.998  1.00  0.00    -0.035 A 
HETATM   21  C1  UNL     1      22.895   4.287  51.023  1.00  0.00     0.050 C 
HETATM   22  C3  UNL     1      22.639   3.625  48.654  1.00  0.00     0.009 A 
HETATM   23  C4  UNL     1      22.293   2.787  47.616  1.00  0.00     0.001 A 
HETATM   24  C5  UNL     1      21.766   1.568  47.971  1.00  0.00     0.002 A 
HETATM   25  C6  UNL     1      21.580   1.167  49.296  1.00  0.00     0.030 A 
ENDBRANCH  17  19
ENDBRANCH   1  17
TORSDOF 2
ENDMDL
MODEL 6
REMARK VINA RESULT:      -8.5      4.218      7.246
REMARK  2 active torsions:
REMARK  status: ('A' for Active; 'I' for Inactive)
REMARK    1  A    between atoms: C7_7  and  N1_8 
REMARK    2  A    between atoms: N1_8  and  C8_9 
ROOT
HETATM    1  C8  UNL     1      24.443   3.485  50.302  1.00  0.00     0.129 C 
HETATM    2  C9  UNL     1      23.356   2.700  50.411  1.00  0.00     0.069 C 
HETATM    3  C10 UNL     1      23.103   1.537  51.273  1.00  0.00     0.116 C 
HETATM    4  N2  UNL     1      24.117   1.302  51.996  1.00  0.00    -0.282 NA
HETATM    5  C11 UNL     1      24.318   0.289  52.964  1.00  0.00     0.270 C 
HETATM    6  N3  UNL     1      25.646  -0.219  53.091  1.00  0.00    -0.371 N 
HETATM    7  C12 UNL     1      26.812   0.491  53.441  1.00  0.00     0.040 A 
HETATM    8  C13 UNL     1      27.687  -0.137  54.307  1.00  0.00     0.030 A 
HETATM    9  C14 UNL     1      28.883   0.395  54.769  1.00  0.00     0.002 A 
HETATM   10  C15 UNL     1      29.223   1.656  54.323  1.00  0.00     0.001 A 
HETATM   11  C16 UNL     1      28.353   2.287  53.459  1.00  0.00     0.014 A 
HETATM   12  C17 UNL     1      27.166   1.744  53.009  1.00  0.00     0.003 A 
HETATM   13  O1  UNL     1      26.459   2.566  52.146  1.00  0.00     0.000 OA
HETATM   14  C18 UNL     1      26.601   2.594  50.773  1.00  0.00     0.138 A 
HETATM   15  N4  UNL     1      25.443   3.030  51.204  1.00  0.00    -0.242 N 
HETATM   16  H13 UNL     1      25.825  -1.252  52.906  1.00  0.00     0.161 HD
ENDROOT
BRANCH   1  17
HETATM   17  N1  UNL     1      24.676   4.607  49.465  1.00  0.00    -0.341 N 
HETATM   18  H8  UNL     1      23.948   4.362  48.760  1.00  0.00     0.167 HD
BRANCH  17  19
HETATM   19  C7  UNL     1      25.518   5.724  49.438  1.00  0.00     0.039 A 
HETATM   20  C2  UNL     1      25.222   6.823  50.212  1.00  0.00    -0.035 A 
HETATM   21  C1  UNL     1      24.058   6.935  51.093  1.00  0.00     0.050 C 
HETATM   22  C3  UNL     1      26.125   7.868  50.104  1.00  0.00     0.009 A 
HETATM   23  C4  UNL     1      27.247   7.860  49.305  1.00  0.00     0.001 A 
HETATM   24  C5  UNL     1      27.460   6.719  48.569  1.00  0.00     0.002 A 
HETATM   25  C6  UNL     1      26.610   5.611  48.605  1.00  0.00     0.030 A 
ENDBRANCH  17  19
ENDBRANCH   1  17
TORSDOF 2
ENDMDL
MODEL 7
REMARK VINA RESULT:      -8.3      4.246      7.220
REMARK  2 active torsions:
REMARK  status: ('A' for Active; 'I' for Inactive)
REMARK    1  A    between atoms: C7_7  and  N1_8 
REMARK    2  A    between atoms: N1_8  and  C8_9 
ROOT
HETATM    1  C8  UNL     1      22.762   2.436  51.461  1.00  0.00     0.129 C 
HETATM    2  C9  UNL     1      21.785   3.332  51.689  1.00  0.00     0.069 C 
HETATM    3  C10 UNL     1      21.711   4.764  51.369  1.00  0.00     0.116 C 
HETATM    4  N2  UNL     1      22.775   5.137  50.789  1.00  0.00    -0.282 NA
HETATM    5  C11 UNL     1      23.138   6.417  50.307  1.00  0.00     0.270 C 
HETATM    6  N3  UNL     1      24.522   6.758  50.380  1.00  0.00    -0.371 N 
HETATM    7  C12 UNL     1      25.605   6.104  49.760  1.00  0.00     0.040 A 
HETATM    8  C13 UNL     1      26.586   6.908  49.209  1.00  0.00     0.030 A 
HETATM    9  C14 UNL     1      27.725   6.456  48.558  1.00  0.00     0.002 A 
HETATM   10  C15 UNL     1      27.890   5.089  48.456  1.00  0.00     0.001 A 
HETATM   11  C16 UNL     1      26.915   4.282  49.005  1.00  0.00     0.014 A 
HETATM   12  C17 UNL     1      25.786   4.748  49.649  1.00  0.00     0.003 A 
HETATM   13  O1  UNL     1      24.949   3.748  50.118  1.00  0.00     0.000 OA
HETATM   14  C18 UNL     1      25.031   3.156  51.361  1.00  0.00     0.138 A 
HETATM   15  N4  UNL     1      23.846   3.081  50.805  1.00  0.00    -0.242 N 
HETATM   16  H13 UNL     1      24.818   7.599  50.962  1.00  0.00     0.161 HD
ENDROOT
BRANCH   1  17
HETATM   17  N1  UNL     1      22.821   1.053  51.774  1.00  0.00    -0.341 N 
HETATM   18  H8  UNL     1      22.920   0.729  50.787  1.00  0.00     0.167 HD
BRANCH  17  19
HETATM   19  C7  UNL     1      22.781   0.245  52.916  1.00  0.00     0.039 A 
HETATM   20  C2  UNL     1      21.571  -0.223  53.379  1.00  0.00    -0.035 A 
HETATM   21  C1  UNL     1      20.275   0.062  52.763  1.00  0.00     0.050 C 
HETATM   22  C3  UNL     1      21.653  -1.012  54.514  1.00  0.00     0.009 A 
HETATM   23  C4  UNL     1      22.823  -1.337  55.166  1.00  0.00     0.001 A 
HETATM   24  C5  UNL     1      23.979  -0.823  54.629  1.00  0.00     0.002 A 
HETATM   25  C6  UNL     1      24.006  -0.016  53.489  1.00  0.00     0.030 A 
ENDBRANCH  17  19
ENDBRANCH   1  17
TORSDOF 2
ENDMDL
MODEL 8
REMARK VINA RESULT:      -8.0      5.378      7.222
REMARK  2 active torsions:
REMARK  status: ('A' for Active; 'I' for Inactive)
REMARK    1  A    between atoms: C7_7  and  N1_8 
REMARK    2  A    between atoms: N1_8  and  C8_9 
ROOT
HETATM    1  C8  UNL     1      25.578   5.706  49.620  1.00  0.00     0.129 C 
HETATM    2  C9  UNL     1      24.582   6.380  50.223  1.00  0.00     0.069 C 
HETATM    3  C10 UNL     1      23.723   6.001  51.354  1.00  0.00     0.116 C 
HETATM    4  N2  UNL     1      24.032   4.844  51.768  1.00  0.00    -0.282 NA
HETATM    5  C11 UNL     1      23.474   4.086  52.825  1.00  0.00     0.270 C 
HETATM    6  N3  UNL     1      23.444   2.670  52.650  1.00  0.00    -0.371 N 
HETATM    7  C12 UNL     1      24.537   1.800  52.465  1.00  0.00     0.040 A 
HETATM    8  C13 UNL     1      24.494   0.594  53.139  1.00  0.00     0.030 A 
HETATM    9  C14 UNL     1      25.470  -0.392  53.088  1.00  0.00     0.002 A 
HETATM   10  C15 UNL     1      26.572  -0.144  52.295  1.00  0.00     0.001 A 
HETATM   11  C16 UNL     1      26.620   1.058  51.620  1.00  0.00     0.014 A 
HETATM   12  C17 UNL     1      25.641   2.029  51.682  1.00  0.00     0.003 A 
HETATM   13  O1  UNL     1      25.909   3.153  50.917  1.00  0.00     0.000 OA
HETATM   14  C18 UNL     1      25.552   3.324  49.596  1.00  0.00     0.138 A 
HETATM   15  N4  UNL     1      25.739   4.443  50.252  1.00  0.00    -0.242 N 
HETATM   16  H13 UNL     1      22.505   2.168  52.650  1.00  0.00     0.161 HD
ENDROOT
BRANCH   1  17
HETATM   17  N1  UNL     1      26.402   6.082  48.528  1.00  0.00    -0.341 N 
HETATM   18  H8  UNL     1      25.637   6.087  47.819  1.00  0.00     0.167 HD
BRANCH  17  19
HETATM   19  C7  UNL     1      27.750   6.380  48.300  1.00  0.00     0.039 A 
HETATM   20  C2  UNL     1      28.135   7.685  48.089  1.00  0.00    -0.035 A 
HETATM   21  C1  UNL     1      27.227   8.832  48.078  1.00  0.00     0.050 C 
HETATM   22  C3  UNL     1      29.492   7.860  47.874  1.00  0.00     0.009 A 
HETATM   23  C4  UNL     1      30.426   6.847  47.864  1.00  0.00     0.001 A 
HETATM   24  C5  UNL     1      29.946   5.578  48.084  1.00  0.00     0.002 A 
HETATM   25  C6  UNL     1      28.597   5.294  48.310  1.00  0.00     0.030 A 
ENDBRANCH  17  19
ENDBRANCH   1  17
TORSDOF 2
ENDMDL
MODEL 9
REMARK VINA RESULT:      -8.0      3.130      4.680
REMARK  2 active torsions:
REMARK  status: ('A' for Active; 'I' for Inactive)
REMARK    1  A    between atoms: C7_7  and  N1_8 
REMARK    2  A    between atoms: N1_8  and  C8_9 
ROOT
HETATM    1  C8  UNL     1      23.342   1.574  51.508  1.00  0.00     0.129 C 
HETATM    2  C9  UNL     1      24.071   0.958  52.455  1.00  0.00     0.069 C 
HETATM    3  C10 UNL     1      23.689  -0.069  53.434  1.00  0.00     0.116 C 
HETATM    4  N2  UNL     1      22.464  -0.366  53.300  1.00  0.00    -0.282 NA
HETATM    5  C11 UNL     1      21.677  -1.295  54.021  1.00  0.00     0.270 C 
HETATM    6  N3  UNL     1      20.302  -0.957  54.210  1.00  0.00    -0.371 N 
HETATM    7  C12 UNL     1      19.323  -0.739  53.221  1.00  0.00     0.040 A 
HETATM    8  C13 UNL     1      18.068  -1.267  53.459  1.00  0.00     0.030 A 
HETATM    9  C14 UNL     1      16.976  -1.160  52.610  1.00  0.00     0.002 A 
HETATM   10  C15 UNL     1      17.162  -0.468  51.431  1.00  0.00     0.001 A 
HETATM   11  C16 UNL     1      18.412   0.061  51.188  1.00  0.00     0.014 A 
HETATM   12  C17 UNL     1      19.490  -0.054  52.043  1.00  0.00     0.003 A 
HETATM   13  O1  UNL     1      20.644   0.560  51.585  1.00  0.00     0.000 OA
HETATM   14  C18 UNL     1      20.999   1.873  51.822  1.00  0.00     0.138 A 
HETATM   15  N4  UNL     1      22.009   1.082  51.548  1.00  0.00    -0.242 N 
HETATM   16  H13 UNL     1      19.929  -0.844  55.201  1.00  0.00     0.161 HD
ENDROOT
BRANCH   1  17
HETATM   17  N1  UNL     1      23.722   2.566  50.567  1.00  0.00    -0.341 N 
HETATM   18  H8  UNL     1      23.664   1.942  49.732  1.00  0.00     0.167 HD
BRANCH  17  19
HETATM   19  C7  UNL     1      24.077   3.919  50.572  1.00  0.00     0.039 A 
HETATM   20  C2  UNL     1      25.297   4.308  50.066  1.00  0.00    -0.035 A 
HETATM   21  C1  UNL     1      26.297   3.398  49.505  1.00  0.00     0.050 C 
HETATM   22  C3  UNL     1      25.540   5.670  50.122  1.00  0.00     0.009 A 
HETATM   23  C4  UNL     1      24.665   6.606  50.630  1.00  0.00     0.001 A 
HETATM   24  C5  UNL     1      23.472   6.123  51.112  1.00  0.00     0.002 A 
HETATM   25  C6  UNL     1      23.131   4.768  51.103  1.00  0.00     0.030 A 
ENDBRANCH  17  19
ENDBRANCH   1  17
TORSDOF 2
ENDMDL
