MODEL 1
REMARK VINA RESULT:      -8.3      0.000      0.000
REMARK  2 active torsions:
REMARK  status: ('A' for Active; 'I' for Inactive)
REMARK    1  A    between atoms: C2_2  and  O1_3 
REMARK    2  A    between atoms: C2_2  and  C3_4 
ROOT
HETATM    1  C3  UNL     1      27.547   1.060  53.340  1.00  0.00    -0.042 C 
HETATM    2  C4  UNL     1      26.409   0.414  53.709  1.00  0.00     0.053 C 
HETATM    3  C5  UNL     1      25.803  -0.518  54.721  1.00  0.00     0.000 C 
HETATM    4  C6  UNL     1      24.712  -0.443  54.055  1.00  0.00     0.085 C 
HETATM    5  N1  UNL     1      23.473  -0.470  53.458  1.00  0.00    -0.366 N 
HETATM    6  C7  UNL     1      22.159  -0.285  53.072  1.00  0.00     0.038 A 
HETATM    7  C8  UNL     1      21.277  -0.979  53.752  1.00  0.00     0.030 A 
HETATM    8  C9  UNL     1      19.815  -0.949  53.519  1.00  0.00    -0.001 A 
HETATM    9  C10 UNL     1      19.548  -0.142  52.541  1.00  0.00    -0.022 A 
HETATM   10  C11 UNL     1      20.366   0.690  51.678  1.00  0.00     0.068 A 
HETATM   11  C12 UNL     1      21.797   0.612  51.997  1.00  0.00    -0.023 A 
HETATM   12  C13 UNL     1      22.439   1.441  51.234  1.00  0.00     0.084 C 
HETATM   13  C14 UNL     1      23.588   2.143  50.737  1.00  0.00     0.245 C 
HETATM   14  O2  UNL     1      24.059   1.464  51.720  1.00  0.00    -0.268 OA
HETATM   15  N2  UNL     1      24.958   2.433  50.834  1.00  0.00    -0.334 N 
HETATM   16  C15 UNL     1      26.345   2.452  51.265  1.00  0.00     0.091 C 
HETATM   17  C16 UNL     1      26.844   1.762  52.262  1.00  0.00     0.023 C 
HETATM   18  H9  UNL     1      23.560  -1.206  52.669  1.00  0.00     0.165 HD
HETATM   19  H16 UNL     1      24.602   2.994  50.033  1.00  0.00     0.168 HD
ENDROOT
BRANCH   1  20
HETATM   20  C2  UNL     1      29.042   1.379  53.581  1.00  0.00     0.143 C 
HETATM   21  C1  UNL     1      29.768   0.084  53.832  1.00  0.00     0.044 C 
BRANCH  20  22
HETATM   22  O1  UNL     1      29.175   2.311  54.582  1.00  0.00    -0.392 OA
HETATM   23  H5  UNL     1      29.725   1.928  55.305  1.00  0.00     0.210 HD
ENDBRANCH  20  22
ENDBRANCH   1  20
TORSDOF 2
ENDMDL
MODEL 2
REMARK VINA RESULT:      -8.2      1.564      3.196
REMARK  2 active torsions:
REMARK  status: ('A' for Active; 'I' for Inactive)
REMARK    1  A    between atoms: C2_2  and  O1_3 
REMARK    2  A    between atoms: C2_2  and  C3_4 
ROOT
HETATM    1  C3  UNL     1      26.730   0.545  53.611  1.00  0.00    -0.042 C 
HETATM    2  C4  UNL     1      25.612   0.848  52.898  1.00  0.00     0.053 C 
HETATM    3  C5  UNL     1      25.094   1.529  51.663  1.00  0.00     0.000 C 
HETATM    4  C6  UNL     1      23.916   1.207  52.045  1.00  0.00     0.085 C 
HETATM    5  N1  UNL     1      22.594   0.941  52.314  1.00  0.00    -0.366 N 
HETATM    6  C7  UNL     1      21.308   0.438  52.387  1.00  0.00     0.038 A 
HETATM    7  C8  UNL     1      20.500   0.837  51.432  1.00  0.00     0.030 A 
HETATM    8  C9  UNL     1      19.081   0.436  51.302  1.00  0.00    -0.001 A 
HETATM    9  C10 UNL     1      18.763  -0.357  52.277  1.00  0.00    -0.022 A 
HETATM   10  C11 UNL     1      19.495  -0.895  53.408  1.00  0.00     0.068 A 
HETATM   11  C12 UNL     1      20.897  -0.462  53.442  1.00  0.00    -0.023 A 
HETATM   12  C13 UNL     1      21.491  -1.048  54.435  1.00  0.00     0.084 C 
HETATM   13  C14 UNL     1      22.599  -1.395  55.279  1.00  0.00     0.245 C 
HETATM   14  O2  UNL     1      23.139  -0.672  54.366  1.00  0.00    -0.268 OA
HETATM   15  N2  UNL     1      23.972  -1.319  55.556  1.00  0.00    -0.334 N 
HETATM   16  C15 UNL     1      25.387  -0.997  55.482  1.00  0.00     0.091 C 
HETATM   17  C16 UNL     1      25.954  -0.256  54.561  1.00  0.00     0.023 C 
HETATM   18  H9  UNL     1      22.287   1.716  53.004  1.00  0.00     0.165 HD
HETATM   19  H16 UNL     1      23.560  -1.908  56.308  1.00  0.00     0.168 HD
ENDROOT
BRANCH   1  20
HETATM   20  C2  UNL     1      28.267   0.618  53.783  1.00  0.00     0.143 C 
HETATM   21  C1  UNL     1      28.843  -0.738  53.473  1.00  0.00     0.044 C 
BRANCH  20  22
HETATM   22  O1  UNL     1      28.583   1.101  55.031  1.00  0.00    -0.392 OA
HETATM   23  H5  UNL     1      28.997   0.377  55.558  1.00  0.00     0.210 HD
ENDBRANCH  20  22
ENDBRANCH   1  20
TORSDOF 2
ENDMDL
MODEL 3
REMARK VINA RESULT:      -8.2      1.821      3.496
REMARK  2 active torsions:
REMARK  status: ('A' for Active; 'I' for Inactive)
REMARK    1  A    between atoms: C2_2  and  O1_3 
REMARK    2  A    between atoms: C2_2  and  C3_4 
ROOT
HETATM    1  C3  UNL     1      25.652   1.567  52.211  1.00  0.00    -0.042 C 
HETATM    2  C4  UNL     1      24.353   1.586  51.806  1.00  0.00     0.053 C 
HETATM    3  C5  UNL     1      23.403   2.104  50.764  1.00  0.00     0.000 C 
HETATM    4  C6  UNL     1      22.464   1.521  51.409  1.00  0.00     0.085 C 
HETATM    5  N1  UNL     1      21.348   0.956  51.982  1.00  0.00    -0.366 N 
HETATM    6  C7  UNL     1      20.273   0.167  52.345  1.00  0.00     0.038 A 
HETATM    7  C8  UNL     1      19.184   0.347  51.634  1.00  0.00     0.030 A 
HETATM    8  C9  UNL     1      17.910  -0.378  51.838  1.00  0.00    -0.001 A 
HETATM    9  C10 UNL     1      18.036  -1.206  52.828  1.00  0.00    -0.022 A 
HETATM   10  C11 UNL     1      19.129  -1.536  53.723  1.00  0.00     0.068 A 
HETATM   11  C12 UNL     1      20.356  -0.784  53.431  1.00  0.00    -0.023 A 
HETATM   12  C13 UNL     1      21.296  -1.197  54.224  1.00  0.00     0.084 C 
HETATM   13  C14 UNL     1      22.627  -1.258  54.758  1.00  0.00     0.245 C 
HETATM   14  O2  UNL     1      22.742  -0.445  53.770  1.00  0.00    -0.268 OA
HETATM   15  N2  UNL     1      23.970  -0.857  54.694  1.00  0.00    -0.334 N 
HETATM   16  C15 UNL     1      25.208  -0.212  54.290  1.00  0.00     0.091 C 
HETATM   17  C16 UNL     1      25.342   0.624  53.289  1.00  0.00     0.023 C 
HETATM   18  H9  UNL     1      21.050   1.650  52.757  1.00  0.00     0.165 HD
HETATM   19  H16 UNL     1      23.904  -1.512  55.499  1.00  0.00     0.168 HD
ENDROOT
BRANCH   1  20
HETATM   20  C2  UNL     1      27.123   2.003  52.006  1.00  0.00     0.143 C 
HETATM   21  C1  UNL     1      27.770   2.139  53.359  1.00  0.00     0.044 C 
BRANCH  20  22
HETATM   22  O1  UNL     1      27.180   3.136  51.229  1.00  0.00    -0.392 OA
HETATM   23  H5  UNL     1      28.124   3.334  51.022  1.00  0.00     0.210 HD
ENDBRANCH  20  22
ENDBRANCH   1  20
TORSDOF 2
ENDMDL
MODEL 4
REMARK VINA RESULT:      -8.1      2.639      4.043
REMARK  2 active torsions:
REMARK  status: ('A' for Active; 'I' for Inactive)
REMARK    1  A    between atoms: C2_2  and  O1_3 
REMARK    2  A    between atoms: C2_2  and  C3_4 
ROOT
HETATM    1  C3  UNL     1      25.744   4.417  49.822  1.00  0.00    -0.042 C 
HETATM    2  C4  UNL     1      25.718   3.313  50.616  1.00  0.00     0.053 C 
HETATM    3  C5  UNL     1      26.564   2.270  51.291  1.00  0.00     0.000 C 
HETATM    4  C6  UNL     1      25.478   1.747  51.721  1.00  0.00     0.085 C 
HETATM    5  N1  UNL     1      24.411   1.065  52.259  1.00  0.00    -0.366 N 
HETATM    6  C7  UNL     1      23.408   0.543  53.055  1.00  0.00     0.038 A 
HETATM    7  C8  UNL     1      23.774  -0.455  53.826  1.00  0.00     0.030 A 
HETATM    8  C9  UNL     1      22.877  -1.175  54.759  1.00  0.00    -0.001 A 
HETATM    9  C10 UNL     1      21.684  -0.674  54.687  1.00  0.00    -0.022 A 
HETATM   10  C11 UNL     1      21.094   0.398  53.908  1.00  0.00     0.068 A 
HETATM   11  C12 UNL     1      22.061   1.068  53.029  1.00  0.00    -0.023 A 
HETATM   12  C13 UNL     1      21.469   2.056  52.434  1.00  0.00     0.084 C 
HETATM   13  C14 UNL     1      21.377   3.206  51.579  1.00  0.00     0.245 C 
HETATM   14  O2  UNL     1      22.629   2.918  51.554  1.00  0.00    -0.268 OA
HETATM   15  N2  UNL     1      22.012   4.147  50.755  1.00  0.00    -0.334 N 
HETATM   16  C15 UNL     1      23.018   4.885  50.010  1.00  0.00     0.091 C 
HETATM   17  C16 UNL     1      24.297   4.602  49.968  1.00  0.00     0.023 C 
HETATM   18  H9  UNL     1      24.059   0.423  51.462  1.00  0.00     0.165 HD
HETATM   19  H16 UNL     1      21.003   4.402  50.758  1.00  0.00     0.168 HD
ENDROOT
BRANCH   1  20
HETATM   20  C2  UNL     1      26.546   5.456  49.001  1.00  0.00     0.143 C 
HETATM   21  C1  UNL     1      27.846   4.824  48.579  1.00  0.00     0.044 C 
BRANCH  20  22
HETATM   22  O1  UNL     1      26.683   6.623  49.714  1.00  0.00    -0.392 OA
HETATM   23  H5  UNL     1      25.924   7.217  49.503  1.00  0.00     0.210 HD
ENDBRANCH  20  22
ENDBRANCH   1  20
TORSDOF 2
ENDMDL
MODEL 5
REMARK VINA RESULT:      -7.9      2.188      4.056
REMARK  2 active torsions:
REMARK  status: ('A' for Active; 'I' for Inactive)
REMARK    1  A    between atoms: C2_2  and  O1_3 
REMARK    2  A    between atoms: C2_2  and  C3_4 
ROOT
HETATM    1  C3  UNL     1      25.274   4.235  50.202  1.00  0.00    -0.042 C 
HETATM    2  C4  UNL     1      24.064   3.778  50.624  1.00  0.00     0.053 C 
HETATM    3  C5  UNL     1      22.578   3.973  50.522  1.00  0.00     0.000 C 
HETATM    4  C6  UNL     1      22.450   3.012  51.358  1.00  0.00     0.085 C 
HETATM    5  N1  UNL     1      22.141   2.005  52.242  1.00  0.00    -0.366 N 
HETATM    6  C7  UNL     1      21.786   0.827  52.873  1.00  0.00     0.038 A 
HETATM    7  C8  UNL     1      20.494   0.629  52.995  1.00  0.00     0.030 A 
HETATM    8  C9  UNL     1      19.876  -0.554  53.635  1.00  0.00    -0.001 A 
HETATM    9  C10 UNL     1      20.805  -1.352  54.060  1.00  0.00    -0.022 A 
HETATM   10  C11 UNL     1      22.255  -1.306  54.029  1.00  0.00     0.068 A 
HETATM   11  C12 UNL     1      22.776  -0.109  53.357  1.00  0.00    -0.023 A 
HETATM   12  C13 UNL     1      24.069  -0.190  53.307  1.00  0.00     0.084 C 
HETATM   13  C14 UNL     1      25.396   0.229  52.951  1.00  0.00     0.245 C 
HETATM   14  O2  UNL     1      24.647   1.108  52.388  1.00  0.00    -0.268 OA
HETATM   15  N2  UNL     1      26.234   1.130  52.277  1.00  0.00    -0.334 N 
HETATM   16  C15 UNL     1      26.718   2.243  51.479  1.00  0.00     0.091 C 
HETATM   17  C16 UNL     1      25.970   3.152  50.902  1.00  0.00     0.023 C 
HETATM   18  H9  UNL     1      22.244   2.453  53.222  1.00  0.00     0.165 HD
HETATM   19  H16 UNL     1      26.863   0.431  52.723  1.00  0.00     0.168 HD
ENDROOT
BRANCH   1  20
HETATM   20  C2  UNL     1      26.108   5.230  49.359  1.00  0.00     0.143 C 
HETATM   21  C1  UNL     1      27.315   4.504  48.827  1.00  0.00     0.044 C 
BRANCH  20  22
HETATM   22  O1  UNL     1      26.396   6.353  50.097  1.00  0.00    -0.392 OA
HETATM   23  H5  UNL     1      27.287   6.247  50.506  1.00  0.00     0.210 HD
ENDBRANCH  20  22
ENDBRANCH   1  20
TORSDOF 2
ENDMDL
MODEL 6
REMARK VINA RESULT:      -7.8      2.201      6.541
REMARK  2 active torsions:
REMARK  status: ('A' for Active; 'I' for Inactive)
REMARK    1  A    between atoms: C2_2  and  O1_3 
REMARK    2  A    between atoms: C2_2  and  C3_4 
ROOT
HETATM    1  C3  UNL     1      23.453   3.363  49.163  1.00  0.00    -0.042 C 
HETATM    2  C4  UNL     1      24.687   3.275  49.729  1.00  0.00     0.053 C 
HETATM    3  C5  UNL     1      26.081   3.836  49.721  1.00  0.00     0.000 C 
HETATM    4  C6  UNL     1      26.372   2.981  50.628  1.00  0.00     0.085 C 
HETATM    5  N1  UNL     1      26.844   2.129  51.599  1.00  0.00    -0.366 N 
HETATM    6  C7  UNL     1      27.267   1.513  52.763  1.00  0.00     0.038 A 
HETATM    7  C8  UNL     1      28.509   1.763  53.104  1.00  0.00     0.030 A 
HETATM    8  C9  UNL     1      29.184   1.216  54.303  1.00  0.00    -0.001 A 
HETATM    9  C10 UNL     1      28.362   0.452  54.952  1.00  0.00    -0.022 A 
HETATM   10  C11 UNL     1      26.983   0.053  54.736  1.00  0.00     0.068 A 
HETATM   11  C12 UNL     1      26.392   0.661  53.537  1.00  0.00    -0.023 A 
HETATM   12  C13 UNL     1      25.145   0.314  53.466  1.00  0.00     0.084 C 
HETATM   13  C14 UNL     1      23.818   0.299  52.919  1.00  0.00     0.245 C 
HETATM   14  O2  UNL     1      24.434   1.149  52.178  1.00  0.00    -0.268 OA
HETATM   15  N2  UNL     1      22.899   0.783  51.975  1.00  0.00    -0.334 N 
HETATM   16  C15 UNL     1      22.296   1.512  50.872  1.00  0.00     0.091 C 
HETATM   17  C16 UNL     1      22.911   2.377  50.103  1.00  0.00     0.023 C 
HETATM   18  H9  UNL     1      27.089   1.215  51.073  1.00  0.00     0.165 HD
HETATM   19  H16 UNL     1      22.377   0.099  52.560  1.00  0.00     0.168 HD
ENDROOT
BRANCH   1  20
HETATM   20  C2  UNL     1      22.495   4.018  48.139  1.00  0.00     0.143 C 
HETATM   21  C1  UNL     1      22.148   2.992  47.092  1.00  0.00     0.044 C 
BRANCH  20  22
HETATM   22  O1  UNL     1      23.048   5.174  47.643  1.00  0.00    -0.392 OA
HETATM   23  H5  UNL     1      23.890   4.953  47.180  1.00  0.00     0.210 HD
ENDBRANCH  20  22
ENDBRANCH   1  20
TORSDOF 2
ENDMDL
MODEL 7
REMARK VINA RESULT:      -7.8      1.988      2.907
REMARK  2 active torsions:
REMARK  status: ('A' for Active; 'I' for Inactive)
REMARK    1  A    between atoms: C2_2  and  O1_3 
REMARK    2  A    between atoms: C2_2  and  C3_4 
ROOT
HETATM    1  C3  UNL     1      24.729  -0.023  53.843  1.00  0.00    -0.042 C 
HETATM    2  C4  UNL     1      23.467  -0.483  54.057  1.00  0.00     0.053 C 
HETATM    3  C5  UNL     1      22.586  -1.248  55.005  1.00  0.00     0.000 C 
HETATM    4  C6  UNL     1      21.632  -1.078  54.169  1.00  0.00     0.085 C 
HETATM    5  N1  UNL     1      20.508  -0.984  53.382  1.00  0.00    -0.366 N 
HETATM    6  C7  UNL     1      19.308  -0.654  52.780  1.00  0.00     0.038 A 
HETATM    7  C8  UNL     1      18.242  -1.172  53.344  1.00  0.00     0.030 A 
HETATM    8  C9  UNL     1      16.852  -0.965  52.877  1.00  0.00    -0.001 A 
HETATM    9  C10 UNL     1      16.856  -0.204  51.828  1.00  0.00    -0.022 A 
HETATM   10  C11 UNL     1      17.907   0.446  51.067  1.00  0.00     0.068 A 
HETATM   11  C12 UNL     1      19.247   0.202  51.615  1.00  0.00    -0.023 A 
HETATM   12  C13 UNL     1      20.110   0.879  50.924  1.00  0.00     0.084 C 
HETATM   13  C14 UNL     1      21.410   1.383  50.583  1.00  0.00     0.245 C 
HETATM   14  O2  UNL     1      21.624   0.722  51.663  1.00  0.00    -0.268 OA
HETATM   15  N2  UNL     1      22.776   1.494  50.885  1.00  0.00    -0.334 N 
HETATM   16  C15 UNL     1      24.069   1.360  51.533  1.00  0.00     0.091 C 
HETATM   17  C16 UNL     1      24.306   0.684  52.632  1.00  0.00     0.023 C 
HETATM   18  H9  UNL     1      20.608  -1.780  52.656  1.00  0.00     0.165 HD
HETATM   19  H16 UNL     1      22.631   2.037  50.009  1.00  0.00     0.168 HD
ENDROOT
BRANCH   1  20
HETATM   20  C2  UNL     1      26.200   0.110  54.306  1.00  0.00     0.143 C 
HETATM   21  C1  UNL     1      27.089  -0.436  53.220  1.00  0.00     0.044 C 
BRANCH  20  22
HETATM   22  O1  UNL     1      26.368  -0.485  55.534  1.00  0.00    -0.392 OA
HETATM   23  H5  UNL     1      27.227  -0.971  55.539  1.00  0.00     0.210 HD
ENDBRANCH  20  22
ENDBRANCH   1  20
TORSDOF 2
ENDMDL
MODEL 8
REMARK VINA RESULT:      -7.5      1.789      6.899
REMARK  2 active torsions:
REMARK  status: ('A' for Active; 'I' for Inactive)
REMARK    1  A    between atoms: C2_2  and  O1_3 
REMARK    2  A    between atoms: C2_2  and  C3_4 
ROOT
HETATM    1  C3  UNL     1      21.160   0.521  51.705  1.00  0.00    -0.042 C 
HETATM    2  C4  UNL     1      22.411   1.042  51.586  1.00  0.00     0.053 C 
HETATM    3  C5  UNL     1      23.255   2.045  50.852  1.00  0.00     0.000 C 
HETATM    4  C6  UNL     1      24.250   1.632  51.542  1.00  0.00     0.085 C 
HETATM    5  N1  UNL     1      25.414   1.303  52.197  1.00  0.00    -0.366 N 
HETATM    6  C7  UNL     1      26.514   1.220  53.030  1.00  0.00     0.038 A 
HETATM    7  C8  UNL     1      27.527   1.984  52.692  1.00  0.00     0.030 A 
HETATM    8  C9  UNL     1      28.810   2.063  53.426  1.00  0.00    -0.001 A 
HETATM    9  C10 UNL     1      28.778   1.258  54.442  1.00  0.00    -0.022 A 
HETATM   10  C11 UNL     1      27.779   0.345  54.964  1.00  0.00     0.068 A 
HETATM   11  C12 UNL     1      26.534   0.351  54.186  1.00  0.00    -0.023 A 
HETATM   12  C13 UNL     1      25.677  -0.429  54.766  1.00  0.00     0.084 C 
HETATM   13  C14 UNL     1      24.405  -1.070  54.954  1.00  0.00     0.245 C 
HETATM   14  O2  UNL     1      24.198  -0.288  53.956  1.00  0.00    -0.268 OA
HETATM   15  N2  UNL     1      23.066  -1.225  54.566  1.00  0.00    -0.334 N 
HETATM   16  C15 UNL     1      21.798  -1.089  53.869  1.00  0.00     0.091 C 
HETATM   17  C16 UNL     1      21.570  -0.301  52.846  1.00  0.00     0.023 C 
HETATM   18  H9  UNL     1      25.793   0.435  51.674  1.00  0.00     0.165 HD
HETATM   19  H16 UNL     1      23.208  -1.867  55.373  1.00  0.00     0.168 HD
ENDROOT
BRANCH   1  20
HETATM   20  C2  UNL     1      19.679   0.484  51.257  1.00  0.00     0.143 C 
HETATM   21  C1  UNL     1      19.509   1.436  50.103  1.00  0.00     0.044 C 
BRANCH  20  22
HETATM   22  O1  UNL     1      18.852   0.730  52.327  1.00  0.00    -0.392 OA
HETATM   23  H5  UNL     1      18.045   1.199  52.007  1.00  0.00     0.210 HD
ENDBRANCH  20  22
ENDBRANCH   1  20
TORSDOF 2
ENDMDL
MODEL 9
REMARK VINA RESULT:      -7.4      3.101      6.411
REMARK  2 active torsions:
REMARK  status: ('A' for Active; 'I' for Inactive)
REMARK    1  A    between atoms: C2_2  and  O1_3 
REMARK    2  A    between atoms: C2_2  and  C3_4 
ROOT
HETATM    1  C3  UNL     1      21.690   0.760  53.343  1.00  0.00    -0.042 C 
HETATM    2  C4  UNL     1      22.907   1.035  52.801  1.00  0.00     0.053 C 
HETATM    3  C5  UNL     1      24.300   0.512  52.590  1.00  0.00     0.000 C 
HETATM    4  C6  UNL     1      24.566   1.615  51.999  1.00  0.00     0.085 C 
HETATM    5  N1  UNL     1      25.011   2.739  51.342  1.00  0.00    -0.366 N 
HETATM    6  C7  UNL     1      25.401   3.700  50.427  1.00  0.00     0.038 A 
HETATM    7  C8  UNL     1      26.633   3.583  49.989  1.00  0.00     0.030 A 
HETATM    8  C9  UNL     1      27.273   4.493  49.012  1.00  0.00    -0.001 A 
HETATM    9  C10 UNL     1      26.434   5.419  48.668  1.00  0.00    -0.022 A 
HETATM   10  C11 UNL     1      25.063   5.716  49.039  1.00  0.00     0.068 A 
HETATM   11  C12 UNL     1      24.506   4.750  49.994  1.00  0.00    -0.023 A 
HETATM   12  C13 UNL     1      23.262   5.046  50.208  1.00  0.00     0.084 C 
HETATM   13  C14 UNL     1      21.951   4.873  50.767  1.00  0.00     0.245 C 
HETATM   14  O2  UNL     1      22.587   3.835  51.177  1.00  0.00    -0.268 OA
HETATM   15  N2  UNL     1      21.059   4.104  51.530  1.00  0.00    -0.334 N 
HETATM   16  C15 UNL     1      20.487   3.053  52.355  1.00  0.00     0.091 C 
HETATM   17  C16 UNL     1      21.122   1.991  52.787  1.00  0.00     0.023 C 
HETATM   18  H9  UNL     1      25.273   3.436  52.127  1.00  0.00     0.165 HD
HETATM   19  H16 UNL     1      20.521   4.935  51.211  1.00  0.00     0.168 HD
ENDROOT
BRANCH   1  20
HETATM   20  C2  UNL     1      20.761  -0.198  54.128  1.00  0.00     0.143 C 
HETATM   21  C1  UNL     1      21.561  -1.409  54.529  1.00  0.00     0.044 C 
BRANCH  20  22
HETATM   22  O1  UNL     1      19.634  -0.476  53.392  1.00  0.00    -0.392 OA
HETATM   23  H5  UNL     1      18.854  -0.491  53.996  1.00  0.00     0.210 HD
ENDBRANCH  20  22
ENDBRANCH   1  20
TORSDOF 2
ENDMDL
