MODEL 1
REMARK VINA RESULT:      -7.5      0.000      0.000
REMARK  7 active torsions:
REMARK  status: ('A' for Active; 'I' for Inactive)
REMARK    1  A    between atoms: N1_2  and  C1_3 
REMARK    2  A    between atoms: C1_3  and  C2_4 
REMARK    3  A    between atoms: C2_4  and  N2_5 
REMARK    4  A    between atoms: C2_4  and  N4_15 
REMARK    5  A    between atoms: N2_5  and  C3_6 
REMARK    6  A    between atoms: C4_7  and  C5_8 
REMARK    7  A    between atoms: N4_15  and  C11_16 
ROOT
HETATM    1  C2  UNL     1      25.301   4.262  49.619  1.00  0.00     0.195 C 
ENDROOT
BRANCH   1   2
HETATM    2  C1  UNL     1      25.705   5.613  49.074  1.00  0.00     0.151 C 
BRANCH   2   3
HETATM    3  N1  UNL     1      27.071   5.926  49.457  1.00  0.00    -0.234 NA
HETATM    4 CL1  UNL     1      28.207   5.281  48.331  1.00  0.00    -0.024 Cl
HETATM    5  H1  UNL     1      27.209   6.908  49.715  1.00  0.00     0.141 HD
ENDBRANCH   2   3
ENDBRANCH   1   2
BRANCH   1   6
HETATM    6  N2  UNL     1      26.137   3.920  50.751  1.00  0.00    -0.377 N 
HETATM    7  H5  UNL     1      26.471   4.713  51.370  1.00  0.00     0.161 HD
BRANCH   6   8
HETATM    8  C3  UNL     1      26.462   2.555  50.974  1.00  0.00     0.085 C 
HETATM    9  C4  UNL     1      26.146   1.864  52.045  1.00  0.00     0.019 C 
BRANCH   9  10
HETATM   10  C5  UNL     1      26.576   0.480  52.072  1.00  0.00     0.033 C 
HETATM   11  C6  UNL     1      27.676   0.249  52.731  1.00  0.00     0.063 C 
HETATM   12  N3  UNL     1      28.536   1.122  53.434  1.00  0.00    -0.264 NA
HETATM   13  C10 UNL     1      28.400  -0.984  52.974  1.00  0.00    -0.019 A 
HETATM   14  C7  UNL     1      29.504   0.539  54.025  1.00  0.00     0.103 C 
HETATM   15  C8  UNL     1      29.594  -0.930  53.969  1.00  0.00     0.084 A 
HETATM   16  C9  UNL     1      29.119  -2.065  53.257  1.00  0.00    -0.002 A 
ENDBRANCH   9  10
ENDBRANCH   6   8
ENDBRANCH   1   6
BRANCH   1  17
HETATM   17  N4  UNL     1      23.905   4.110  49.858  1.00  0.00    -0.368 N 
HETATM   18  H12 UNL     1      23.466   4.990  50.237  1.00  0.00     0.161 HD
BRANCH  17  19
HETATM   19  C11 UNL     1      23.074   3.005  49.665  1.00  0.00     0.030 A 
HETATM   20  C12 UNL     1      22.575   2.573  48.455  1.00  0.00     0.029 A 
HETATM   21  C13 UNL     1      21.746   1.489  48.254  1.00  0.00     0.004 A 
HETATM   22  C14 UNL     1      21.390   0.775  49.379  1.00  0.00     0.019 A 
HETATM   23  C15 UNL     1      21.843   1.136  50.630  1.00  0.00     0.013 A 
HETATM   24 BR1  UNL     1      21.351   0.147  52.193  1.00  0.00    -0.051 Br
HETATM   25  C16 UNL     1      22.667   2.234  50.732  1.00  0.00     0.048 A 
ENDBRANCH  17  19
ENDBRANCH   1  17
TORSDOF 7
ENDMDL
MODEL 2
REMARK VINA RESULT:      -7.4      2.939      5.745
REMARK  7 active torsions:
REMARK  status: ('A' for Active; 'I' for Inactive)
REMARK    1  A    between atoms: N1_2  and  C1_3 
REMARK    2  A    between atoms: C1_3  and  C2_4 
REMARK    3  A    between atoms: C2_4  and  N2_5 
REMARK    4  A    between atoms: C2_4  and  N4_15 
REMARK    5  A    between atoms: N2_5  and  C3_6 
REMARK    6  A    between atoms: C4_7  and  C5_8 
REMARK    7  A    between atoms: N4_15  and  C11_16 
ROOT
HETATM    1  C2  UNL     1      25.671   3.140  51.036  1.00  0.00     0.195 C 
ENDROOT
BRANCH   1   2
HETATM    2  C1  UNL     1      26.401   3.202  49.714  1.00  0.00     0.151 C 
BRANCH   2   3
HETATM    3  N1  UNL     1      27.427   4.231  49.749  1.00  0.00    -0.234 NA
HETATM    4 CL1  UNL     1      27.122   5.467  48.586  1.00  0.00    -0.024 Cl
HETATM    5  H1  UNL     1      27.648   4.555  50.696  1.00  0.00     0.141 HD
ENDBRANCH   2   3
ENDBRANCH   1   2
BRANCH   1   6
HETATM    6  N2  UNL     1      24.270   3.448  50.839  1.00  0.00    -0.377 N 
HETATM    7  H5  UNL     1      24.034   4.328  50.295  1.00  0.00     0.161 HD
BRANCH   6   8
HETATM    8  C3  UNL     1      23.293   2.568  51.376  1.00  0.00     0.085 C 
HETATM    9  C4  UNL     1      22.791   1.524  50.760  1.00  0.00     0.019 C 
BRANCH   9  10
HETATM   10  C5  UNL     1      21.801   0.755  51.490  1.00  0.00     0.033 C 
HETATM   11  C6  UNL     1      22.255   0.091  52.516  1.00  0.00     0.063 C 
HETATM   12  N3  UNL     1      23.558  -0.013  53.049  1.00  0.00    -0.264 NA
HETATM   13  C10 UNL     1      21.580  -0.770  53.466  1.00  0.00    -0.019 A 
HETATM   14  C7  UNL     1      23.633  -0.709  54.116  1.00  0.00     0.103 C 
HETATM   15  C8  UNL     1      22.398  -1.264  54.693  1.00  0.00     0.084 A 
HETATM   16  C9  UNL     1      21.042  -1.562  54.388  1.00  0.00    -0.002 A 
ENDBRANCH   9  10
ENDBRANCH   6   8
ENDBRANCH   1   6
BRANCH   1  17
HETATM   17  N4  UNL     1      25.906   1.955  51.791  1.00  0.00    -0.368 N 
HETATM   18  H12 UNL     1      25.081   1.301  51.775  1.00  0.00     0.161 HD
BRANCH  17  19
HETATM   19  C11 UNL     1      27.031   1.557  52.514  1.00  0.00     0.030 A 
HETATM   20  C12 UNL     1      27.865   2.389  53.231  1.00  0.00     0.029 A 
HETATM   21  C13 UNL     1      28.984   2.007  53.941  1.00  0.00     0.004 A 
HETATM   22  C14 UNL     1      29.289   0.662  53.927  1.00  0.00     0.019 A 
HETATM   23  C15 UNL     1      28.509  -0.242  53.237  1.00  0.00     0.013 A 
HETATM   24 BR1  UNL     1      28.928  -2.109  53.217  1.00  0.00    -0.051 Br
HETATM   25  C16 UNL     1      27.411   0.233  52.557  1.00  0.00     0.048 A 
ENDBRANCH  17  19
ENDBRANCH   1  17
TORSDOF 7
ENDMDL
MODEL 3
REMARK VINA RESULT:      -7.3      2.997      6.161
REMARK  7 active torsions:
REMARK  status: ('A' for Active; 'I' for Inactive)
REMARK    1  A    between atoms: N1_2  and  C1_3 
REMARK    2  A    between atoms: C1_3  and  C2_4 
REMARK    3  A    between atoms: C2_4  and  N2_5 
REMARK    4  A    between atoms: C2_4  and  N4_15 
REMARK    5  A    between atoms: N2_5  and  C3_6 
REMARK    6  A    between atoms: C4_7  and  C5_8 
REMARK    7  A    between atoms: N4_15  and  C11_16 
ROOT
HETATM    1  C2  UNL     1      26.500   0.745  53.362  1.00  0.00     0.195 C 
ENDROOT
BRANCH   1   2
HETATM    2  C1  UNL     1      27.581   0.243  54.290  1.00  0.00     0.151 C 
BRANCH   2   3
HETATM    3  N1  UNL     1      28.875   0.771  53.892  1.00  0.00    -0.234 NA
HETATM    4 CL1  UNL     1      29.982  -0.493  53.504  1.00  0.00    -0.024 Cl
HETATM    5  H1  UNL     1      28.814   1.533  53.210  1.00  0.00     0.141 HD
ENDBRANCH   2   3
ENDBRANCH   1   2
BRANCH   1   6
HETATM    6  N2  UNL     1      27.095   1.259  52.145  1.00  0.00    -0.377 N 
HETATM    7  H5  UNL     1      27.929   0.736  51.750  1.00  0.00     0.161 HD
BRANCH   6   8
HETATM    8  C3  UNL     1      26.540   2.423  51.550  1.00  0.00     0.085 C 
HETATM    9  C4  UNL     1      26.337   2.595  50.264  1.00  0.00     0.019 C 
BRANCH   9  10
HETATM   10  C5  UNL     1      25.757   3.862  49.864  1.00  0.00     0.033 C 
HETATM   11  C6  UNL     1      26.574   4.690  49.276  1.00  0.00     0.063 C 
HETATM   12  N3  UNL     1      27.944   4.567  48.954  1.00  0.00    -0.264 NA
HETATM   13  C10 UNL     1      26.361   6.022  48.745  1.00  0.00    -0.019 A 
HETATM   14  C7  UNL     1      28.421   5.561  48.311  1.00  0.00     0.103 C 
HETATM   15  C8  UNL     1      27.522   6.663  47.932  1.00  0.00     0.084 A 
HETATM   16  C9  UNL     1      26.253   7.238  48.222  1.00  0.00    -0.002 A 
ENDBRANCH   9  10
ENDBRANCH   6   8
ENDBRANCH   1   6
BRANCH   1  17
HETATM   17  N4  UNL     1      25.430  -0.170  53.144  1.00  0.00    -0.368 N 
HETATM   18  H12 UNL     1      25.750  -1.054  52.669  1.00  0.00     0.161 HD
BRANCH  17  19
HETATM   19  C11 UNL     1      24.075  -0.063  53.463  1.00  0.00     0.030 A 
HETATM   20  C12 UNL     1      23.388  -0.870  54.345  1.00  0.00     0.029 A 
HETATM   21  C13 UNL     1      22.048  -0.778  54.660  1.00  0.00     0.004 A 
HETATM   22  C14 UNL     1      21.337   0.219  54.027  1.00  0.00     0.019 A 
HETATM   23  C15 UNL     1      21.944   1.073  53.130  1.00  0.00     0.013 A 
HETATM   24 BR1  UNL     1      20.961   2.460  52.250  1.00  0.00    -0.051 Br
HETATM   25  C16 UNL     1      23.288   0.904  52.879  1.00  0.00     0.048 A 
ENDBRANCH  17  19
ENDBRANCH   1  17
TORSDOF 7
ENDMDL
MODEL 4
REMARK VINA RESULT:      -7.2      3.262      6.061
REMARK  7 active torsions:
REMARK  status: ('A' for Active; 'I' for Inactive)
REMARK    1  A    between atoms: N1_2  and  C1_3 
REMARK    2  A    between atoms: C1_3  and  C2_4 
REMARK    3  A    between atoms: C2_4  and  N2_5 
REMARK    4  A    between atoms: C2_4  and  N4_15 
REMARK    5  A    between atoms: N2_5  and  C3_6 
REMARK    6  A    between atoms: C4_7  and  C5_8 
REMARK    7  A    between atoms: N4_15  and  C11_16 
ROOT
HETATM    1  C2  UNL     1      23.544   3.695  51.691  1.00  0.00     0.195 C 
ENDROOT
BRANCH   1   2
HETATM    2  C1  UNL     1      22.962   5.043  52.047  1.00  0.00     0.151 C 
BRANCH   2   3
HETATM    3  N1  UNL     1      24.023   5.990  52.347  1.00  0.00    -0.234 NA
HETATM    4 CL1  UNL     1      24.133   7.218  51.141  1.00  0.00    -0.024 Cl
HETATM    5  H1  UNL     1      24.016   6.318  53.317  1.00  0.00     0.141 HD
ENDBRANCH   2   3
ENDBRANCH   1   2
BRANCH   1   6
HETATM    6  N2  UNL     1      23.824   3.640  50.271  1.00  0.00    -0.377 N 
HETATM    7  H5  UNL     1      22.995   3.637  49.609  1.00  0.00     0.161 HD
BRANCH   6   8
HETATM    8  C3  UNL     1      25.176   3.594  49.840  1.00  0.00     0.085 C 
HETATM    9  C4  UNL     1      25.855   4.609  49.359  1.00  0.00     0.019 C 
BRANCH   9  10
HETATM   10  C5  UNL     1      27.229   4.347  48.977  1.00  0.00     0.033 C 
HETATM   11  C6  UNL     1      27.903   5.384  48.567  1.00  0.00     0.063 C 
HETATM   12  N3  UNL     1      27.525   6.738  48.428  1.00  0.00    -0.264 NA
HETATM   13  C10 UNL     1      29.274   5.510  48.113  1.00  0.00    -0.019 A 
HETATM   14  C7  UNL     1      28.471   7.509  48.053  1.00  0.00     0.103 C 
HETATM   15  C8  UNL     1      29.819   6.946  47.868  1.00  0.00     0.084 A 
HETATM   16  C9  UNL     1      30.518   5.720  47.697  1.00  0.00    -0.002 A 
ENDBRANCH   9  10
ENDBRANCH   6   8
ENDBRANCH   1   6
BRANCH   1  17
HETATM   17  N4  UNL     1      24.631   3.279  52.514  1.00  0.00    -0.368 N 
HETATM   18  H12 UNL     1      25.283   4.074  52.747  1.00  0.00     0.161 HD
BRANCH  17  19
HETATM   19  C11 UNL     1      24.935   2.021  53.036  1.00  0.00     0.030 A 
HETATM   20  C12 UNL     1      24.067   0.954  53.126  1.00  0.00     0.029 A 
HETATM   21  C13 UNL     1      24.355  -0.290  53.648  1.00  0.00     0.004 A 
HETATM   22  C14 UNL     1      25.637  -0.473  54.121  1.00  0.00     0.019 A 
HETATM   23  C15 UNL     1      26.572   0.539  54.069  1.00  0.00     0.013 A 
HETATM   24 BR1  UNL     1      28.352   0.288  54.724  1.00  0.00    -0.051 Br
HETATM   25  C16 UNL     1      26.191   1.748  53.531  1.00  0.00     0.048 A 
ENDBRANCH  17  19
ENDBRANCH   1  17
TORSDOF 7
ENDMDL
MODEL 5
REMARK VINA RESULT:      -7.2      3.804      6.983
REMARK  7 active torsions:
REMARK  status: ('A' for Active; 'I' for Inactive)
REMARK    1  A    between atoms: N1_2  and  C1_3 
REMARK    2  A    between atoms: C1_3  and  C2_4 
REMARK    3  A    between atoms: C2_4  and  N2_5 
REMARK    4  A    between atoms: C2_4  and  N4_15 
REMARK    5  A    between atoms: N2_5  and  C3_6 
REMARK    6  A    between atoms: C4_7  and  C5_8 
REMARK    7  A    between atoms: N4_15  and  C11_16 
ROOT
HETATM    1  C2  UNL     1      25.779  -0.258  52.984  1.00  0.00     0.195 C 
ENDROOT
BRANCH   1   2
HETATM    2  C1  UNL     1      26.925  -1.203  52.703  1.00  0.00     0.151 C 
BRANCH   2   3
HETATM    3  N1  UNL     1      27.837  -1.243  53.833  1.00  0.00    -0.234 NA
HETATM    4 CL1  UNL     1      29.369  -0.559  53.435  1.00  0.00    -0.024 Cl
HETATM    5  H1  UNL     1      27.417  -0.916  54.709  1.00  0.00     0.141 HD
ENDBRANCH   2   3
ENDBRANCH   1   2
BRANCH   1   6
HETATM    6  N2  UNL     1      25.281  -0.476  54.327  1.00  0.00    -0.377 N 
HETATM    7  H5  UNL     1      25.968  -0.364  55.128  1.00  0.00     0.161 HD
BRANCH   6   8
HETATM    8  C3  UNL     1      23.915  -0.823  54.504  1.00  0.00     0.085 C 
HETATM    9  C4  UNL     1      22.956  -0.594  53.637  1.00  0.00     0.019 C 
BRANCH   9  10
HETATM   10  C5  UNL     1      21.625  -1.030  54.015  1.00  0.00     0.033 C 
HETATM   11  C6  UNL     1      20.663  -0.629  53.233  1.00  0.00     0.063 C 
HETATM   12  N3  UNL     1      20.688   0.167  52.067  1.00  0.00    -0.264 NA
HETATM   13  C10 UNL     1      19.233  -0.861  53.288  1.00  0.00    -0.019 A 
HETATM   14  C7  UNL     1      19.550   0.313  51.509  1.00  0.00     0.103 C 
HETATM   15  C8  UNL     1      18.382  -0.381  52.077  1.00  0.00     0.084 A 
HETATM   16  C9  UNL     1      17.916  -1.032  53.252  1.00  0.00    -0.002 A 
ENDBRANCH   9  10
ENDBRANCH   6   8
ENDBRANCH   1   6
BRANCH   1  17
HETATM   17  N4  UNL     1      26.044   1.107  52.676  1.00  0.00    -0.368 N 
HETATM   18  H12 UNL     1      26.731   1.542  53.345  1.00  0.00     0.161 HD
BRANCH  17  19
HETATM   19  C11 UNL     1      25.542   1.912  51.652  1.00  0.00     0.030 A 
HETATM   20  C12 UNL     1      24.222   1.992  51.261  1.00  0.00     0.029 A 
HETATM   21  C13 UNL     1      23.718   2.777  50.245  1.00  0.00     0.004 A 
HETATM   22  C14 UNL     1      24.631   3.552  49.561  1.00  0.00     0.019 A 
HETATM   23  C15 UNL     1      25.971   3.535  49.884  1.00  0.00     0.013 A 
HETATM   24 BR1  UNL     1      27.240   4.611  48.937  1.00  0.00    -0.051 Br
HETATM   25  C16 UNL     1      26.381   2.719  50.915  1.00  0.00     0.048 A 
ENDBRANCH  17  19
ENDBRANCH   1  17
TORSDOF 7
ENDMDL
MODEL 6
REMARK VINA RESULT:      -7.2      2.969      6.210
REMARK  7 active torsions:
REMARK  status: ('A' for Active; 'I' for Inactive)
REMARK    1  A    between atoms: N1_2  and  C1_3 
REMARK    2  A    between atoms: C1_3  and  C2_4 
REMARK    3  A    between atoms: C2_4  and  N2_5 
REMARK    4  A    between atoms: C2_4  and  N4_15 
REMARK    5  A    between atoms: N2_5  and  C3_6 
REMARK    6  A    between atoms: C4_7  and  C5_8 
REMARK    7  A    between atoms: N4_15  and  C11_16 
ROOT
HETATM    1  C2  UNL     1      26.127   0.164  53.899  1.00  0.00     0.195 C 
ENDROOT
BRANCH   1   2
HETATM    2  C1  UNL     1      27.395   0.209  54.720  1.00  0.00     0.151 C 
BRANCH   2   3
HETATM    3  N1  UNL     1      28.315  -0.830  54.289  1.00  0.00    -0.234 NA
HETATM    4 CL1  UNL     1      29.781  -0.161  53.672  1.00  0.00    -0.024 Cl
HETATM    5  H1  UNL     1      28.424  -1.588  54.970  1.00  0.00     0.141 HD
ENDBRANCH   2   3
ENDBRANCH   1   2
BRANCH   1   6
HETATM    6  N2  UNL     1      26.439  -0.198  52.532  1.00  0.00    -0.377 N 
HETATM    7  H5  UNL     1      26.414  -1.229  52.281  1.00  0.00     0.161 HD
BRANCH   6   8
HETATM    8  C3  UNL     1      26.759   0.831  51.607  1.00  0.00     0.085 C 
HETATM    9  C4  UNL     1      26.097   1.955  51.463  1.00  0.00     0.019 C 
BRANCH   9  10
HETATM   10  C5  UNL     1      26.593   2.875  50.457  1.00  0.00     0.033 C 
HETATM   11  C6  UNL     1      25.867   3.939  50.266  1.00  0.00     0.063 C 
HETATM   12  N3  UNL     1      24.664   4.361  50.875  1.00  0.00    -0.264 NA
HETATM   13  C10 UNL     1      26.040   5.061  49.364  1.00  0.00    -0.019 A 
HETATM   14  C7  UNL     1      24.254   5.505  50.485  1.00  0.00     0.103 C 
HETATM   15  C8  UNL     1      25.071   6.266  49.525  1.00  0.00     0.084 A 
HETATM   16  C9  UNL     1      26.126   6.131  48.582  1.00  0.00    -0.002 A 
ENDBRANCH   9  10
ENDBRANCH   6   8
ENDBRANCH   1   6
BRANCH   1  17
HETATM   17  N4  UNL     1      25.071  -0.600  54.477  1.00  0.00    -0.368 N 
HETATM   18  H12 UNL     1      25.409  -1.220  55.259  1.00  0.00     0.161 HD
BRANCH  17  19
HETATM   19  C11 UNL     1      23.712  -0.634  54.167  1.00  0.00     0.030 A 
HETATM   20  C12 UNL     1      22.721  -1.199  54.941  1.00  0.00     0.029 A 
HETATM   21  C13 UNL     1      21.376  -1.246  54.638  1.00  0.00     0.004 A 
HETATM   22  C14 UNL     1      20.996  -0.668  53.445  1.00  0.00     0.019 A 
HETATM   23  C15 UNL     1      21.920  -0.078  52.609  1.00  0.00     0.013 A 
HETATM   24 BR1  UNL     1      21.397   0.726  50.953  1.00  0.00    -0.051 Br
HETATM   25  C16 UNL     1      23.242  -0.080  52.995  1.00  0.00     0.048 A 
ENDBRANCH  17  19
ENDBRANCH   1  17
TORSDOF 7
ENDMDL
MODEL 7
REMARK VINA RESULT:      -7.1      2.954      5.976
REMARK  7 active torsions:
REMARK  status: ('A' for Active; 'I' for Inactive)
REMARK    1  A    between atoms: N1_2  and  C1_3 
REMARK    2  A    between atoms: C1_3  and  C2_4 
REMARK    3  A    between atoms: C2_4  and  N2_5 
REMARK    4  A    between atoms: C2_4  and  N4_15 
REMARK    5  A    between atoms: N2_5  and  C3_6 
REMARK    6  A    between atoms: C4_7  and  C5_8 
REMARK    7  A    between atoms: N4_15  and  C11_16 
ROOT
HETATM    1  C2  UNL     1      26.432   1.836  52.566  1.00  0.00     0.195 C 
ENDROOT
BRANCH   1   2
HETATM    2  C1  UNL     1      27.144   0.586  53.028  1.00  0.00     0.151 C 
BRANCH   2   3
HETATM    3  N1  UNL     1      28.454   0.918  53.563  1.00  0.00    -0.234 NA
HETATM    4 CL1  UNL     1      29.408  -0.496  53.820  1.00  0.00    -0.024 Cl
HETATM    5  H1  UNL     1      28.918   1.683  53.065  1.00  0.00     0.141 HD
ENDBRANCH   2   3
ENDBRANCH   1   2
BRANCH   1   6
HETATM    6  N2  UNL     1      26.545   1.964  51.128  1.00  0.00    -0.377 N 
HETATM    7  H5  UNL     1      26.694   1.075  50.568  1.00  0.00     0.161 HD
BRANCH   6   8
HETATM    8  C3  UNL     1      26.451   3.255  50.545  1.00  0.00     0.085 C 
HETATM    9  C4  UNL     1      26.822   3.567  49.325  1.00  0.00     0.019 C 
BRANCH   9  10
HETATM   10  C5  UNL     1      26.639   4.949  48.925  1.00  0.00     0.033 C 
HETATM   11  C6  UNL     1      27.712   5.554  48.498  1.00  0.00     0.063 C 
HETATM   12  N3  UNL     1      29.039   5.093  48.354  1.00  0.00    -0.264 NA
HETATM   13  C10 UNL     1      27.915   6.907  48.022  1.00  0.00    -0.019 A 
HETATM   14  C7  UNL     1      29.836   5.946  47.838  1.00  0.00     0.103 C 
HETATM   15  C8  UNL     1      29.303   7.249  47.408  1.00  0.00     0.084 A 
HETATM   16  C9  UNL     1      28.191   8.122  47.560  1.00  0.00    -0.002 A 
ENDBRANCH   9  10
ENDBRANCH   6   8
ENDBRANCH   1   6
BRANCH   1  17
HETATM   17  N4  UNL     1      25.104   1.983  53.061  1.00  0.00    -0.368 N 
HETATM   18  H12 UNL     1      25.044   2.686  53.844  1.00  0.00     0.161 HD
BRANCH  17  19
HETATM   19  C11 UNL     1      23.922   1.353  52.667  1.00  0.00     0.030 A 
HETATM   20  C12 UNL     1      23.193   1.643  51.534  1.00  0.00     0.029 A 
HETATM   21  C13 UNL     1      22.020   1.033  51.140  1.00  0.00     0.004 A 
HETATM   22  C14 UNL     1      21.540   0.039  51.967  1.00  0.00     0.019 A 
HETATM   23  C15 UNL     1      22.206  -0.317  53.121  1.00  0.00     0.013 A 
HETATM   24 BR1  UNL     1      21.543  -1.697  54.269  1.00  0.00    -0.051 Br
HETATM   25  C16 UNL     1      23.370   0.348  53.431  1.00  0.00     0.048 A 
ENDBRANCH  17  19
ENDBRANCH   1  17
TORSDOF 7
ENDMDL
MODEL 8
REMARK VINA RESULT:      -7.1      3.285      4.757
REMARK  7 active torsions:
REMARK  status: ('A' for Active; 'I' for Inactive)
REMARK    1  A    between atoms: N1_2  and  C1_3 
REMARK    2  A    between atoms: C1_3  and  C2_4 
REMARK    3  A    between atoms: C2_4  and  N2_5 
REMARK    4  A    between atoms: C2_4  and  N4_15 
REMARK    5  A    between atoms: N2_5  and  C3_6 
REMARK    6  A    between atoms: C4_7  and  C5_8 
REMARK    7  A    between atoms: N4_15  and  C11_16 
ROOT
HETATM    1  C2  UNL     1      24.025   4.135  50.828  1.00  0.00     0.195 C 
ENDROOT
BRANCH   1   2
HETATM    2  C1  UNL     1      22.632   3.554  50.753  1.00  0.00     0.151 C 
BRANCH   2   3
HETATM    3  N1  UNL     1      22.632   2.342  49.951  1.00  0.00    -0.234 NA
HETATM    4 CL1  UNL     1      22.088   0.981  50.861  1.00  0.00    -0.024 Cl
HETATM    5  H1  UNL     1      22.202   2.462  49.029  1.00  0.00     0.141 HD
ENDBRANCH   2   3
ENDBRANCH   1   2
BRANCH   1   6
HETATM    6  N2  UNL     1      24.698   3.651  52.016  1.00  0.00    -0.377 N 
HETATM    7  H5  UNL     1      24.612   4.233  52.898  1.00  0.00     0.161 HD
BRANCH   6   8
HETATM    8  C3  UNL     1      25.429   2.436  51.941  1.00  0.00     0.085 C 
HETATM    9  C4  UNL     1      25.260   1.398  52.727  1.00  0.00     0.019 C 
BRANCH   9  10
HETATM   10  C5  UNL     1      26.115   0.252  52.480  1.00  0.00     0.033 C 
HETATM   11  C6  UNL     1      27.220   0.220  53.169  1.00  0.00     0.063 C 
HETATM   12  N3  UNL     1      27.739   1.117  54.129  1.00  0.00    -0.264 NA
HETATM   13  C10 UNL     1      28.299  -0.747  53.193  1.00  0.00    -0.019 A 
HETATM   14  C7  UNL     1      28.835   0.737  54.661  1.00  0.00     0.103 C 
HETATM   15  C8  UNL     1      29.396  -0.571  54.282  1.00  0.00     0.084 A 
HETATM   16  C9  UNL     1      29.325  -1.586  53.289  1.00  0.00    -0.002 A 
ENDBRANCH   9  10
ENDBRANCH   6   8
ENDBRANCH   1   6
BRANCH   1  17
HETATM   17  N4  UNL     1      24.789   4.005  49.632  1.00  0.00    -0.368 N 
HETATM   18  H12 UNL     1      24.497   3.170  49.060  1.00  0.00     0.161 HD
BRANCH  17  19
HETATM   19  C11 UNL     1      25.824   4.798  49.134  1.00  0.00     0.030 A 
HETATM   20  C12 UNL     1      27.140   4.411  48.991  1.00  0.00     0.029 A 
HETATM   21  C13 UNL     1      28.171   5.190  48.508  1.00  0.00     0.004 A 
HETATM   22  C14 UNL     1      27.844   6.477  48.137  1.00  0.00     0.019 A 
HETATM   23  C15 UNL     1      26.552   6.948  48.246  1.00  0.00     0.013 A 
HETATM   24 BR1  UNL     1      26.095   8.734  47.730  1.00  0.00    -0.051 Br
HETATM   25  C16 UNL     1      25.589   6.097  48.739  1.00  0.00     0.048 A 
ENDBRANCH  17  19
ENDBRANCH   1  17
TORSDOF 7
ENDMDL
MODEL 9
REMARK VINA RESULT:      -7.0      3.206      6.187
REMARK  7 active torsions:
REMARK  status: ('A' for Active; 'I' for Inactive)
REMARK    1  A    between atoms: N1_2  and  C1_3 
REMARK    2  A    between atoms: C1_3  and  C2_4 
REMARK    3  A    between atoms: C2_4  and  N2_5 
REMARK    4  A    between atoms: C2_4  and  N4_15 
REMARK    5  A    between atoms: N2_5  and  C3_6 
REMARK    6  A    between atoms: C4_7  and  C5_8 
REMARK    7  A    between atoms: N4_15  and  C11_16 
ROOT
HETATM    1  C2  UNL     1      27.368   0.681  53.882  1.00  0.00     0.195 C 
ENDROOT
BRANCH   1   2
HETATM    2  C1  UNL     1      28.678   0.963  54.583  1.00  0.00     0.151 C 
BRANCH   2   3
HETATM    3  N1  UNL     1      29.791   0.775  53.668  1.00  0.00    -0.234 NA
HETATM    4 CL1  UNL     1      30.163  -0.896  53.458  1.00  0.00    -0.024 Cl
HETATM    5  H1  UNL     1      29.710   1.325  52.807  1.00  0.00     0.141 HD
ENDBRANCH   2   3
ENDBRANCH   1   2
BRANCH   1   6
HETATM    6  N2  UNL     1      26.753  -0.503  54.446  1.00  0.00    -0.377 N 
HETATM    7  H5  UNL     1      27.392  -1.307  54.711  1.00  0.00     0.161 HD
BRANCH   6   8
HETATM    8  C3  UNL     1      25.343  -0.528  54.614  1.00  0.00     0.085 C 
HETATM    9  C4  UNL     1      24.474  -0.869  53.691  1.00  0.00     0.019 C 
BRANCH   9  10
HETATM   10  C5  UNL     1      23.075  -0.827  54.072  1.00  0.00     0.033 C 
HETATM   11  C6  UNL     1      22.263  -0.364  53.165  1.00  0.00     0.063 C 
HETATM   12  N3  UNL     1      22.508   0.111  51.857  1.00  0.00    -0.264 NA
HETATM   13  C10 UNL     1      20.826  -0.176  53.180  1.00  0.00    -0.019 A 
HETATM   14  C7  UNL     1      21.456   0.434  51.212  1.00  0.00     0.103 C 
HETATM   15  C8  UNL     1      20.142   0.233  51.844  1.00  0.00     0.084 A 
HETATM   16  C9  UNL     1      19.514   0.017  53.102  1.00  0.00    -0.002 A 
ENDBRANCH   9  10
ENDBRANCH   6   8
ENDBRANCH   1   6
BRANCH   1  17
HETATM   17  N4  UNL     1      26.493   1.801  53.784  1.00  0.00    -0.368 N 
HETATM   18  H12 UNL     1      26.315   2.253  54.720  1.00  0.00     0.161 HD
BRANCH  17  19
HETATM   19  C11 UNL     1      25.869   2.361  52.669  1.00  0.00     0.030 A 
HETATM   20  C12 UNL     1      26.421   2.482  51.411  1.00  0.00     0.029 A 
HETATM   21  C13 UNL     1      25.816   3.041  50.305  1.00  0.00     0.004 A 
HETATM   22  C14 UNL     1      24.536   3.521  50.485  1.00  0.00     0.019 A 
HETATM   23  C15 UNL     1      23.905   3.441  51.708  1.00  0.00     0.013 A 
HETATM   24 BR1  UNL     1      22.128   4.105  51.960  1.00  0.00    -0.051 Br
HETATM   25  C16 UNL     1      24.589   2.865  52.755  1.00  0.00     0.048 A 
ENDBRANCH  17  19
ENDBRANCH   1  17
TORSDOF 7
ENDMDL
