MODEL 1
REMARK VINA RESULT:      -8.8      0.000      0.000
REMARK  3 active torsions:
REMARK  status: ('A' for Active; 'I' for Inactive)
REMARK    1  A    between atoms: N1_5  and  C4_6 
REMARK    2  A    between atoms: C11_18  and  O3_19 
REMARK    3  A    between atoms: O3_19  and  C12_20 
ROOT
HETATM    1  C4  UNL     1      21.903   0.894  51.767  1.00  0.00     0.139 A 
HETATM    2  N2  UNL     1      21.500  -0.023  52.656  1.00  0.00    -0.224 NA
HETATM    3  C5  UNL     1      22.339  -0.571  53.509  1.00  0.00     0.235 A 
HETATM    4  N3  UNL     1      23.606  -0.216  53.497  1.00  0.00    -0.245 NA
HETATM    5  C6  UNL     1      24.143   0.686  52.664  1.00  0.00     0.063 A 
HETATM    6  C7  UNL     1      23.240   1.242  51.782  1.00  0.00     0.035 A 
HETATM    7  C8  UNL     1      23.395   2.133  50.883  1.00  0.00     0.018 A 
HETATM    8  O1  UNL     1      23.476   3.088  49.896  1.00  0.00     0.000 OA
HETATM    9  C9  UNL     1      24.767   3.658  49.480  1.00  0.00     0.031 A 
HETATM   10  C10 UNL     1      25.613   3.042  50.484  1.00  0.00     0.204 A 
HETATM   11  O2  UNL     1      26.916   3.102  50.731  1.00  0.00    -0.255 OA
HETATM   12  N4  UNL     1      27.296   2.312  51.780  1.00  0.00    -0.112 NA
HETATM   13  C11 UNL     1      26.697   1.512  52.523  1.00  0.00     0.178 A 
HETATM   14  C16 UNL     1      25.346   1.198  52.461  1.00  0.00     0.135 A 
ENDROOT
BRANCH   1  15
HETATM   15  N1  UNL     1      20.774   1.295  50.982  1.00  0.00    -0.360 N 
HETATM   16  C3  UNL     1      20.387   1.247  49.564  1.00  0.00     0.154 C 
HETATM   17  C2  UNL     1      19.641   2.495  49.180  1.00  0.00     0.032 C 
HETATM   18  C1  UNL     1      19.204   3.491  49.936  1.00  0.00     0.111 C 
HETATM   19  F1  UNL     1      18.547   4.515  49.316  1.00  0.00    -0.209 F 
HETATM   20  C18 UNL     1      19.493   3.381  51.378  1.00  0.00     0.162 C 
HETATM   21  C17 UNL     1      19.678   1.923  51.742  1.00  0.00     0.152 C 
HETATM   22 CL1  UNL     1      20.923   4.332  51.845  1.00  0.00    -0.116 Cl
ENDBRANCH   1  15
BRANCH  13  23
HETATM   23  O3  UNL     1      27.878   1.257  53.203  1.00  0.00    -0.328 OA
BRANCH  23  24
HETATM   24  C12 UNL     1      28.343   0.099  53.826  1.00  0.00     0.156 C 
HETATM   25  C13 UNL     1      29.869   0.096  53.649  1.00  0.00     0.061 C 
HETATM   26  C14 UNL     1      30.171  -1.382  53.694  1.00  0.00     0.170 C 
HETATM   27  O4  UNL     1      28.995  -2.072  53.526  1.00  0.00    -0.389 OA
HETATM   28  C15 UNL     1      27.993  -1.186  53.155  1.00  0.00     0.200 C 
ENDBRANCH  23  24
ENDBRANCH  13  23
TORSDOF 3
ENDMDL
MODEL 2
REMARK VINA RESULT:      -8.2      2.219      3.645
REMARK  3 active torsions:
REMARK  status: ('A' for Active; 'I' for Inactive)
REMARK    1  A    between atoms: N1_5  and  C4_6 
REMARK    2  A    between atoms: C11_18  and  O3_19 
REMARK    3  A    between atoms: O3_19  and  C12_20 
ROOT
HETATM    1  C4  UNL     1      23.861   3.024  50.273  1.00  0.00     0.139 A 
HETATM    2  N2  UNL     1      24.934   3.564  49.680  1.00  0.00    -0.224 NA
HETATM    3  C5  UNL     1      26.157   3.219  50.026  1.00  0.00     0.235 A 
HETATM    4  N3  UNL     1      26.340   2.324  50.973  1.00  0.00    -0.245 NA
HETATM    5  C6  UNL     1      25.359   1.708  51.646  1.00  0.00     0.063 A 
HETATM    6  C7  UNL     1      24.090   2.089  51.263  1.00  0.00     0.035 A 
HETATM    7  C8  UNL     1      22.945   1.698  51.666  1.00  0.00     0.018 A 
HETATM    8  O1  UNL     1      21.675   1.329  52.043  1.00  0.00     0.000 OA
HETATM    9  C9  UNL     1      21.440   0.424  53.178  1.00  0.00     0.031 A 
HETATM   10  C10 UNL     1      22.816   0.066  53.462  1.00  0.00     0.204 A 
HETATM   11  O2  UNL     1      23.377  -0.726  54.368  1.00  0.00    -0.255 OA
HETATM   12  N4  UNL     1      24.741  -0.738  54.292  1.00  0.00    -0.112 NA
HETATM   13  C11 UNL     1      25.576  -0.132  53.593  1.00  0.00     0.178 A 
HETATM   14  C16 UNL     1      25.287   0.802  52.609  1.00  0.00     0.135 A 
ENDROOT
BRANCH   1  15
HETATM   15  N1  UNL     1      22.684   3.597  49.690  1.00  0.00    -0.360 N 
HETATM   16  C3  UNL     1      21.549   4.410  50.156  1.00  0.00     0.154 C 
HETATM   17  C2  UNL     1      20.281   3.980  49.473  1.00  0.00     0.032 C 
HETATM   18  C1  UNL     1      20.097   3.120  48.482  1.00  0.00     0.111 C 
HETATM   19  F1  UNL     1      18.818   2.915  48.051  1.00  0.00    -0.209 F 
HETATM   20  C18 UNL     1      21.312   2.467  47.962  1.00  0.00     0.162 C 
HETATM   21  C17 UNL     1      22.514   3.342  48.249  1.00  0.00     0.152 C 
HETATM   22 CL1  UNL     1      21.540   0.841  48.650  1.00  0.00    -0.116 Cl
ENDBRANCH   1  15
BRANCH  13  23
HETATM   23  O3  UNL     1      26.605  -0.800  54.240  1.00  0.00    -0.328 OA
BRANCH  23  24
HETATM   24  C12 UNL     1      27.930  -0.434  54.471  1.00  0.00     0.156 C 
HETATM   25  C13 UNL     1      27.978   1.099  54.370  1.00  0.00     0.061 C 
HETATM   26  C14 UNL     1      29.409   1.324  53.943  1.00  0.00     0.170 C 
HETATM   27  O4  UNL     1      29.927   0.129  53.507  1.00  0.00    -0.389 OA
HETATM   28  C15 UNL     1      28.903  -0.803  53.402  1.00  0.00     0.200 C 
ENDBRANCH  23  24
ENDBRANCH  13  23
TORSDOF 3
ENDMDL
MODEL 3
REMARK VINA RESULT:      -8.1      3.272      5.154
REMARK  3 active torsions:
REMARK  status: ('A' for Active; 'I' for Inactive)
REMARK    1  A    between atoms: N1_5  and  C4_6 
REMARK    2  A    between atoms: C11_18  and  O3_19 
REMARK    3  A    between atoms: O3_19  and  C12_20 
ROOT
HETATM    1  C4  UNL     1      25.614   5.954  49.272  1.00  0.00     0.139 A 
HETATM    2  N2  UNL     1      26.728   6.041  48.534  1.00  0.00    -0.224 NA
HETATM    3  C5  UNL     1      27.632   5.083  48.534  1.00  0.00     0.235 A 
HETATM    4  N3  UNL     1      27.445   4.011  49.273  1.00  0.00    -0.245 NA
HETATM    5  C6  UNL     1      26.379   3.795  50.057  1.00  0.00     0.063 A 
HETATM    6  C7  UNL     1      25.451   4.814  50.036  1.00  0.00     0.035 A 
HETATM    7  C8  UNL     1      24.329   4.932  50.630  1.00  0.00     0.018 A 
HETATM    8  O1  UNL     1      23.108   5.135  51.231  1.00  0.00     0.000 OA
HETATM    9  C9  UNL     1      22.585   4.207  52.244  1.00  0.00     0.031 A 
HETATM   10  C10 UNL     1      23.604   3.179  52.149  1.00  0.00     0.204 A 
HETATM   11  O2  UNL     1      23.786   2.023  52.776  1.00  0.00    -0.255 OA
HETATM   12  N4  UNL     1      24.928   1.381  52.388  1.00  0.00    -0.112 NA
HETATM   13  C11 UNL     1      25.860   1.664  51.611  1.00  0.00     0.178 A 
HETATM   14  C16 UNL     1      25.973   2.830  50.867  1.00  0.00     0.135 A 
ENDROOT
BRANCH   1  15
HETATM   15  N1  UNL     1      24.838   7.140  49.066  1.00  0.00    -0.360 N 
HETATM   16  C3  UNL     1      24.267   8.203  49.909  1.00  0.00     0.154 C 
HETATM   17  C2  UNL     1      22.917   8.615  49.391  1.00  0.00     0.032 C 
HETATM   18  C1  UNL     1      22.289   8.265  48.279  1.00  0.00     0.111 C 
HETATM   19  F1  UNL     1      21.052   8.797  48.056  1.00  0.00    -0.209 F 
HETATM   20  C18 UNL     1      23.005   7.316  47.406  1.00  0.00     0.162 C 
HETATM   21  C17 UNL     1      24.492   7.424  47.662  1.00  0.00     0.152 C 
HETATM   22 CL1  UNL     1      22.446   5.642  47.643  1.00  0.00    -0.116 Cl
ENDBRANCH   1  15
BRANCH  13  23
HETATM   23  O3  UNL     1      26.470   0.453  51.899  1.00  0.00    -0.328 OA
BRANCH  23  24
HETATM   24  C12 UNL     1      27.078  -0.011  53.065  1.00  0.00     0.156 C 
HETATM   25  C13 UNL     1      28.319   0.868  53.285  1.00  0.00     0.061 C 
HETATM   26  C14 UNL     1      29.215  -0.070  54.056  1.00  0.00     0.170 C 
HETATM   27  O4  UNL     1      28.720  -1.345  53.933  1.00  0.00    -0.389 OA
HETATM   28  C15 UNL     1      27.716  -1.356  52.975  1.00  0.00     0.200 C 
ENDBRANCH  23  24
ENDBRANCH  13  23
TORSDOF 3
ENDMDL
MODEL 4
REMARK VINA RESULT:      -8.1      4.177      6.094
REMARK  3 active torsions:
REMARK  status: ('A' for Active; 'I' for Inactive)
REMARK    1  A    between atoms: N1_5  and  C4_6 
REMARK    2  A    between atoms: C11_18  and  O3_19 
REMARK    3  A    between atoms: O3_19  and  C12_20 
ROOT
HETATM    1  C4  UNL     1      25.833   6.076  49.301  1.00  0.00     0.139 A 
HETATM    2  N2  UNL     1      26.950   5.985  48.568  1.00  0.00    -0.224 NA
HETATM    3  C5  UNL     1      27.687   4.894  48.567  1.00  0.00     0.235 A 
HETATM    4  N3  UNL     1      27.325   3.862  49.300  1.00  0.00    -0.245 NA
HETATM    5  C6  UNL     1      26.235   3.818  50.078  1.00  0.00     0.063 A 
HETATM    6  C7  UNL     1      25.484   4.974  50.058  1.00  0.00     0.035 A 
HETATM    7  C8  UNL     1      24.393   5.269  50.649  1.00  0.00     0.018 A 
HETATM    8  O1  UNL     1      23.218   5.665  51.246  1.00  0.00     0.000 OA
HETATM    9  C9  UNL     1      22.547   4.829  52.252  1.00  0.00     0.031 A 
HETATM   10  C10 UNL     1      23.387   3.651  52.157  1.00  0.00     0.204 A 
HETATM   11  O2  UNL     1      23.376   2.478  52.778  1.00  0.00    -0.255 OA
HETATM   12  N4  UNL     1      24.401   1.661  52.391  1.00  0.00    -0.112 NA
HETATM   13  C11 UNL     1      25.371   1.794  51.620  1.00  0.00     0.178 A 
HETATM   14  C16 UNL     1      25.674   2.929  50.882  1.00  0.00     0.135 A 
ENDROOT
BRANCH   1  15
HETATM   15  N1  UNL     1      25.260   7.373  49.098  1.00  0.00    -0.360 N 
HETATM   16  C3  UNL     1      24.511   8.055  48.030  1.00  0.00     0.154 C 
HETATM   17  C2  UNL     1      24.936   9.494  47.928  1.00  0.00     0.032 C 
HETATM   18  C1  UNL     1      25.737  10.202  48.709  1.00  0.00     0.111 C 
HETATM   19  F1  UNL     1      25.953  11.508  48.377  1.00  0.00    -0.209 F 
HETATM   20  C18 UNL     1      26.320   9.482  49.857  1.00  0.00     0.162 C 
HETATM   21  C17 UNL     1      25.430   8.313  50.219  1.00  0.00     0.152 C 
HETATM   22 CL1  UNL     1      27.979   8.928  49.521  1.00  0.00    -0.116 Cl
ENDBRANCH   1  15
BRANCH  13  23
HETATM   23  O3  UNL     1      25.776   0.498  51.904  1.00  0.00    -0.328 OA
BRANCH  23  24
HETATM   24  C12 UNL     1      26.476  -0.024  52.991  1.00  0.00     0.156 C 
HETATM   25  C13 UNL     1      27.816   0.727  53.043  1.00  0.00     0.061 C 
HETATM   26  C14 UNL     1      28.704  -0.296  53.709  1.00  0.00     0.170 C 
HETATM   27  O4  UNL     1      28.073  -1.515  53.665  1.00  0.00    -0.389 OA
HETATM   28  C15 UNL     1      26.960  -1.426  52.840  1.00  0.00     0.200 C 
ENDBRANCH  23  24
ENDBRANCH  13  23
TORSDOF 3
ENDMDL
MODEL 5
REMARK VINA RESULT:      -8.0      3.811      8.171
REMARK  3 active torsions:
REMARK  status: ('A' for Active; 'I' for Inactive)
REMARK    1  A    between atoms: N1_5  and  C4_6 
REMARK    2  A    between atoms: C11_18  and  O3_19 
REMARK    3  A    between atoms: O3_19  and  C12_20 
ROOT
HETATM    1  C4  UNL     1      24.010   0.656  52.888  1.00  0.00     0.139 A 
HETATM    2  N2  UNL     1      23.614  -0.526  53.378  1.00  0.00    -0.224 NA
HETATM    3  C5  UNL     1      22.339  -0.812  53.539  1.00  0.00     0.235 A 
HETATM    4  N3  UNL     1      21.425   0.077  53.212  1.00  0.00    -0.245 NA
HETATM    5  C6  UNL     1      21.681   1.294  52.713  1.00  0.00     0.063 A 
HETATM    6  C7  UNL     1      23.024   1.565  52.557  1.00  0.00     0.035 A 
HETATM    7  C8  UNL     1      23.618   2.595  52.096  1.00  0.00     0.018 A 
HETATM    8  O1  UNL     1      24.335   3.665  51.611  1.00  0.00     0.000 OA
HETATM    9  C9  UNL     1      23.679   4.930  51.248  1.00  0.00     0.031 A 
HETATM   10  C10 UNL     1      22.298   4.516  51.410  1.00  0.00     0.204 A 
HETATM   11  O2  UNL     1      21.139   5.145  51.252  1.00  0.00    -0.255 OA
HETATM   12  N4  UNL     1      20.062   4.362  51.558  1.00  0.00    -0.112 NA
HETATM   13  C11 UNL     1      19.930   3.204  52.000  1.00  0.00     0.178 A 
HETATM   14  C16 UNL     1      20.962   2.332  52.318  1.00  0.00     0.135 A 
ENDROOT
BRANCH   1  15
HETATM   15  N1  UNL     1      25.442   0.670  52.837  1.00  0.00    -0.360 N 
HETATM   16  C3  UNL     1      26.486   0.100  51.970  1.00  0.00     0.154 C 
HETATM   17  C2  UNL     1      27.667  -0.339  52.789  1.00  0.00     0.032 C 
HETATM   18  C1  UNL     1      27.922  -0.165  54.077  1.00  0.00     0.111 C 
HETATM   19  F1  UNL     1      29.088  -0.677  54.567  1.00  0.00    -0.209 F 
HETATM   20  C18 UNL     1      26.893   0.562  54.845  1.00  0.00     0.162 C 
HETATM   21  C17 UNL     1      26.097   1.443  53.906  1.00  0.00     0.152 C 
HETATM   22 CL1  UNL     1      25.817  -0.546  55.731  1.00  0.00    -0.116 Cl
ENDBRANCH   1  15
BRANCH  13  23
HETATM   23  O3  UNL     1      18.551   3.344  51.958  1.00  0.00    -0.328 OA
BRANCH  23  24
HETATM   24  C12 UNL     1      17.710   3.817  50.952  1.00  0.00     0.156 C 
HETATM   25  C13 UNL     1      16.416   4.267  51.647  1.00  0.00     0.061 C 
HETATM   26  C14 UNL     1      15.405   4.089  50.539  1.00  0.00     0.170 C 
HETATM   27  O4  UNL     1      15.970   3.313  49.556  1.00  0.00    -0.389 OA
HETATM   28  C15 UNL     1      17.169   2.788  50.019  1.00  0.00     0.200 C 
ENDBRANCH  23  24
ENDBRANCH  13  23
TORSDOF 3
ENDMDL
MODEL 6
REMARK VINA RESULT:      -7.9      2.174      3.538
REMARK  3 active torsions:
REMARK  status: ('A' for Active; 'I' for Inactive)
REMARK    1  A    between atoms: N1_5  and  C4_6 
REMARK    2  A    between atoms: C11_18  and  O3_19 
REMARK    3  A    between atoms: O3_19  and  C12_20 
ROOT
HETATM    1  C4  UNL     1      21.313   1.814  51.015  1.00  0.00     0.139 A 
HETATM    2  N2  UNL     1      21.831   2.616  50.076  1.00  0.00    -0.224 NA
HETATM    3  C5  UNL     1      23.131   2.794  49.962  1.00  0.00     0.235 A 
HETATM    4  N3  UNL     1      23.948   2.173  50.785  1.00  0.00    -0.245 NA
HETATM    5  C6  UNL     1      23.566   1.346  51.767  1.00  0.00     0.063 A 
HETATM    6  C7  UNL     1      22.201   1.179  51.862  1.00  0.00     0.035 A 
HETATM    7  C8  UNL     1      21.502   0.460  52.650  1.00  0.00     0.018 A 
HETATM    8  O1  UNL     1      20.677  -0.288  53.458  1.00  0.00     0.000 OA
HETATM    9  C9  UNL     1      21.202  -1.044  54.605  1.00  0.00     0.031 A 
HETATM   10  C10 UNL     1      22.618  -0.831  54.380  1.00  0.00     0.204 A 
HETATM   11  O2  UNL     1      23.708  -1.226  55.028  1.00  0.00    -0.255 OA
HETATM   12  N4  UNL     1      24.861  -0.750  54.469  1.00  0.00    -0.112 NA
HETATM   13  C11 UNL     1      25.112   0.011  53.515  1.00  0.00     0.178 A 
HETATM   14  C16 UNL     1      24.175   0.624  52.695  1.00  0.00     0.135 A 
ENDROOT
BRANCH   1  15
HETATM   15  N1  UNL     1      19.886   1.829  50.890  1.00  0.00    -0.360 N 
HETATM   16  C3  UNL     1      18.879   1.143  50.066  1.00  0.00     0.154 C 
HETATM   17  C2  UNL     1      17.769   2.089  49.699  1.00  0.00     0.032 C 
HETATM   18  C1  UNL     1      17.536   3.327  50.107  1.00  0.00     0.111 C 
HETATM   19  F1  UNL     1      16.439   3.964  49.603  1.00  0.00    -0.209 F 
HETATM   20  C18 UNL     1      18.510   3.884  51.064  1.00  0.00     0.162 C 
HETATM   21  C17 UNL     1      19.190   2.752  51.803  1.00  0.00     0.152 C 
HETATM   22 CL1  UNL     1      19.713   4.921  50.260  1.00  0.00    -0.116 Cl
ENDBRANCH   1  15
BRANCH  13  23
HETATM   23  O3  UNL     1      26.470  -0.136  53.753  1.00  0.00    -0.328 OA
BRANCH  23  24
HETATM   24  C12 UNL     1      27.545   0.706  53.470  1.00  0.00     0.156 C 
HETATM   25  C13 UNL     1      28.624   0.398  54.519  1.00  0.00     0.061 C 
HETATM   26  C14 UNL     1      29.358   1.716  54.587  1.00  0.00     0.170 C 
HETATM   27  O4  UNL     1      28.582   2.678  53.987  1.00  0.00    -0.389 OA
HETATM   28  C15 UNL     1      27.321   2.157  53.734  1.00  0.00     0.200 C 
ENDBRANCH  23  24
ENDBRANCH  13  23
TORSDOF 3
ENDMDL
MODEL 7
REMARK VINA RESULT:      -7.7      3.099      5.809
REMARK  3 active torsions:
REMARK  status: ('A' for Active; 'I' for Inactive)
REMARK    1  A    between atoms: N1_5  and  C4_6 
REMARK    2  A    between atoms: C11_18  and  O3_19 
REMARK    3  A    between atoms: O3_19  and  C12_20 
ROOT
HETATM    1  C4  UNL     1      24.429   3.163  50.114  1.00  0.00     0.139 A 
HETATM    2  N2  UNL     1      23.191   3.198  49.606  1.00  0.00    -0.224 NA
HETATM    3  C5  UNL     1      22.223   2.454  50.099  1.00  0.00     0.235 A 
HETATM    4  N3  UNL     1      22.468   1.653  51.114  1.00  0.00    -0.245 NA
HETATM    5  C6  UNL     1      23.658   1.520  51.716  1.00  0.00     0.063 A 
HETATM    6  C7  UNL     1      24.651   2.311  51.178  1.00  0.00     0.035 A 
HETATM    7  C8  UNL     1      25.874   2.455  51.511  1.00  0.00     0.018 A 
HETATM    8  O1  UNL     1      27.200   2.668  51.806  1.00  0.00     0.000 OA
HETATM    9  C9  UNL     1      27.903   1.864  52.817  1.00  0.00     0.031 A 
HETATM   10  C10 UNL     1      26.772   1.116  53.329  1.00  0.00     0.204 A 
HETATM   11  O2  UNL     1      26.650   0.189  54.272  1.00  0.00    -0.255 OA
HETATM   12  N4  UNL     1      25.373  -0.278  54.398  1.00  0.00    -0.112 NA
HETATM   13  C11 UNL     1      24.307  -0.062  53.790  1.00  0.00     0.178 A 
HETATM   14  C16 UNL     1      24.142   0.808  52.721  1.00  0.00     0.135 A 
ENDROOT
BRANCH   1  15
HETATM   15  N1  UNL     1      25.251   4.071  49.370  1.00  0.00    -0.360 N 
HETATM   16  C3  UNL     1      26.673   4.172  49.007  1.00  0.00     0.154 C 
HETATM   17  C2  UNL     1      27.125   5.605  49.046  1.00  0.00     0.032 C 
HETATM   18  C1  UNL     1      26.424   6.714  49.221  1.00  0.00     0.111 C 
HETATM   19  F1  UNL     1      27.100   7.900  49.213  1.00  0.00    -0.209 F 
HETATM   20  C18 UNL     1      24.973   6.535  49.417  1.00  0.00     0.162 C 
HETATM   21  C17 UNL     1      24.541   5.225  48.793  1.00  0.00     0.152 C 
HETATM   22 CL1  UNL     1      24.523   6.587  51.139  1.00  0.00    -0.116 Cl
ENDBRANCH   1  15
BRANCH  13  23
HETATM   23  O3  UNL     1      23.649  -0.956  54.621  1.00  0.00    -0.328 OA
BRANCH  23  24
HETATM   24  C12 UNL     1      22.294  -1.108  54.910  1.00  0.00     0.156 C 
HETATM   25  C13 UNL     1      21.687  -1.897  53.739  1.00  0.00     0.061 C 
HETATM   26  C14 UNL     1      20.254  -1.422  53.772  1.00  0.00     0.170 C 
HETATM   27  O4  UNL     1      20.186  -0.295  54.553  1.00  0.00    -0.389 OA
HETATM   28  C15 UNL     1      21.473   0.135  54.850  1.00  0.00     0.200 C 
ENDBRANCH  23  24
ENDBRANCH  13  23
TORSDOF 3
ENDMDL
MODEL 8
REMARK VINA RESULT:      -7.6      5.391      6.718
REMARK  3 active torsions:
REMARK  status: ('A' for Active; 'I' for Inactive)
REMARK    1  A    between atoms: N1_5  and  C4_6 
REMARK    2  A    between atoms: C11_18  and  O3_19 
REMARK    3  A    between atoms: O3_19  and  C12_20 
ROOT
HETATM    1  C4  UNL     1      24.814   5.165  49.105  1.00  0.00     0.139 A 
HETATM    2  N2  UNL     1      24.643   3.989  49.724  1.00  0.00    -0.224 NA
HETATM    3  C5  UNL     1      25.658   3.185  49.966  1.00  0.00     0.235 A 
HETATM    4  N3  UNL     1      26.871   3.536  49.597  1.00  0.00    -0.245 NA
HETATM    5  C6  UNL     1      27.182   4.679  48.971  1.00  0.00     0.063 A 
HETATM    6  C7  UNL     1      26.100   5.500  48.731  1.00  0.00     0.035 A 
HETATM    7  C8  UNL     1      26.033   6.652  48.187  1.00  0.00     0.018 A 
HETATM    8  O1  UNL     1      25.875   7.894  47.617  1.00  0.00     0.000 OA
HETATM    9  C9  UNL     1      26.993   8.587  46.960  1.00  0.00     0.031 A 
HETATM   10  C10 UNL     1      28.058   7.667  47.308  1.00  0.00     0.204 A 
HETATM   11  O2  UNL     1      29.361   7.651  47.052  1.00  0.00    -0.255 OA
HETATM   12  N4  UNL     1      29.989   6.547  47.556  1.00  0.00    -0.112 NA
HETATM   13  C11 UNL     1      29.600   5.530  48.161  1.00  0.00     0.178 A 
HETATM   14  C16 UNL     1      28.288   5.243  48.512  1.00  0.00     0.135 A 
ENDROOT
BRANCH   1  15
HETATM   15  N1  UNL     1      23.537   5.803  48.983  1.00  0.00    -0.360 N 
HETATM   16  C3  UNL     1      22.685   6.286  47.884  1.00  0.00     0.154 C 
HETATM   17  C2  UNL     1      22.000   7.566  48.275  1.00  0.00     0.032 C 
HETATM   18  C1  UNL     1      21.965   8.190  49.443  1.00  0.00     0.111 C 
HETATM   19  F1  UNL     1      21.258   9.355  49.517  1.00  0.00    -0.209 F 
HETATM   20  C18 UNL     1      22.716   7.550  50.539  1.00  0.00     0.162 C 
HETATM   21  C17 UNL     1      22.848   6.069  50.257  1.00  0.00     0.152 C 
HETATM   22 CL1  UNL     1      24.319   8.291  50.769  1.00  0.00    -0.116 Cl
ENDBRANCH   1  15
BRANCH  13  23
HETATM   23  O3  UNL     1      30.905   5.065  48.222  1.00  0.00    -0.328 OA
BRANCH  23  24
HETATM   24  C12 UNL     1      31.892   4.979  47.241  1.00  0.00     0.156 C 
HETATM   25  C13 UNL     1      31.913   3.514  46.777  1.00  0.00     0.061 C 
HETATM   26  C14 UNL     1      33.342   3.370  46.311  1.00  0.00     0.170 C 
HETATM   27  O4  UNL     1      34.067   4.431  46.797  1.00  0.00    -0.389 OA
HETATM   28  C15 UNL     1      33.297   5.129  47.717  1.00  0.00     0.200 C 
ENDBRANCH  23  24
ENDBRANCH  13  23
TORSDOF 3
ENDMDL
MODEL 9
REMARK VINA RESULT:      -7.6      3.001      4.225
REMARK  3 active torsions:
REMARK  status: ('A' for Active; 'I' for Inactive)
REMARK    1  A    between atoms: N1_5  and  C4_6 
REMARK    2  A    between atoms: C11_18  and  O3_19 
REMARK    3  A    between atoms: O3_19  and  C12_20 
ROOT
HETATM    1  C4  UNL     1      23.382   4.133  50.512  1.00  0.00     0.139 A 
HETATM    2  N2  UNL     1      24.558   4.516  49.997  1.00  0.00    -0.224 NA
HETATM    3  C5  UNL     1      25.664   3.842  50.231  1.00  0.00     0.235 A 
HETATM    4  N3  UNL     1      25.625   2.766  50.987  1.00  0.00    -0.245 NA
HETATM    5  C6  UNL     1      24.521   2.274  51.565  1.00  0.00     0.063 A 
HETATM    6  C7  UNL     1      23.378   3.000  51.302  1.00  0.00     0.035 A 
HETATM    7  C8  UNL     1      22.170   2.810  51.662  1.00  0.00     0.018 A 
HETATM    8  O1  UNL     1      20.844   2.677  52.004  1.00  0.00     0.000 OA
HETATM    9  C9  UNL     1      20.394   1.650  52.955  1.00  0.00     0.031 A 
HETATM   10  C10 UNL     1      21.647   0.940  53.122  1.00  0.00     0.204 A 
HETATM   11  O2  UNL     1      22.001  -0.117  53.844  1.00  0.00    -0.255 OA
HETATM   12  N4  UNL     1      23.326  -0.425  53.723  1.00  0.00    -0.112 NA
HETATM   13  C11 UNL     1      24.286   0.096  53.123  1.00  0.00     0.178 A 
HETATM   14  C16 UNL     1      24.232   1.241  52.342  1.00  0.00     0.135 A 
ENDROOT
BRANCH   1  15
HETATM   15  N1  UNL     1      22.376   5.060  50.087  1.00  0.00    -0.360 N 
HETATM   16  C3  UNL     1      21.634   5.336  48.847  1.00  0.00     0.154 C 
HETATM   17  C2  UNL     1      21.437   6.816  48.671  1.00  0.00     0.032 C 
HETATM   18  C1  UNL     1      21.708   7.814  49.498  1.00  0.00     0.111 C 
HETATM   19  F1  UNL     1      21.425   9.081  49.076  1.00  0.00    -0.209 F 
HETATM   20  C18 UNL     1      22.304   7.435  50.793  1.00  0.00     0.162 C 
HETATM   21  C17 UNL     1      21.923   6.007  51.120  1.00  0.00     0.152 C 
HETATM   22 CL1  UNL     1      24.073   7.630  50.794  1.00  0.00    -0.116 Cl
ENDBRANCH   1  15
BRANCH  13  23
HETATM   23  O3  UNL     1      25.126  -0.899  53.599  1.00  0.00    -0.328 OA
BRANCH  23  24
HETATM   24  C12 UNL     1      26.503  -0.905  53.820  1.00  0.00     0.156 C 
HETATM   25  C13 UNL     1      26.782   0.213  54.836  1.00  0.00     0.061 C 
HETATM   26  C14 UNL     1      28.205   0.581  54.489  1.00  0.00     0.170 C 
HETATM   27  O4  UNL     1      28.507   0.044  53.261  1.00  0.00    -0.389 OA
HETATM   28  C15 UNL     1      27.347  -0.449  52.679  1.00  0.00     0.200 C 
ENDBRANCH  23  24
ENDBRANCH  13  23
TORSDOF 3
ENDMDL
