MODEL 1
REMARK VINA RESULT:      -7.3      0.000      0.000
REMARK  9 active torsions:
REMARK  status: ('A' for Active; 'I' for Inactive)
REMARK    1  A    between atoms: N1_2  and  C2_3 
REMARK    2  A    between atoms: N1_2  and  C16_22 
REMARK    3  A    between atoms: C4_7  and  N4_8 
REMARK    4  A    between atoms: C5_9  and  C6_10 
REMARK    5  A    between atoms: C10_14  and  O1_15 
REMARK    6  A    between atoms: O1_15  and  C11_16 
REMARK    7  A    between atoms: C11_16  and  C12_17 
REMARK    8  A    between atoms: C18_24  and  C19_25 
REMARK    9  A    between atoms: C19_25  and  N5_26 
ROOT
HETATM    1  C2  UNL     1      22.373   4.295  49.914  1.00  0.00     0.141 A 
HETATM    2  N2  UNL     1      21.161   4.881  49.891  1.00  0.00    -0.224 NA
HETATM    3  C3  UNL     1      21.005   6.072  50.540  1.00  0.00     0.237 A 
HETATM    4  N3  UNL     1      22.060   6.608  51.174  1.00  0.00    -0.224 NA
HETATM    5  C4  UNL     1      23.222   5.954  51.145  1.00  0.00     0.137 A 
HETATM    6  C5  UNL     1      23.503   4.752  50.528  1.00  0.00     0.064 A 
ENDROOT
BRANCH   6   7
HETATM    7  C6  UNL     1      24.737   3.993  50.614  1.00  0.00    -0.008 A 
HETATM    8  C7  UNL     1      25.480   4.165  49.503  1.00  0.00     0.011 A 
HETATM    9  C8  UNL     1      26.725   3.429  49.558  1.00  0.00    -0.001 A 
HETATM   10  C9  UNL     1      26.723   2.820  50.727  1.00  0.00     0.009 A 
HETATM   11  C10 UNL     1      25.456   3.126  51.537  1.00  0.00     0.178 A 
BRANCH  11  12
HETATM   12  O1  UNL     1      24.899   1.902  51.775  1.00  0.00    -0.375 OA
BRANCH  12  13
HETATM   13  C11 UNL     1      24.608   1.689  53.124  1.00  0.00     0.200 C 
BRANCH  13  14
HETATM   14  C12 UNL     1      25.539   0.692  53.764  1.00  0.00     0.145 C 
HETATM   15  C13 UNL     1      26.091  -0.289  52.749  1.00  0.00     0.036 C 
HETATM   16  C14 UNL     1      27.576  -0.276  52.952  1.00  0.00     0.029 C 
HETATM   17  C15 UNL     1      27.727   0.497  54.233  1.00  0.00     0.168 C 
HETATM   18  O2  UNL     1      26.612   1.289  54.398  1.00  0.00    -0.384 OA
ENDBRANCH  13  14
ENDBRANCH  12  13
ENDBRANCH  11  12
ENDBRANCH   6   7
BRANCH   1  19
HETATM   19  N1  UNL     1      22.231   3.170  49.083  1.00  0.00    -0.365 N 
HETATM   20  C1  UNL     1      22.171   3.682  47.702  1.00  0.00     0.151 C 
BRANCH  19  21
HETATM   21  C16 UNL     1      22.107   1.786  49.483  1.00  0.00     0.086 C 
HETATM   22  C17 UNL     1      21.720   1.475  50.875  1.00  0.00     0.031 C 
HETATM   23  C18 UNL     1      20.549   0.672  50.396  1.00  0.00     0.018 C 
HETATM   24  C23 UNL     1      20.722   1.283  49.019  1.00  0.00     0.031 C 
BRANCH  23  25
HETATM   25  C19 UNL     1      19.231   0.968  51.049  1.00  0.00     0.277 C 
BRANCH  25  26
HETATM   26  N5  UNL     1      18.453  -0.244  51.110  1.00  0.00     0.088 N 
HETATM   27  C20 UNL     1      17.113  -0.209  50.624  1.00  0.00     0.274 C 
HETATM   28  C21 UNL     1      16.603   0.096  52.019  1.00  0.00     0.060 C 
HETATM   29  C22 UNL     1      17.904  -0.520  52.440  1.00  0.00     0.274 C 
ENDBRANCH  25  26
ENDBRANCH  23  25
ENDBRANCH  19  21
ENDBRANCH   1  19
BRANCH   5  30
HETATM   30  N4  UNL     1      24.230   6.629  51.887  1.00  0.00    -0.383 N 
HETATM   31  H5  UNL     1      24.433   6.091  52.770  1.00  0.00     0.157 HD
HETATM   32  H6  UNL     1      24.546   7.515  51.392  1.00  0.00     0.157 HD
ENDBRANCH   5  30
TORSDOF 9
ENDMDL
MODEL 2
REMARK VINA RESULT:      -7.2      2.936      6.665
REMARK  9 active torsions:
REMARK  status: ('A' for Active; 'I' for Inactive)
REMARK    1  A    between atoms: N1_2  and  C2_3 
REMARK    2  A    between atoms: N1_2  and  C16_22 
REMARK    3  A    between atoms: C4_7  and  N4_8 
REMARK    4  A    between atoms: C5_9  and  C6_10 
REMARK    5  A    between atoms: C10_14  and  O1_15 
REMARK    6  A    between atoms: O1_15  and  C11_16 
REMARK    7  A    between atoms: C11_16  and  C12_17 
REMARK    8  A    between atoms: C18_24  and  C19_25 
REMARK    9  A    between atoms: C19_25  and  N5_26 
ROOT
HETATM    1  C2  UNL     1      19.724  -0.207  52.638  1.00  0.00     0.141 A 
HETATM    2  N2  UNL     1      18.897  -0.942  53.404  1.00  0.00    -0.224 NA
HETATM    3  C3  UNL     1      17.643  -1.210  52.933  1.00  0.00     0.237 A 
HETATM    4  N3  UNL     1      17.287  -0.730  51.731  1.00  0.00    -0.224 NA
HETATM    5  C4  UNL     1      18.174  -0.008  51.043  1.00  0.00     0.137 A 
HETATM    6  C5  UNL     1      19.461   0.328  51.410  1.00  0.00     0.064 A 
ENDROOT
BRANCH   6   7
HETATM    7  C6  UNL     1      20.365   1.219  50.708  1.00  0.00    -0.008 A 
HETATM    8  C7  UNL     1      20.956   0.583  49.678  1.00  0.00     0.011 A 
HETATM    9  C8  UNL     1      21.860   1.446  48.948  1.00  0.00    -0.001 A 
HETATM   10  C9  UNL     1      21.794   2.617  49.550  1.00  0.00     0.009 A 
HETATM   11  C10 UNL     1      20.818   2.603  50.735  1.00  0.00     0.178 A 
BRANCH  11  12
HETATM   12  O1  UNL     1      21.579   2.970  51.808  1.00  0.00    -0.375 OA
BRANCH  12  13
HETATM   13  C11 UNL     1      21.843   4.341  51.846  1.00  0.00     0.200 C 
BRANCH  13  14
HETATM   14  C12 UNL     1      23.318   4.642  51.878  1.00  0.00     0.145 C 
HETATM   15  C13 UNL     1      24.130   3.423  52.269  1.00  0.00     0.036 C 
HETATM   16  C14 UNL     1      25.194   3.302  51.220  1.00  0.00     0.029 C 
HETATM   17  C15 UNL     1      25.072   4.603  50.476  1.00  0.00     0.168 C 
HETATM   18  O2  UNL     1      23.801   5.097  50.666  1.00  0.00    -0.384 OA
ENDBRANCH  13  14
ENDBRANCH  12  13
ENDBRANCH  11  12
ENDBRANCH   6   7
BRANCH   1  19
HETATM   19  N1  UNL     1      20.941  -0.205  53.343  1.00  0.00    -0.365 N 
HETATM   20  C1  UNL     1      20.756   0.710  54.484  1.00  0.00     0.151 C 
BRANCH  19  21
HETATM   21  C16 UNL     1      22.159  -0.906  53.003  1.00  0.00     0.086 C 
HETATM   22  C17 UNL     1      23.280  -0.148  52.410  1.00  0.00     0.031 C 
HETATM   23  C18 UNL     1      24.198  -0.602  53.504  1.00  0.00     0.018 C 
HETATM   24  C23 UNL     1      22.990  -1.062  54.296  1.00  0.00     0.031 C 
BRANCH  23  25
HETATM   25  C19 UNL     1      25.012   0.467  54.171  1.00  0.00     0.277 C 
BRANCH  25  26
HETATM   26  N5  UNL     1      26.381   0.025  54.268  1.00  0.00     0.088 N 
HETATM   27  C20 UNL     1      27.414   0.985  54.066  1.00  0.00     0.274 C 
HETATM   28  C21 UNL     1      27.482   0.620  52.596  1.00  0.00     0.060 C 
HETATM   29  C22 UNL     1      26.861  -0.661  53.066  1.00  0.00     0.274 C 
ENDBRANCH  25  26
ENDBRANCH  23  25
ENDBRANCH  19  21
ENDBRANCH   1  19
BRANCH   5  30
HETATM   30  N4  UNL     1      17.638   0.456  49.810  1.00  0.00    -0.383 N 
HETATM   31  H5  UNL     1      17.810   1.492  49.723  1.00  0.00     0.157 HD
HETATM   32  H6  UNL     1      17.189  -0.336  49.262  1.00  0.00     0.157 HD
ENDBRANCH   5  30
TORSDOF 9
ENDMDL
MODEL 3
REMARK VINA RESULT:      -7.2      2.655      5.517
REMARK  9 active torsions:
REMARK  status: ('A' for Active; 'I' for Inactive)
REMARK    1  A    between atoms: N1_2  and  C2_3 
REMARK    2  A    between atoms: N1_2  and  C16_22 
REMARK    3  A    between atoms: C4_7  and  N4_8 
REMARK    4  A    between atoms: C5_9  and  C6_10 
REMARK    5  A    between atoms: C10_14  and  O1_15 
REMARK    6  A    between atoms: O1_15  and  C11_16 
REMARK    7  A    between atoms: C11_16  and  C12_17 
REMARK    8  A    between atoms: C18_24  and  C19_25 
REMARK    9  A    between atoms: C19_25  and  N5_26 
ROOT
HETATM    1  C2  UNL     1      22.383   0.529  52.939  1.00  0.00     0.141 A 
HETATM    2  N2  UNL     1      21.308  -0.230  53.224  1.00  0.00    -0.224 NA
HETATM    3  C3  UNL     1      21.452  -1.243  54.129  1.00  0.00     0.237 A 
HETATM    4  N3  UNL     1      22.652  -1.440  54.696  1.00  0.00    -0.224 NA
HETATM    5  C4  UNL     1      23.661  -0.638  54.350  1.00  0.00     0.137 A 
HETATM    6  C5  UNL     1      23.642   0.410  53.454  1.00  0.00     0.064 A 
ENDROOT
BRANCH   6   7
HETATM    7  C6  UNL     1      24.777   1.189  52.996  1.00  0.00    -0.008 A 
HETATM    8  C7  UNL     1      25.059   0.907  51.709  1.00  0.00     0.011 A 
HETATM    9  C8  UNL     1      26.183   1.673  51.214  1.00  0.00    -0.001 A 
HETATM   10  C9  UNL     1      26.565   2.431  52.223  1.00  0.00     0.009 A 
HETATM   11  C10 UNL     1      25.698   2.212  53.471  1.00  0.00     0.178 A 
BRANCH  11  12
HETATM   12  O1  UNL     1      26.581   1.830  54.439  1.00  0.00    -0.375 OA
BRANCH  12  13
HETATM   13  C11 UNL     1      27.889   1.709  53.966  1.00  0.00     0.200 C 
BRANCH  13  14
HETATM   14  C12 UNL     1      28.532   0.410  54.377  1.00  0.00     0.145 C 
HETATM   15  C13 UNL     1      27.894  -0.776  53.681  1.00  0.00     0.036 C 
HETATM   16  C14 UNL     1      29.034  -1.551  53.094  1.00  0.00     0.029 C 
HETATM   17  C15 UNL     1      30.234  -0.902  53.726  1.00  0.00     0.168 C 
HETATM   18  O2  UNL     1      29.887   0.373  54.112  1.00  0.00    -0.384 OA
ENDBRANCH  13  14
ENDBRANCH  12  13
ENDBRANCH  11  12
ENDBRANCH   6   7
BRANCH   1  19
HETATM   19  N1  UNL     1      21.888   1.524  52.078  1.00  0.00    -0.365 N 
HETATM   20  C1  UNL     1      21.712   0.880  50.763  1.00  0.00     0.151 C 
BRANCH  19  21
HETATM   21  C16 UNL     1      21.647   2.916  52.383  1.00  0.00     0.086 C 
HETATM   22  C17 UNL     1      22.734   3.895  52.166  1.00  0.00     0.031 C 
HETATM   23  C18 UNL     1      21.854   4.705  51.262  1.00  0.00     0.018 C 
HETATM   24  C23 UNL     1      20.891   3.538  51.188  1.00  0.00     0.031 C 
BRANCH  23  25
HETATM   25  C19 UNL     1      22.450   5.108  49.946  1.00  0.00     0.277 C 
BRANCH  25  26
HETATM   26  N5  UNL     1      22.105   6.481  49.672  1.00  0.00     0.088 N 
HETATM   27  C20 UNL     1      22.992   7.251  48.865  1.00  0.00     0.274 C 
HETATM   28  C21 UNL     1      23.700   7.758  50.106  1.00  0.00     0.060 C 
HETATM   29  C22 UNL     1      22.410   7.392  50.778  1.00  0.00     0.274 C 
ENDBRANCH  25  26
ENDBRANCH  23  25
ENDBRANCH  19  21
ENDBRANCH   1  19
BRANCH   5  30
HETATM   30  N4  UNL     1      24.871  -0.995  55.007  1.00  0.00    -0.383 N 
HETATM   31  H5  UNL     1      25.128  -0.243  55.699  1.00  0.00     0.157 HD
HETATM   32  H6  UNL     1      25.241  -1.927  54.655  1.00  0.00     0.157 HD
ENDBRANCH   5  30
TORSDOF 9
ENDMDL
MODEL 4
REMARK VINA RESULT:      -7.2      2.130      3.949
REMARK  9 active torsions:
REMARK  status: ('A' for Active; 'I' for Inactive)
REMARK    1  A    between atoms: N1_2  and  C2_3 
REMARK    2  A    between atoms: N1_2  and  C16_22 
REMARK    3  A    between atoms: C4_7  and  N4_8 
REMARK    4  A    between atoms: C5_9  and  C6_10 
REMARK    5  A    between atoms: C10_14  and  O1_15 
REMARK    6  A    between atoms: O1_15  and  C11_16 
REMARK    7  A    between atoms: C11_16  and  C12_17 
REMARK    8  A    between atoms: C18_24  and  C19_25 
REMARK    9  A    between atoms: C19_25  and  N5_26 
ROOT
HETATM    1  C2  UNL     1      22.004   4.195  50.106  1.00  0.00     0.141 A 
HETATM    2  N2  UNL     1      21.115   5.129  49.718  1.00  0.00    -0.224 NA
HETATM    3  C3  UNL     1      21.272   6.405  50.181  1.00  0.00     0.237 A 
HETATM    4  N3  UNL     1      22.301   6.675  50.999  1.00  0.00    -0.224 NA
HETATM    5  C4  UNL     1      23.130   5.684  51.331  1.00  0.00     0.137 A 
HETATM    6  C5  UNL     1      23.076   4.364  50.933  1.00  0.00     0.064 A 
ENDROOT
BRANCH   6   7
HETATM    7  C6  UNL     1      23.911   3.275  51.404  1.00  0.00    -0.008 A 
HETATM    8  C7  UNL     1      23.721   3.066  52.721  1.00  0.00     0.011 A 
HETATM    9  C8  UNL     1      24.532   1.978  53.225  1.00  0.00    -0.001 A 
HETATM   10  C9  UNL     1      25.204   1.527  52.184  1.00  0.00     0.009 A 
HETATM   11  C10 UNL     1      24.870   2.301  50.901  1.00  0.00     0.178 A 
BRANCH  11  12
HETATM   12  O1  UNL     1      26.069   2.795  50.477  1.00  0.00    -0.375 OA
BRANCH  12  13
HETATM   13  C11 UNL     1      25.944   3.691  49.414  1.00  0.00     0.200 C 
BRANCH  13  14
HETATM   14  C12 UNL     1      26.758   4.943  49.618  1.00  0.00     0.145 C 
HETATM   15  C13 UNL     1      27.822   5.099  48.550  1.00  0.00     0.036 C 
HETATM   16  C14 UNL     1      27.654   6.491  48.022  1.00  0.00     0.029 C 
HETATM   17  C15 UNL     1      26.698   7.103  49.008  1.00  0.00     0.168 C 
HETATM   18  O2  UNL     1      25.989   6.091  49.614  1.00  0.00    -0.384 OA
ENDBRANCH  13  14
ENDBRANCH  12  13
ENDBRANCH  11  12
ENDBRANCH   6   7
BRANCH   1  19
HETATM   19  N1  UNL     1      21.634   3.045  49.387  1.00  0.00    -0.365 N 
HETATM   20  C1  UNL     1      22.368   3.102  48.110  1.00  0.00     0.151 C 
BRANCH  19  21
HETATM   21  C16 UNL     1      20.683   2.028  49.777  1.00  0.00     0.086 C 
HETATM   22  C17 UNL     1      21.132   0.623  49.864  1.00  0.00     0.031 C 
HETATM   23  C18 UNL     1      20.683   0.543  51.292  1.00  0.00     0.018 C 
HETATM   24  C23 UNL     1      20.568   2.054  51.317  1.00  0.00     0.031 C 
BRANCH  23  25
HETATM   25  C19 UNL     1      21.672  -0.024  52.267  1.00  0.00     0.277 C 
BRANCH  25  26
HETATM   26  N5  UNL     1      20.960  -0.580  53.391  1.00  0.00     0.088 N 
HETATM   27  C20 UNL     1      21.093   0.062  54.656  1.00  0.00     0.274 C 
HETATM   28  C21 UNL     1      22.235  -0.867  55.020  1.00  0.00     0.060 C 
HETATM   29  C22 UNL     1      21.617  -1.751  53.978  1.00  0.00     0.274 C 
ENDBRANCH  25  26
ENDBRANCH  23  25
ENDBRANCH  19  21
ENDBRANCH   1  19
BRANCH   5  30
HETATM   30  N4  UNL     1      24.145   6.118  52.228  1.00  0.00    -0.383 N 
HETATM   31  H5  UNL     1      24.432   5.315  52.846  1.00  0.00     0.157 HD
HETATM   32  H6  UNL     1      24.380   7.145  52.077  1.00  0.00     0.157 HD
ENDBRANCH   5  30
TORSDOF 9
ENDMDL
MODEL 5
REMARK VINA RESULT:      -7.2      1.951      3.175
REMARK  9 active torsions:
REMARK  status: ('A' for Active; 'I' for Inactive)
REMARK    1  A    between atoms: N1_2  and  C2_3 
REMARK    2  A    between atoms: N1_2  and  C16_22 
REMARK    3  A    between atoms: C4_7  and  N4_8 
REMARK    4  A    between atoms: C5_9  and  C6_10 
REMARK    5  A    between atoms: C10_14  and  O1_15 
REMARK    6  A    between atoms: O1_15  and  C11_16 
REMARK    7  A    between atoms: C11_16  and  C12_17 
REMARK    8  A    between atoms: C18_24  and  C19_25 
REMARK    9  A    between atoms: C19_25  and  N5_26 
ROOT
HETATM    1  C2  UNL     1      21.937   2.999  51.190  1.00  0.00     0.141 A 
HETATM    2  N2  UNL     1      21.718   4.232  50.696  1.00  0.00    -0.224 NA
HETATM    3  C3  UNL     1      22.487   5.261  51.159  1.00  0.00     0.237 A 
HETATM    4  N3  UNL     1      23.425   5.004  52.084  1.00  0.00    -0.224 NA
HETATM    5  C4  UNL     1      23.569   3.750  52.516  1.00  0.00     0.137 A 
HETATM    6  C5  UNL     1      22.858   2.633  52.129  1.00  0.00     0.064 A 
ENDROOT
BRANCH   6   7
HETATM    7  C6  UNL     1      22.940   1.303  52.701  1.00  0.00    -0.008 A 
HETATM    8  C7  UNL     1      21.809   1.000  53.367  1.00  0.00     0.011 A 
HETATM    9  C8  UNL     1      21.852  -0.327  53.945  1.00  0.00    -0.001 A 
HETATM   10  C9  UNL     1      23.026  -0.821  53.605  1.00  0.00     0.009 A 
HETATM   11  C10 UNL     1      23.846   0.163  52.760  1.00  0.00     0.178 A 
BRANCH  11  12
HETATM   12  O1  UNL     1      24.999   0.343  53.467  1.00  0.00    -0.375 OA
BRANCH  12  13
HETATM   13  C11 UNL     1      25.821  -0.786  53.466  1.00  0.00     0.200 C 
BRANCH  13  14
HETATM   14  C12 UNL     1      27.283  -0.434  53.381  1.00  0.00     0.145 C 
HETATM   15  C13 UNL     1      27.494   0.941  52.779  1.00  0.00     0.036 C 
HETATM   16  C14 UNL     1      28.402   1.656  53.733  1.00  0.00     0.029 C 
HETATM   17  C15 UNL     1      28.850   0.552  54.651  1.00  0.00     0.168 C 
HETATM   18  O2  UNL     1      27.914  -0.456  54.610  1.00  0.00    -0.384 OA
ENDBRANCH  13  14
ENDBRANCH  12  13
ENDBRANCH  11  12
ENDBRANCH   6   7
BRANCH   1  19
HETATM   19  N1  UNL     1      21.078   2.170  50.447  1.00  0.00    -0.365 N 
HETATM   20  C1  UNL     1      21.944   1.336  49.594  1.00  0.00     0.151 C 
BRANCH  19  21
HETATM   21  C16 UNL     1      19.632   2.161  50.457  1.00  0.00     0.086 C 
HETATM   22  C17 UNL     1      18.921   0.926  50.067  1.00  0.00     0.031 C 
HETATM   23  C18 UNL     1      18.194   0.902  51.377  1.00  0.00     0.018 C 
HETATM   24  C23 UNL     1      19.172   1.928  51.913  1.00  0.00     0.031 C 
BRANCH  23  25
HETATM   25  C19 UNL     1      18.196  -0.406  52.112  1.00  0.00     0.277 C 
BRANCH  25  26
HETATM   26  N5  UNL     1      16.901  -0.612  52.712  1.00  0.00     0.088 N 
HETATM   27  C20 UNL     1      16.295  -1.895  52.581  1.00  0.00     0.274 C 
HETATM   28  C21 UNL     1      15.560  -1.435  51.337  1.00  0.00     0.060 C 
HETATM   29  C22 UNL     1      15.796  -0.071  51.916  1.00  0.00     0.274 C 
ENDBRANCH  25  26
ENDBRANCH  23  25
ENDBRANCH  19  21
ENDBRANCH   1  19
BRANCH   5  30
HETATM   30  N4  UNL     1      24.575   3.645  53.516  1.00  0.00    -0.383 N 
HETATM   31  H5  UNL     1      24.317   4.253  54.336  1.00  0.00     0.157 HD
HETATM   32  H6  UNL     1      25.353   2.986  53.212  1.00  0.00     0.157 HD
ENDBRANCH   5  30
TORSDOF 9
ENDMDL
MODEL 6
REMARK VINA RESULT:      -7.1      2.818      6.919
REMARK  9 active torsions:
REMARK  status: ('A' for Active; 'I' for Inactive)
REMARK    1  A    between atoms: N1_2  and  C2_3 
REMARK    2  A    between atoms: N1_2  and  C16_22 
REMARK    3  A    between atoms: C4_7  and  N4_8 
REMARK    4  A    between atoms: C5_9  and  C6_10 
REMARK    5  A    between atoms: C10_14  and  O1_15 
REMARK    6  A    between atoms: O1_15  and  C11_16 
REMARK    7  A    between atoms: C11_16  and  C12_17 
REMARK    8  A    between atoms: C18_24  and  C19_25 
REMARK    9  A    between atoms: C19_25  and  N5_26 
ROOT
HETATM    1  C2  UNL     1      23.129   2.008  51.051  1.00  0.00     0.141 A 
HETATM    2  N2  UNL     1      22.115   1.183  51.375  1.00  0.00    -0.224 NA
HETATM    3  C3  UNL     1      21.264   0.782  50.385  1.00  0.00     0.237 A 
HETATM    4  N3  UNL     1      21.471   1.223  49.134  1.00  0.00    -0.224 NA
HETATM    5  C4  UNL     1      22.502   2.040  48.908  1.00  0.00     0.137 A 
HETATM    6  C5  UNL     1      23.424   2.514  49.818  1.00  0.00     0.064 A 
ENDROOT
BRANCH   6   7
HETATM    7  C6  UNL     1      24.460   3.501  49.579  1.00  0.00    -0.008 A 
HETATM    8  C7  UNL     1      25.681   2.938  49.661  1.00  0.00     0.011 A 
HETATM    9  C8  UNL     1      26.742   3.893  49.419  1.00  0.00    -0.001 A 
HETATM   10  C9  UNL     1      26.135   5.039  49.177  1.00  0.00     0.009 A 
HETATM   11  C10 UNL     1      24.607   4.910  49.240  1.00  0.00     0.178 A 
BRANCH  11  12
HETATM   12  O1  UNL     1      24.228   5.806  50.198  1.00  0.00    -0.375 OA
BRANCH  12  13
HETATM   13  C11 UNL     1      23.399   6.814  49.703  1.00  0.00     0.200 C 
BRANCH  13  14
HETATM   14  C12 UNL     1      21.949   6.586  50.043  1.00  0.00     0.145 C 
HETATM   15  C13 UNL     1      21.158   6.117  48.837  1.00  0.00     0.036 C 
HETATM   16  C14 UNL     1      20.424   4.894  49.296  1.00  0.00     0.029 C 
HETATM   17  C15 UNL     1      20.639   4.920  50.784  1.00  0.00     0.168 C 
HETATM   18  O2  UNL     1      21.772   5.655  51.049  1.00  0.00    -0.384 OA
ENDBRANCH  13  14
ENDBRANCH  12  13
ENDBRANCH  11  12
ENDBRANCH   6   7
BRANCH   1  19
HETATM   19  N1  UNL     1      23.863   2.140  52.243  1.00  0.00    -0.365 N 
HETATM   20  C1  UNL     1      23.781   3.562  52.622  1.00  0.00     0.151 C 
BRANCH  19  21
HETATM   21  C16 UNL     1      24.607   1.115  52.940  1.00  0.00     0.086 C 
HETATM   22  C17 UNL     1      25.752   0.473  52.261  1.00  0.00     0.031 C 
HETATM   23  C18 UNL     1      26.666   0.861  53.384  1.00  0.00     0.018 C 
HETATM   24  C23 UNL     1      25.603   1.817  53.889  1.00  0.00     0.031 C 
BRANCH  23  25
HETATM   25  C19 UNL     1      27.957   1.515  52.991  1.00  0.00     0.277 C 
BRANCH  25  26
HETATM   26  N5  UNL     1      28.985   1.128  53.925  1.00  0.00     0.088 N 
HETATM   27  C20 UNL     1      30.100   0.389  53.432  1.00  0.00     0.274 C 
HETATM   28  C21 UNL     1      29.404  -0.914  53.777  1.00  0.00     0.060 C 
HETATM   29  C22 UNL     1      28.633  -0.047  54.728  1.00  0.00     0.274 C 
ENDBRANCH  25  26
ENDBRANCH  23  25
ENDBRANCH  19  21
ENDBRANCH   1  19
BRANCH   5  30
HETATM   30  N4  UNL     1      22.567   2.447  47.547  1.00  0.00    -0.383 N 
HETATM   31  H5  UNL     1      22.958   3.423  47.492  1.00  0.00     0.157 HD
HETATM   32  H6  UNL     1      22.209   1.684  46.898  1.00  0.00     0.157 HD
ENDBRANCH   5  30
TORSDOF 9
ENDMDL
MODEL 7
REMARK VINA RESULT:      -7.1      2.404      3.728
REMARK  9 active torsions:
REMARK  status: ('A' for Active; 'I' for Inactive)
REMARK    1  A    between atoms: N1_2  and  C2_3 
REMARK    2  A    between atoms: N1_2  and  C16_22 
REMARK    3  A    between atoms: C4_7  and  N4_8 
REMARK    4  A    between atoms: C5_9  and  C6_10 
REMARK    5  A    between atoms: C10_14  and  O1_15 
REMARK    6  A    between atoms: O1_15  and  C11_16 
REMARK    7  A    between atoms: C11_16  and  C12_17 
REMARK    8  A    between atoms: C18_24  and  C19_25 
REMARK    9  A    between atoms: C19_25  and  N5_26 
ROOT
HETATM    1  C2  UNL     1      22.128   2.267  51.297  1.00  0.00     0.141 A 
HETATM    2  N2  UNL     1      22.030   3.402  50.580  1.00  0.00    -0.224 NA
HETATM    3  C3  UNL     1      22.903   4.417  50.851  1.00  0.00     0.237 A 
HETATM    4  N3  UNL     1      23.818   4.244  51.817  1.00  0.00    -0.224 NA
HETATM    5  C4  UNL     1      23.838   3.085  52.477  1.00  0.00     0.137 A 
HETATM    6  C5  UNL     1      23.016   1.992  52.297  1.00  0.00     0.064 A 
ENDROOT
BRANCH   6   7
HETATM    7  C6  UNL     1      22.969   0.790  53.109  1.00  0.00    -0.008 A 
HETATM    8  C7  UNL     1      21.802   0.712  53.777  1.00  0.00     0.011 A 
HETATM    9  C8  UNL     1      21.716  -0.482  54.592  1.00  0.00    -0.001 A 
HETATM   10  C9  UNL     1      22.849  -1.127  54.392  1.00  0.00     0.009 A 
HETATM   11  C10 UNL     1      23.769  -0.389  53.410  1.00  0.00     0.178 A 
BRANCH  11  12
HETATM   12  O1  UNL     1      24.920  -0.176  54.113  1.00  0.00    -0.375 OA
BRANCH  12  13
HETATM   13  C11 UNL     1      26.070  -0.355  53.344  1.00  0.00     0.200 C 
BRANCH  13  14
HETATM   14  C12 UNL     1      27.331  -0.272  54.165  1.00  0.00     0.145 C 
HETATM   15  C13 UNL     1      28.520  -0.855  53.425  1.00  0.00     0.036 C 
HETATM   16  C14 UNL     1      29.588   0.193  53.505  1.00  0.00     0.029 C 
HETATM   17  C15 UNL     1      29.023   1.164  54.505  1.00  0.00     0.168 C 
HETATM   18  O2  UNL     1      27.654   1.022  54.525  1.00  0.00    -0.384 OA
ENDBRANCH  13  14
ENDBRANCH  12  13
ENDBRANCH  11  12
ENDBRANCH   6   7
BRANCH   1  19
HETATM   19  N1  UNL     1      21.184   1.404  50.713  1.00  0.00    -0.365 N 
HETATM   20  C1  UNL     1      21.751   0.989  49.417  1.00  0.00     0.151 C 
BRANCH  19  21
HETATM   21  C16 UNL     1      19.886   1.033  51.233  1.00  0.00     0.086 C 
HETATM   22  C17 UNL     1      19.052   2.067  51.880  1.00  0.00     0.031 C 
HETATM   23  C18 UNL     1      17.928   1.789  50.927  1.00  0.00     0.018 C 
HETATM   24  C23 UNL     1      18.892   1.014  50.051  1.00  0.00     0.031 C 
BRANCH  23  25
HETATM   25  C19 UNL     1      17.309   2.986  50.267  1.00  0.00     0.277 C 
BRANCH  25  26
HETATM   26  N5  UNL     1      15.884   2.958  50.482  1.00  0.00     0.088 N 
HETATM   27  C20 UNL     1      15.215   4.192  50.728  1.00  0.00     0.274 C 
HETATM   28  C21 UNL     1      15.366   3.990  52.223  1.00  0.00     0.060 C 
HETATM   29  C22 UNL     1      15.504   2.547  51.836  1.00  0.00     0.274 C 
ENDBRANCH  25  26
ENDBRANCH  23  25
ENDBRANCH  19  21
ENDBRANCH   1  19
BRANCH   5  30
HETATM   30  N4  UNL     1      24.838   3.067  53.489  1.00  0.00    -0.383 N 
HETATM   31  H5  UNL     1      25.755   3.385  53.080  1.00  0.00     0.157 HD
HETATM   32  H6  UNL     1      24.440   2.739  54.419  1.00  0.00     0.157 HD
ENDBRANCH   5  30
TORSDOF 9
ENDMDL
MODEL 8
REMARK VINA RESULT:      -7.0      2.777      6.901
REMARK  9 active torsions:
REMARK  status: ('A' for Active; 'I' for Inactive)
REMARK    1  A    between atoms: N1_2  and  C2_3 
REMARK    2  A    between atoms: N1_2  and  C16_22 
REMARK    3  A    between atoms: C4_7  and  N4_8 
REMARK    4  A    between atoms: C5_9  and  C6_10 
REMARK    5  A    between atoms: C10_14  and  O1_15 
REMARK    6  A    between atoms: O1_15  and  C11_16 
REMARK    7  A    between atoms: C11_16  and  C12_17 
REMARK    8  A    between atoms: C18_24  and  C19_25 
REMARK    9  A    between atoms: C19_25  and  N5_26 
ROOT
HETATM    1  C2  UNL     1      21.276   0.507  52.163  1.00  0.00     0.141 A 
HETATM    2  N2  UNL     1      20.824  -0.149  53.249  1.00  0.00    -0.224 NA
HETATM    3  C3  UNL     1      19.510  -0.522  53.280  1.00  0.00     0.237 A 
HETATM    4  N3  UNL     1      18.726  -0.222  52.234  1.00  0.00    -0.224 NA
HETATM    5  C4  UNL     1      19.262   0.432  51.202  1.00  0.00     0.137 A 
HETATM    6  C5  UNL     1      20.564   0.861  51.054  1.00  0.00     0.064 A 
ENDROOT
BRANCH   6   7
HETATM    7  C6  UNL     1      21.098   1.682  49.983  1.00  0.00    -0.008 A 
HETATM    8  C7  UNL     1      21.662   0.914  49.030  1.00  0.00     0.011 A 
HETATM    9  C8  UNL     1      22.197   1.700  47.939  1.00  0.00    -0.001 A 
HETATM   10  C9  UNL     1      21.935   2.956  48.247  1.00  0.00     0.009 A 
HETATM   11  C10 UNL     1      21.191   3.080  49.583  1.00  0.00     0.178 A 
BRANCH  11  12
HETATM   12  O1  UNL     1      21.993   3.876  50.349  1.00  0.00    -0.375 OA
BRANCH  12  13
HETATM   13  C11 UNL     1      22.677   4.838  49.603  1.00  0.00     0.200 C 
BRANCH  13  14
HETATM   14  C12 UNL     1      24.044   5.135  50.163  1.00  0.00     0.145 C 
HETATM   15  C13 UNL     1      25.118   4.308  49.485  1.00  0.00     0.036 C 
HETATM   16  C14 UNL     1      26.171   5.289  49.070  1.00  0.00     0.029 C 
HETATM   17  C15 UNL     1      25.747   6.547  49.776  1.00  0.00     0.168 C 
HETATM   18  O2  UNL     1      24.398   6.465  50.039  1.00  0.00    -0.384 OA
ENDBRANCH  13  14
ENDBRANCH  12  13
ENDBRANCH  11  12
ENDBRANCH   6   7
BRANCH   1  19
HETATM   19  N1  UNL     1      22.656   0.647  52.392  1.00  0.00    -0.365 N 
HETATM   20  C1  UNL     1      23.074  -0.553  53.139  1.00  0.00     0.151 C 
BRANCH  19  21
HETATM   21  C16 UNL     1      23.502   1.762  52.029  1.00  0.00     0.086 C 
HETATM   22  C17 UNL     1      24.058   2.617  53.099  1.00  0.00     0.031 C 
HETATM   23  C18 UNL     1      25.452   2.356  52.615  1.00  0.00     0.018 C 
HETATM   24  C23 UNL     1      24.923   1.212  51.774  1.00  0.00     0.031 C 
BRANCH  23  25
HETATM   25  C19 UNL     1      26.450   1.952  53.660  1.00  0.00     0.277 C 
BRANCH  25  26
HETATM   26  N5  UNL     1      27.738   1.772  53.037  1.00  0.00     0.088 N 
HETATM   27  C20 UNL     1      28.427   0.544  53.257  1.00  0.00     0.274 C 
HETATM   28  C21 UNL     1      29.167   1.155  54.431  1.00  0.00     0.060 C 
HETATM   29  C22 UNL     1      28.830   2.446  53.745  1.00  0.00     0.274 C 
ENDBRANCH  25  26
ENDBRANCH  23  25
ENDBRANCH  19  21
ENDBRANCH   1  19
BRANCH   5  30
HETATM   30  N4  UNL     1      18.300   0.707  50.190  1.00  0.00    -0.383 N 
HETATM   31  H5  UNL     1      18.685   0.419  49.254  1.00  0.00     0.157 HD
HETATM   32  H6  UNL     1      17.420   1.139  50.602  1.00  0.00     0.157 HD
ENDBRANCH   5  30
TORSDOF 9
ENDMDL
MODEL 9
REMARK VINA RESULT:      -6.9      1.440      1.920
REMARK  9 active torsions:
REMARK  status: ('A' for Active; 'I' for Inactive)
REMARK    1  A    between atoms: N1_2  and  C2_3 
REMARK    2  A    between atoms: N1_2  and  C16_22 
REMARK    3  A    between atoms: C4_7  and  N4_8 
REMARK    4  A    between atoms: C5_9  and  C6_10 
REMARK    5  A    between atoms: C10_14  and  O1_15 
REMARK    6  A    between atoms: O1_15  and  C11_16 
REMARK    7  A    between atoms: C11_16  and  C12_17 
REMARK    8  A    between atoms: C18_24  and  C19_25 
REMARK    9  A    between atoms: C19_25  and  N5_26 
ROOT
HETATM    1  C2  UNL     1      22.399   4.611  49.864  1.00  0.00     0.141 A 
HETATM    2  N2  UNL     1      21.281   5.357  49.787  1.00  0.00    -0.224 NA
HETATM    3  C3  UNL     1      21.252   6.552  50.448  1.00  0.00     0.237 A 
HETATM    4  N3  UNL     1      22.334   6.933  51.146  1.00  0.00    -0.224 NA
HETATM    5  C4  UNL     1      23.397   6.126  51.166  1.00  0.00     0.137 A 
HETATM    6  C5  UNL     1      23.546   4.904  50.544  1.00  0.00     0.064 A 
ENDROOT
BRANCH   6   7
HETATM    7  C6  UNL     1      24.659   3.983  50.681  1.00  0.00    -0.008 A 
HETATM    8  C7  UNL     1      25.503   4.099  49.637  1.00  0.00     0.011 A 
HETATM    9  C8  UNL     1      26.632   3.200  49.745  1.00  0.00    -0.001 A 
HETATM   10  C9  UNL     1      26.459   2.550  50.879  1.00  0.00     0.009 A 
HETATM   11  C10 UNL     1      25.182   2.990  51.609  1.00  0.00     0.178 A 
BRANCH  11  12
HETATM   12  O1  UNL     1      24.453   1.845  51.745  1.00  0.00    -0.375 OA
BRANCH  12  13
HETATM   13  C11 UNL     1      23.841   1.733  52.994  1.00  0.00     0.200 C 
BRANCH  13  14
HETATM   14  C12 UNL     1      23.057   0.454  53.139  1.00  0.00     0.145 C 
HETATM   15  C13 UNL     1      23.844  -0.603  53.889  1.00  0.00     0.036 C 
HETATM   16  C14 UNL     1      22.924  -1.090  54.968  1.00  0.00     0.029 C 
HETATM   17  C15 UNL     1      21.608  -0.474  54.582  1.00  0.00     0.168 C 
HETATM   18  O2  UNL     1      21.856   0.631  53.799  1.00  0.00    -0.384 OA
ENDBRANCH  13  14
ENDBRANCH  12  13
ENDBRANCH  11  12
ENDBRANCH   6   7
BRANCH   1  19
HETATM   19  N1  UNL     1      22.151   3.525  49.007  1.00  0.00    -0.365 N 
HETATM   20  C1  UNL     1      22.148   4.072  47.638  1.00  0.00     0.151 C 
BRANCH  19  21
HETATM   21  C16 UNL     1      21.889   2.151  49.375  1.00  0.00     0.086 C 
HETATM   22  C17 UNL     1      21.059   1.875  50.566  1.00  0.00     0.031 C 
HETATM   23  C18 UNL     1      20.108   1.060  49.742  1.00  0.00     0.018 C 
HETATM   24  C23 UNL     1      20.734   1.636  48.489  1.00  0.00     0.031 C 
BRANCH  23  25
HETATM   25  C19 UNL     1      18.650   1.371  49.912  1.00  0.00     0.277 C 
BRANCH  25  26
HETATM   26  N5  UNL     1      17.937   0.149  50.188  1.00  0.00     0.088 N 
HETATM   27  C20 UNL     1      16.514   0.200  50.251  1.00  0.00     0.274 C 
HETATM   28  C21 UNL     1      16.575   0.411  51.751  1.00  0.00     0.060 C 
HETATM   29  C22 UNL     1      17.930  -0.216  51.607  1.00  0.00     0.274 C 
ENDBRANCH  25  26
ENDBRANCH  23  25
ENDBRANCH  19  21
ENDBRANCH   1  19
BRANCH   5  30
HETATM   30  N4  UNL     1      24.445   6.650  51.972  1.00  0.00    -0.383 N 
HETATM   31  H5  UNL     1      24.574   6.038  52.819  1.00  0.00     0.157 HD
HETATM   32  H6  UNL     1      24.856   7.533  51.545  1.00  0.00     0.157 HD
ENDBRANCH   5  30
TORSDOF 9
ENDMDL
