MODEL 1
REMARK VINA RESULT:      -7.1      0.000      0.000
REMARK  5 active torsions:
REMARK  status: ('A' for Active; 'I' for Inactive)
REMARK    1  A    between atoms: O1_2  and  C2_3 
REMARK    2  A    between atoms: N1_7  and  C6_8 
REMARK    3  A    between atoms: C7_9  and  O2_10 
REMARK    4  A    between atoms: O2_10  and  C8_11 
REMARK    5  A    between atoms: C15_19  and  O3_20 
ROOT
HETATM    1  C2  UNL     1      27.386   0.077  53.534  1.00  0.00     0.099 A 
HETATM    2  C3  UNL     1      27.690   1.070  52.724  1.00  0.00     0.019 A 
HETATM    3  C4  UNL     1      26.858   1.995  51.910  1.00  0.00     0.090 A 
HETATM    4  C5  UNL     1      25.445   1.661  52.116  1.00  0.00     0.058 A 
HETATM    5  N1  UNL     1      24.457   2.248  51.576  1.00  0.00    -0.262 NA
HETATM    6  C14 UNL     1      25.020   0.562  53.009  1.00  0.00     0.072 A 
HETATM    7 BR1  UNL     1      23.178   0.096  53.303  1.00  0.00    -0.046 Br
HETATM    8  C15 UNL     1      25.938  -0.162  53.660  1.00  0.00     0.120 A 
ENDROOT
BRANCH   5   9
HETATM    9  C6  UNL     1      24.601   3.329  50.683  1.00  0.00     0.141 C 
HETATM   10  C7  UNL     1      24.656   4.641  50.588  1.00  0.00     0.161 C 
BRANCH  10  11
HETATM   11  O2  UNL     1      24.828   4.873  49.228  1.00  0.00    -0.321 OA
BRANCH  11  12
HETATM   12  C8  UNL     1      26.024   5.439  48.817  1.00  0.00     0.074 A 
HETATM   13  C9  UNL     1      27.188   4.714  48.847  1.00  0.00     0.037 A 
HETATM   14  C10 UNL     1      28.383   5.252  48.444  1.00  0.00     0.003 A 
HETATM   15  C11 UNL     1      28.398   6.569  47.996  1.00  0.00     0.000 A 
HETATM   16  C12 UNL     1      27.239   7.313  47.958  1.00  0.00     0.003 A 
HETATM   17  C13 UNL     1      26.046   6.753  48.368  1.00  0.00     0.037 A 
ENDBRANCH  11  12
ENDBRANCH  10  11
ENDBRANCH   5   9
BRANCH   8  18
HETATM   18  O3  UNL     1      25.532  -1.201  54.504  1.00  0.00    -0.352 OA
HETATM   19  C16 UNL     1      25.327  -0.792  55.866  1.00  0.00     0.210 C 
ENDBRANCH   8  18
BRANCH   1  20
HETATM   20  O1  UNL     1      28.274  -0.729  54.251  1.00  0.00    -0.353 OA
HETATM   21  C1  UNL     1      29.592  -0.967  53.839  1.00  0.00     0.210 C 
ENDBRANCH   1  20
TORSDOF 5
ENDMDL
MODEL 2
REMARK VINA RESULT:      -7.0      1.878      3.132
REMARK  5 active torsions:
REMARK  status: ('A' for Active; 'I' for Inactive)
REMARK    1  A    between atoms: O1_2  and  C2_3 
REMARK    2  A    between atoms: N1_7  and  C6_8 
REMARK    3  A    between atoms: C7_9  and  O2_10 
REMARK    4  A    between atoms: O2_10  and  C8_11 
REMARK    5  A    between atoms: C15_19  and  O3_20 
ROOT
HETATM    1  C2  UNL     1      23.576  -0.254  53.366  1.00  0.00     0.099 A 
HETATM    2  C3  UNL     1      23.292   0.682  52.484  1.00  0.00     0.019 A 
HETATM    3  C4  UNL     1      24.138   1.645  51.731  1.00  0.00     0.090 A 
HETATM    4  C5  UNL     1      25.540   1.435  52.109  1.00  0.00     0.058 A 
HETATM    5  N1  UNL     1      26.534   2.083  51.660  1.00  0.00    -0.262 NA
HETATM    6  C14 UNL     1      25.942   0.406  53.091  1.00  0.00     0.072 A 
HETATM    7 BR1  UNL     1      27.768   0.103  53.611  1.00  0.00    -0.046 Br
HETATM    8  C15 UNL     1      25.014  -0.369  53.663  1.00  0.00     0.120 A 
ENDROOT
BRANCH   5   9
HETATM    9  C6  UNL     1      26.411   3.118  50.711  1.00  0.00     0.141 C 
HETATM   10  C7  UNL     1      26.512   3.418  49.433  1.00  0.00     0.161 C 
BRANCH  10  11
HETATM   11  O2  UNL     1      26.190   4.770  49.378  1.00  0.00    -0.321 OA
BRANCH  11  12
HETATM   12  C8  UNL     1      27.043   5.609  48.679  1.00  0.00     0.074 A 
HETATM   13  C9  UNL     1      26.592   6.802  48.174  1.00  0.00     0.037 A 
HETATM   14  C10 UNL     1      27.417   7.648  47.479  1.00  0.00     0.003 A 
HETATM   15  C11 UNL     1      28.744   7.272  47.290  1.00  0.00     0.000 A 
HETATM   16  C12 UNL     1      29.214   6.077  47.790  1.00  0.00     0.003 A 
HETATM   17  C13 UNL     1      28.368   5.239  48.487  1.00  0.00     0.037 A 
ENDBRANCH  11  12
ENDBRANCH  10  11
ENDBRANCH   5   9
BRANCH   8  18
HETATM   18  O3  UNL     1      25.399  -1.342  54.592  1.00  0.00    -0.352 OA
HETATM   19  C16 UNL     1      25.218  -0.941  55.960  1.00  0.00     0.210 C 
ENDBRANCH   8  18
BRANCH   1  20
HETATM   20  O1  UNL     1      22.676  -1.106  54.012  1.00  0.00    -0.353 OA
HETATM   21  C1  UNL     1      21.546  -0.643  54.699  1.00  0.00     0.210 C 
ENDBRANCH   1  20
TORSDOF 5
ENDMDL
MODEL 3
REMARK VINA RESULT:      -6.9      3.202      7.960
REMARK  5 active torsions:
REMARK  status: ('A' for Active; 'I' for Inactive)
REMARK    1  A    between atoms: O1_2  and  C2_3 
REMARK    2  A    between atoms: N1_7  and  C6_8 
REMARK    3  A    between atoms: C7_9  and  O2_10 
REMARK    4  A    between atoms: O2_10  and  C8_11 
REMARK    5  A    between atoms: C15_19  and  O3_20 
ROOT
HETATM    1  C2  UNL     1      27.312   5.761  48.598  1.00  0.00     0.099 A 
HETATM    2  C3  UNL     1      27.269   4.473  48.872  1.00  0.00     0.019 A 
HETATM    3  C4  UNL     1      26.347   3.650  49.700  1.00  0.00     0.090 A 
HETATM    4  C5  UNL     1      25.325   4.529  50.278  1.00  0.00     0.058 A 
HETATM    5  N1  UNL     1      24.377   4.164  51.039  1.00  0.00    -0.262 NA
HETATM    6  C14 UNL     1      25.302   5.985  50.019  1.00  0.00     0.072 A 
HETATM    7 BR1  UNL     1      23.978   7.166  50.760  1.00  0.00    -0.046 Br
HETATM    8  C15 UNL     1      26.235   6.537  49.235  1.00  0.00     0.120 A 
ENDROOT
BRANCH   5   9
HETATM    9  C6  UNL     1      24.182   2.824  51.434  1.00  0.00     0.141 C 
HETATM   10  C7  UNL     1      23.459   1.742  51.236  1.00  0.00     0.161 C 
BRANCH  10  11
HETATM   11  O2  UNL     1      23.993   0.813  52.122  1.00  0.00    -0.321 OA
BRANCH  11  12
HETATM   12  C8  UNL     1      23.115   0.134  52.952  1.00  0.00     0.074 A 
HETATM   13  C9  UNL     1      23.577  -0.556  54.043  1.00  0.00     0.037 A 
HETATM   14  C10 UNL     1      22.728  -1.235  54.878  1.00  0.00     0.003 A 
HETATM   15  C11 UNL     1      21.365  -1.213  54.598  1.00  0.00     0.000 A 
HETATM   16  C12 UNL     1      20.883  -0.524  53.506  1.00  0.00     0.003 A 
HETATM   17  C13 UNL     1      21.754   0.153  52.677  1.00  0.00     0.037 A 
ENDBRANCH  11  12
ENDBRANCH  10  11
ENDBRANCH   5   9
BRANCH   8  18
HETATM   18  O3  UNL     1      26.210   7.915  48.992  1.00  0.00    -0.352 OA
HETATM   19  C16 UNL     1      27.068   8.671  49.861  1.00  0.00     0.210 C 
ENDBRANCH   8  18
BRANCH   1  20
HETATM   20  O1  UNL     1      28.244   6.421  47.794  1.00  0.00    -0.353 OA
HETATM   21  C1  UNL     1      29.623   6.391  48.041  1.00  0.00     0.210 C 
ENDBRANCH   1  20
TORSDOF 5
ENDMDL
MODEL 4
REMARK VINA RESULT:      -6.8      4.139      7.369
REMARK  5 active torsions:
REMARK  status: ('A' for Active; 'I' for Inactive)
REMARK    1  A    between atoms: O1_2  and  C2_3 
REMARK    2  A    between atoms: N1_7  and  C6_8 
REMARK    3  A    between atoms: C7_9  and  O2_10 
REMARK    4  A    between atoms: O2_10  and  C8_11 
REMARK    5  A    between atoms: C15_19  and  O3_20 
ROOT
HETATM    1  C2  UNL     1      26.169   2.259  51.434  1.00  0.00     0.099 A 
HETATM    2  C3  UNL     1      24.863   2.097  51.366  1.00  0.00     0.019 A 
HETATM    3  C4  UNL     1      23.910   1.268  52.151  1.00  0.00     0.090 A 
HETATM    4  C5  UNL     1      24.661   0.529  53.172  1.00  0.00     0.058 A 
HETATM    5  N1  UNL     1      24.166  -0.276  54.020  1.00  0.00    -0.262 NA
HETATM    6  C14 UNL     1      26.127   0.655  53.314  1.00  0.00     0.072 A 
HETATM    7 BR1  UNL     1      27.143  -0.298  54.639  1.00  0.00    -0.046 Br
HETATM    8  C15 UNL     1      26.809   1.466  52.496  1.00  0.00     0.120 A 
ENDROOT
BRANCH   5   9
HETATM    9  C6  UNL     1      22.788  -0.567  54.088  1.00  0.00     0.141 C 
HETATM   10  C7  UNL     1      21.623  -0.143  54.534  1.00  0.00     0.161 C 
BRANCH  10  11
HETATM   11  O2  UNL     1      20.728  -1.124  54.120  1.00  0.00    -0.321 OA
BRANCH  11  12
HETATM   12  C8  UNL     1      19.737  -0.756  53.224  1.00  0.00     0.074 A 
HETATM   13  C9  UNL     1      18.479  -1.297  53.312  1.00  0.00     0.037 A 
HETATM   14  C10 UNL     1      17.483  -0.949  52.438  1.00  0.00     0.003 A 
HETATM   15  C11 UNL     1      17.771  -0.021  51.441  1.00  0.00     0.000 A 
HETATM   16  C12 UNL     1      19.029   0.532  51.338  1.00  0.00     0.003 A 
HETATM   17  C13 UNL     1      20.019   0.169  52.227  1.00  0.00     0.037 A 
ENDBRANCH  11  12
ENDBRANCH  10  11
ENDBRANCH   5   9
BRANCH   8  18
HETATM   18  O3  UNL     1      28.196   1.583  52.635  1.00  0.00    -0.352 OA
HETATM   19  C16 UNL     1      28.601   2.594  53.572  1.00  0.00     0.210 C 
ENDBRANCH   8  18
BRANCH   1  20
HETATM   20  O1  UNL     1      26.960   3.080  50.626  1.00  0.00    -0.353 OA
HETATM   21  C1  UNL     1      26.476   3.706  49.469  1.00  0.00     0.210 C 
ENDBRANCH   1  20
TORSDOF 5
ENDMDL
MODEL 5
REMARK VINA RESULT:      -6.7      1.881      7.102
REMARK  5 active torsions:
REMARK  status: ('A' for Active; 'I' for Inactive)
REMARK    1  A    between atoms: O1_2  and  C2_3 
REMARK    2  A    between atoms: N1_7  and  C6_8 
REMARK    3  A    between atoms: C7_9  and  O2_10 
REMARK    4  A    between atoms: O2_10  and  C8_11 
REMARK    5  A    between atoms: C15_19  and  O3_20 
ROOT
HETATM    1  C2  UNL     1      26.207   4.922  49.282  1.00  0.00     0.099 A 
HETATM    2  C3  UNL     1      26.676   3.806  49.802  1.00  0.00     0.019 A 
HETATM    3  C4  UNL     1      26.156   2.887  50.849  1.00  0.00     0.090 A 
HETATM    4  C5  UNL     1      24.871   3.406  51.333  1.00  0.00     0.058 A 
HETATM    5  N1  UNL     1      24.147   2.873  52.229  1.00  0.00    -0.262 NA
HETATM    6  C14 UNL     1      24.276   4.651  50.802  1.00  0.00     0.072 A 
HETATM    7 BR1  UNL     1      22.596   5.359  51.412  1.00  0.00    -0.046 Br
HETATM    8  C15 UNL     1      24.913   5.340  49.848  1.00  0.00     0.120 A 
ENDROOT
BRANCH   5   9
HETATM    9  C6  UNL     1      24.497   1.678  52.890  1.00  0.00     0.141 C 
HETATM   10  C7  UNL     1      24.445   0.364  52.828  1.00  0.00     0.161 C 
BRANCH  10  11
HETATM   11  O2  UNL     1      25.084  -0.053  53.991  1.00  0.00    -0.321 OA
BRANCH  11  12
HETATM   12  C8  UNL     1      26.444  -0.311  53.923  1.00  0.00     0.074 A 
HETATM   13  C9  UNL     1      26.941  -1.211  53.015  1.00  0.00     0.037 A 
HETATM   14  C10 UNL     1      28.282  -1.482  52.930  1.00  0.00     0.003 A 
HETATM   15  C11 UNL     1      29.148  -0.818  53.793  1.00  0.00     0.000 A 
HETATM   16  C12 UNL     1      28.666   0.090  54.711  1.00  0.00     0.003 A 
HETATM   17  C13 UNL     1      27.313   0.349  54.782  1.00  0.00     0.037 A 
ENDBRANCH  11  12
ENDBRANCH  10  11
ENDBRANCH   5   9
BRANCH   8  18
HETATM   18  O3  UNL     1      24.347   6.517  49.347  1.00  0.00    -0.352 OA
HETATM   19  C16 UNL     1      23.613   6.332  48.126  1.00  0.00     0.210 C 
ENDBRANCH   8  18
BRANCH   1  20
HETATM   20  O1  UNL     1      26.801   5.705  48.289  1.00  0.00    -0.353 OA
HETATM   21  C1  UNL     1      28.060   6.302  48.438  1.00  0.00     0.210 C 
ENDBRANCH   1  20
TORSDOF 5
ENDMDL
MODEL 6
REMARK VINA RESULT:      -6.6      2.726      7.364
REMARK  5 active torsions:
REMARK  status: ('A' for Active; 'I' for Inactive)
REMARK    1  A    between atoms: O1_2  and  C2_3 
REMARK    2  A    between atoms: N1_7  and  C6_8 
REMARK    3  A    between atoms: C7_9  and  O2_10 
REMARK    4  A    between atoms: O2_10  and  C8_11 
REMARK    5  A    between atoms: C15_19  and  O3_20 
ROOT
HETATM    1  C2  UNL     1      27.280   6.001  48.663  1.00  0.00     0.099 A 
HETATM    2  C3  UNL     1      27.170   4.720  48.952  1.00  0.00     0.019 A 
HETATM    3  C4  UNL     1      26.188   3.953  49.762  1.00  0.00     0.090 A 
HETATM    4  C5  UNL     1      25.191   4.887  50.300  1.00  0.00     0.058 A 
HETATM    5  N1  UNL     1      24.206   4.575  51.037  1.00  0.00    -0.262 NA
HETATM    6  C14 UNL     1      25.243   6.337  50.022  1.00  0.00     0.072 A 
HETATM    7 BR1  UNL     1      23.956   7.589  50.709  1.00  0.00    -0.046 Br
HETATM    8  C15 UNL     1      26.223   6.835  49.258  1.00  0.00     0.120 A 
ENDROOT
BRANCH   5   9
HETATM    9  C6  UNL     1      23.938   3.252  51.444  1.00  0.00     0.141 C 
HETATM   10  C7  UNL     1      23.285   2.509  52.313  1.00  0.00     0.161 C 
BRANCH  10  11
HETATM   11  O2  UNL     1      23.615   1.207  51.956  1.00  0.00    -0.321 OA
BRANCH  11  12
HETATM   12  C8  UNL     1      24.713   0.627  52.571  1.00  0.00     0.074 A 
HETATM   13  C9  UNL     1      25.939   0.626  51.957  1.00  0.00     0.037 A 
HETATM   14  C10 UNL     1      27.039   0.058  52.546  1.00  0.00     0.003 A 
HETATM   15  C11 UNL     1      26.891  -0.527  53.800  1.00  0.00     0.000 A 
HETATM   16  C12 UNL     1      25.667  -0.535  54.432  1.00  0.00     0.003 A 
HETATM   17  C13 UNL     1      24.571   0.041  53.823  1.00  0.00     0.037 A 
ENDBRANCH  11  12
ENDBRANCH  10  11
ENDBRANCH   5   9
BRANCH   8  18
HETATM   18  O3  UNL     1      26.269   8.209  48.997  1.00  0.00    -0.352 OA
HETATM   19  C16 UNL     1      27.147   8.935  49.872  1.00  0.00     0.210 C 
ENDBRANCH   8  18
BRANCH   1  20
HETATM   20  O1  UNL     1      28.265   6.607  47.877  1.00  0.00    -0.353 OA
HETATM   21  C1  UNL     1      29.635   6.373  48.056  1.00  0.00     0.210 C 
ENDBRANCH   1  20
TORSDOF 5
ENDMDL
MODEL 7
REMARK VINA RESULT:      -6.6      5.604      8.707
REMARK  5 active torsions:
REMARK  status: ('A' for Active; 'I' for Inactive)
REMARK    1  A    between atoms: O1_2  and  C2_3 
REMARK    2  A    between atoms: N1_7  and  C6_8 
REMARK    3  A    between atoms: C7_9  and  O2_10 
REMARK    4  A    between atoms: O2_10  and  C8_11 
REMARK    5  A    between atoms: C15_19  and  O3_20 
ROOT
HETATM    1  C2  UNL     1      25.484   0.326  53.059  1.00  0.00     0.099 A 
HETATM    2  C3  UNL     1      24.557  -0.562  53.357  1.00  0.00     0.019 A 
HETATM    3  C4  UNL     1      23.072  -0.513  53.330  1.00  0.00     0.090 A 
HETATM    4  C5  UNL     1      22.654   0.817  52.872  1.00  0.00     0.058 A 
HETATM    5  N1  UNL     1      21.455   1.209  52.730  1.00  0.00    -0.262 NA
HETATM    6  C14 UNL     1      23.630   1.869  52.518  1.00  0.00     0.072 A 
HETATM    7 BR1  UNL     1      23.119   3.621  51.914  1.00  0.00    -0.046 Br
HETATM    8  C15 UNL     1      24.941   1.620  52.611  1.00  0.00     0.120 A 
ENDROOT
BRANCH   5   9
HETATM    9  C6  UNL     1      20.341   0.390  53.004  1.00  0.00     0.141 C 
HETATM   10  C7  UNL     1      19.299  -0.217  52.472  1.00  0.00     0.161 C 
BRANCH  10  11
HETATM   11  O2  UNL     1      18.693  -0.851  53.551  1.00  0.00    -0.321 OA
BRANCH  11  12
HETATM   12  C8  UNL     1      17.677  -1.753  53.281  1.00  0.00     0.074 A 
HETATM   13  C9  UNL     1      17.752  -3.047  53.730  1.00  0.00     0.037 A 
HETATM   14  C10 UNL     1      16.759  -3.957  53.475  1.00  0.00     0.003 A 
HETATM   15  C11 UNL     1      15.652  -3.541  52.741  1.00  0.00     0.000 A 
HETATM   16  C12 UNL     1      15.559  -2.245  52.283  1.00  0.00     0.003 A 
HETATM   17  C13 UNL     1      16.570  -1.344  52.549  1.00  0.00     0.037 A 
ENDBRANCH  11  12
ENDBRANCH  10  11
ENDBRANCH   5   9
BRANCH   8  18
HETATM   18  O3  UNL     1      25.863   2.618  52.275  1.00  0.00    -0.352 OA
HETATM   19  C16 UNL     1      26.422   2.470  50.960  1.00  0.00     0.210 C 
ENDBRANCH   8  18
BRANCH   1  20
HETATM   20  O1  UNL     1      26.869   0.155  53.127  1.00  0.00    -0.353 OA
HETATM   21  C1  UNL     1      27.590   0.228  54.327  1.00  0.00     0.210 C 
ENDBRANCH   1  20
TORSDOF 5
ENDMDL
MODEL 8
REMARK VINA RESULT:      -6.5      4.374      7.228
REMARK  5 active torsions:
REMARK  status: ('A' for Active; 'I' for Inactive)
REMARK    1  A    between atoms: O1_2  and  C2_3 
REMARK    2  A    between atoms: N1_7  and  C6_8 
REMARK    3  A    between atoms: C7_9  and  O2_10 
REMARK    4  A    between atoms: O2_10  and  C8_11 
REMARK    5  A    between atoms: C15_19  and  O3_20 
ROOT
HETATM    1  C2  UNL     1      20.330   2.456  52.376  1.00  0.00     0.099 A 
HETATM    2  C3  UNL     1      21.546   2.937  52.212  1.00  0.00     0.019 A 
HETATM    3  C4  UNL     1      22.894   2.381  52.500  1.00  0.00     0.090 A 
HETATM    4  C5  UNL     1      22.737   1.040  53.074  1.00  0.00     0.058 A 
HETATM    5  N1  UNL     1      23.681   0.274  53.439  1.00  0.00    -0.262 NA
HETATM    6  C14 UNL     1      21.409   0.429  53.290  1.00  0.00     0.072 A 
HETATM    7 BR1  UNL     1      21.165  -1.325  54.039  1.00  0.00    -0.046 Br
HETATM    8  C15 UNL     1      20.302   1.104  52.958  1.00  0.00     0.120 A 
ENDROOT
BRANCH   5   9
HETATM    9  C6  UNL     1      25.042   0.629  53.335  1.00  0.00     0.141 C 
HETATM   10  C7  UNL     1      26.046   1.220  53.950  1.00  0.00     0.161 C 
BRANCH  10  11
HETATM   11  O2  UNL     1      27.102   1.107  53.054  1.00  0.00    -0.321 OA
BRANCH  11  12
HETATM   12  C8  UNL     1      27.920  -0.007  53.157  1.00  0.00     0.074 A 
HETATM   13  C9  UNL     1      29.187   0.101  53.670  1.00  0.00     0.037 A 
HETATM   14  C10 UNL     1      30.014  -0.987  53.782  1.00  0.00     0.003 A 
HETATM   15  C11 UNL     1      29.540  -2.225  53.360  1.00  0.00     0.000 A 
HETATM   16  C12 UNL     1      28.269  -2.353  52.842  1.00  0.00     0.003 A 
HETATM   17  C13 UNL     1      27.452  -1.246  52.738  1.00  0.00     0.037 A 
ENDBRANCH  11  12
ENDBRANCH  10  11
ENDBRANCH   5   9
BRANCH   8  18
HETATM   18  O3  UNL     1      19.046   0.522  53.164  1.00  0.00    -0.352 OA
HETATM   19  C16 UNL     1      18.527  -0.156  52.009  1.00  0.00     0.210 C 
ENDBRANCH   8  18
BRANCH   1  20
HETATM   20  O1  UNL     1      19.124   3.087  52.060  1.00  0.00    -0.353 OA
HETATM   21  C1  UNL     1      18.805   3.520  50.765  1.00  0.00     0.210 C 
ENDBRANCH   1  20
TORSDOF 5
ENDMDL
MODEL 9
REMARK VINA RESULT:      -6.5      3.084      7.415
REMARK  5 active torsions:
REMARK  status: ('A' for Active; 'I' for Inactive)
REMARK    1  A    between atoms: O1_2  and  C2_3 
REMARK    2  A    between atoms: N1_7  and  C6_8 
REMARK    3  A    between atoms: C7_9  and  O2_10 
REMARK    4  A    between atoms: O2_10  and  C8_11 
REMARK    5  A    between atoms: C15_19  and  O3_20 
ROOT
HETATM    1  C2  UNL     1      22.955   5.497  51.265  1.00  0.00     0.099 A 
HETATM    2  C3  UNL     1      23.454   4.949  52.354  1.00  0.00     0.019 A 
HETATM    3  C4  UNL     1      23.725   3.538  52.737  1.00  0.00     0.090 A 
HETATM    4  C5  UNL     1      23.329   2.665  51.626  1.00  0.00     0.058 A 
HETATM    5  N1  UNL     1      23.421   1.399  51.608  1.00  0.00    -0.262 NA
HETATM    6  C14 UNL     1      22.761   3.201  50.370  1.00  0.00     0.072 A 
HETATM    7 BR1  UNL     1      22.232   2.088  48.895  1.00  0.00    -0.046 Br
HETATM    8  C15 UNL     1      22.596   4.520  50.223  1.00  0.00     0.120 A 
ENDROOT
BRANCH   5   9
HETATM    9  C6  UNL     1      23.932   0.651  52.688  1.00  0.00     0.141 C 
HETATM   10  C7  UNL     1      23.929  -0.531  53.270  1.00  0.00     0.161 C 
BRANCH  10  11
HETATM   11  O2  UNL     1      24.773  -0.369  54.363  1.00  0.00    -0.321 OA
BRANCH  11  12
HETATM   12  C8  UNL     1      26.139  -0.449  54.141  1.00  0.00     0.074 A 
HETATM   13  C9  UNL     1      27.015   0.285  54.899  1.00  0.00     0.037 A 
HETATM   14  C10 UNL     1      28.370   0.222  54.698  1.00  0.00     0.003 A 
HETATM   15  C11 UNL     1      28.852  -0.613  53.694  1.00  0.00     0.000 A 
HETATM   16  C12 UNL     1      27.986  -1.358  52.923  1.00  0.00     0.003 A 
HETATM   17  C13 UNL     1      26.626  -1.281  53.141  1.00  0.00     0.037 A 
ENDBRANCH  11  12
ENDBRANCH  10  11
ENDBRANCH   5   9
BRANCH   8  18
HETATM   18  O3  UNL     1      22.059   5.024  49.033  1.00  0.00    -0.352 OA
HETATM   19  C16 UNL     1      23.050   5.404  48.066  1.00  0.00     0.210 C 
ENDBRANCH   8  18
BRANCH   1  20
HETATM   20  O1  UNL     1      22.747   6.858  51.025  1.00  0.00    -0.353 OA
HETATM   21  C1  UNL     1      23.795   7.766  50.823  1.00  0.00     0.210 C 
ENDBRANCH   1  20
TORSDOF 5
ENDMDL
