MODEL 1
REMARK VINA RESULT:      -7.4      0.000      0.000
REMARK  7 active torsions:
REMARK  status: ('A' for Active; 'I' for Inactive)
REMARK    1  A    between atoms: O1_2  and  C2_3 
REMARK    2  A    between atoms: C2_3  and  C3_5 
REMARK    3  A    between atoms: C7_9  and  N1_10 
REMARK    4  A    between atoms: C9_12  and  C10_13 
REMARK    5  A    between atoms: C13_17  and  C14_18 
REMARK    6  A    between atoms: C14_18  and  C15_19 
REMARK    7  A    between atoms: C15_19  and  C16_20 
ROOT
HETATM    1  C3  UNL     1      26.191   1.307  53.677  1.00  0.00     0.128 C 
HETATM    2  C4  UNL     1      25.113   2.373  53.882  1.00  0.00     0.026 C 
HETATM    3  C5  UNL     1      24.731   2.753  52.493  1.00  0.00     0.021 C 
HETATM    4  C6  UNL     1      25.940   2.317  51.652  1.00  0.00     0.055 C 
HETATM    5  C7  UNL     1      25.937   0.917  52.263  1.00  0.00     0.186 C 
HETATM    6  C8  UNL     1      24.490   0.570  52.019  1.00  0.00     0.021 C 
HETATM    7  C9  UNL     1      23.771   1.716  51.997  1.00  0.00    -0.045 C 
ENDROOT
BRANCH   7   8
HETATM    8  C10 UNL     1      22.367   1.722  51.548  1.00  0.00     0.075 A 
HETATM    9  C11 UNL     1      22.105   1.269  50.130  1.00  0.00     0.049 C 
HETATM   10  N2  UNL     1      21.689   3.014  51.728  1.00  0.00    -0.382 N 
HETATM   11  C12 UNL     1      20.810   2.501  52.690  1.00  0.00     0.090 A 
HETATM   12  H16 UNL     1      21.796   3.965  51.315  1.00  0.00     0.160 HD
HETATM   13  C13 UNL     1      21.394   1.309  52.562  1.00  0.00    -0.033 A 
BRANCH  13  14
HETATM   14  C14 UNL     1      21.284  -0.046  53.112  1.00  0.00     0.045 C 
BRANCH  14  15
HETATM   15  C15 UNL     1      21.290   0.006  54.641  1.00  0.00     0.075 C 
BRANCH  15  16
HETATM   16  C16 UNL     1      22.213  -0.976  55.229  1.00  0.00     0.117 A 
HETATM   17  O3  UNL     1      21.849  -2.173  55.073  1.00  0.00    -0.194 OA
HETATM   18  O4  UNL     1      23.114  -1.858  55.798  1.00  0.00     0.000 OA
HETATM   19  H22 UNL     1      24.101  -1.580  55.902  1.00  0.00     0.000 HD
ENDBRANCH  15  16
ENDBRANCH  14  15
ENDBRANCH  13  14
ENDBRANCH   7   8
BRANCH   5  20
HETATM   20  N1  UNL     1      26.870   0.038  51.665  1.00  0.00     0.092 N 
HETATM   21  H10 UNL     1      27.566   0.476  51.049  1.00  0.00     0.314 HD
HETATM   22  H11 UNL     1      26.365  -0.779  51.301  1.00  0.00     0.314 HD
ENDBRANCH   5  20
BRANCH   1  23
HETATM   23  C2  UNL     1      26.148   0.249  54.665  1.00  0.00     0.265 C 
HETATM   24  O2  UNL     1      25.691  -0.512  55.524  1.00  0.00    -0.265 OA
BRANCH  23  25
HETATM   25  O1  UNL     1      27.345  -0.431  54.869  1.00  0.00    -0.326 OA
HETATM   26  C1  UNL     1      28.602   0.186  54.871  1.00  0.00     0.213 C 
ENDBRANCH  23  25
ENDBRANCH   1  23
TORSDOF 7
ENDMDL
MODEL 2
REMARK VINA RESULT:      -7.1      2.256      5.051
REMARK  7 active torsions:
REMARK  status: ('A' for Active; 'I' for Inactive)
REMARK    1  A    between atoms: O1_2  and  C2_3 
REMARK    2  A    between atoms: C2_3  and  C3_5 
REMARK    3  A    between atoms: C7_9  and  N1_10 
REMARK    4  A    between atoms: C9_12  and  C10_13 
REMARK    5  A    between atoms: C13_17  and  C14_18 
REMARK    6  A    between atoms: C14_18  and  C15_19 
REMARK    7  A    between atoms: C15_19  and  C16_20 
ROOT
HETATM    1  C3  UNL     1      21.982   2.983  51.446  1.00  0.00     0.128 C 
HETATM    2  C4  UNL     1      22.787   1.821  50.862  1.00  0.00     0.026 C 
HETATM    3  C5  UNL     1      24.184   2.339  50.846  1.00  0.00     0.021 C 
HETATM    4  C6  UNL     1      24.007   3.864  50.889  1.00  0.00     0.055 C 
HETATM    5  C7  UNL     1      23.062   3.781  52.087  1.00  0.00     0.186 C 
HETATM    6  C8  UNL     1      23.927   2.943  52.994  1.00  0.00     0.021 C 
HETATM    7  C9  UNL     1      24.735   2.174  52.229  1.00  0.00    -0.045 C 
ENDROOT
BRANCH   7   8
HETATM    8  C10 UNL     1      25.852   1.420  52.825  1.00  0.00     0.075 A 
HETATM    9  C11 UNL     1      26.686   2.144  53.857  1.00  0.00     0.049 C 
HETATM   10  N2  UNL     1      26.778   0.846  51.837  1.00  0.00    -0.382 N 
HETATM   11  C12 UNL     1      26.430  -0.469  52.168  1.00  0.00     0.090 A 
HETATM   12  H16 UNL     1      27.450   1.238  51.143  1.00  0.00     0.160 HD
HETATM   13  C13 UNL     1      25.577   0.004  53.077  1.00  0.00    -0.033 A 
BRANCH  13  14
HETATM   14  C14 UNL     1      24.620  -0.498  54.069  1.00  0.00     0.045 C 
BRANCH  14  15
HETATM   15  C15 UNL     1      23.294  -0.849  53.389  1.00  0.00     0.075 C 
BRANCH  15  16
HETATM   16  C16 UNL     1      22.137  -0.601  54.262  1.00  0.00     0.117 A 
HETATM   17  O3  UNL     1      22.034  -1.423  55.213  1.00  0.00    -0.194 OA
HETATM   18  O4  UNL     1      21.036  -0.326  55.052  1.00  0.00     0.000 OA
HETATM   19  H22 UNL     1      20.673   0.638  55.100  1.00  0.00     0.000 HD
ENDBRANCH  15  16
ENDBRANCH  14  15
ENDBRANCH  13  14
ENDBRANCH   7   8
BRANCH   5  20
HETATM   20  N1  UNL     1      22.700   5.045  52.609  1.00  0.00     0.092 N 
HETATM   21  H10 UNL     1      22.682   5.819  51.934  1.00  0.00     0.314 HD
HETATM   22  H11 UNL     1      23.210   5.197  53.487  1.00  0.00     0.314 HD
ENDBRANCH   5  20
BRANCH   1  23
HETATM   23  C2  UNL     1      20.892   2.556  52.298  1.00  0.00     0.265 C 
HETATM   24  O2  UNL     1      20.228   1.837  53.052  1.00  0.00    -0.265 OA
BRANCH  23  25
HETATM   25  O1  UNL     1      19.846   3.465  52.437  1.00  0.00    -0.326 OA
HETATM   26  C1  UNL     1      18.950   3.786  51.411  1.00  0.00     0.213 C 
ENDBRANCH  23  25
ENDBRANCH   1  23
TORSDOF 7
ENDMDL
MODEL 3
REMARK VINA RESULT:      -6.9      3.396      5.030
REMARK  7 active torsions:
REMARK  status: ('A' for Active; 'I' for Inactive)
REMARK    1  A    between atoms: O1_2  and  C2_3 
REMARK    2  A    between atoms: C2_3  and  C3_5 
REMARK    3  A    between atoms: C7_9  and  N1_10 
REMARK    4  A    between atoms: C9_12  and  C10_13 
REMARK    5  A    between atoms: C13_17  and  C14_18 
REMARK    6  A    between atoms: C14_18  and  C15_19 
REMARK    7  A    between atoms: C15_19  and  C16_20 
ROOT
HETATM    1  C3  UNL     1      27.515   0.262  53.385  1.00  0.00     0.128 C 
HETATM    2  C4  UNL     1      27.153   0.654  51.952  1.00  0.00     0.026 C 
HETATM    3  C5  UNL     1      25.680   0.440  51.894  1.00  0.00     0.021 C 
HETATM    4  C6  UNL     1      25.409  -0.535  53.048  1.00  0.00     0.055 C 
HETATM    5  C7  UNL     1      26.182   0.330  54.042  1.00  0.00     0.186 C 
HETATM    6  C8  UNL     1      25.485   1.642  53.782  1.00  0.00     0.021 C 
HETATM    7  C9  UNL     1      25.032   1.643  52.507  1.00  0.00    -0.045 C 
ENDROOT
BRANCH   7   8
HETATM    8  C10 UNL     1      24.111   2.690  52.031  1.00  0.00     0.075 A 
HETATM    9  C11 UNL     1      23.862   3.852  52.964  1.00  0.00     0.049 C 
HETATM   10  N2  UNL     1      22.798   2.181  51.606  1.00  0.00    -0.382 N 
HETATM   11  C12 UNL     1      23.017   2.528  50.267  1.00  0.00     0.090 A 
HETATM   12  H16 UNL     1      21.992   1.730  52.089  1.00  0.00     0.160 HD
HETATM   13  C13 UNL     1      24.216   3.003  50.604  1.00  0.00    -0.033 A 
BRANCH  13  14
HETATM   14  C14 UNL     1      25.376   3.640  49.972  1.00  0.00     0.045 C 
BRANCH  14  15
HETATM   15  C15 UNL     1      24.967   4.979  49.353  1.00  0.00     0.075 C 
BRANCH  15  16
HETATM   16  C16 UNL     1      25.508   6.126  50.098  1.00  0.00     0.117 A 
HETATM   17  O3  UNL     1      24.697   6.620  50.928  1.00  0.00    -0.194 OA
HETATM   18  O4  UNL     1      26.063   7.199  50.772  1.00  0.00     0.000 OA
HETATM   19  H22 UNL     1      27.086   7.254  50.884  1.00  0.00     0.000 HD
ENDBRANCH  15  16
ENDBRANCH  14  15
ENDBRANCH  13  14
ENDBRANCH   7   8
BRANCH   5  20
HETATM   20  N1  UNL     1      26.101  -0.133  55.376  1.00  0.00     0.092 N 
HETATM   21  H10 UNL     1      25.844  -1.120  55.492  1.00  0.00     0.314 HD
HETATM   22  H11 UNL     1      25.585   0.558  55.933  1.00  0.00     0.314 HD
ENDBRANCH   5  20
BRANCH   1  23
HETATM   23  C2  UNL     1      28.568   1.076  53.956  1.00  0.00     0.265 C 
HETATM   24  O2  UNL     1      29.126   2.058  54.457  1.00  0.00    -0.265 OA
BRANCH  23  25
HETATM   25  O1  UNL     1      29.812   0.462  54.062  1.00  0.00    -0.326 OA
HETATM   26  C1  UNL     1      30.068  -0.856  53.665  1.00  0.00     0.213 C 
ENDBRANCH  23  25
ENDBRANCH   1  23
TORSDOF 7
ENDMDL
MODEL 4
REMARK VINA RESULT:      -6.7      2.932      4.009
REMARK  7 active torsions:
REMARK  status: ('A' for Active; 'I' for Inactive)
REMARK    1  A    between atoms: O1_2  and  C2_3 
REMARK    2  A    between atoms: C2_3  and  C3_5 
REMARK    3  A    between atoms: C7_9  and  N1_10 
REMARK    4  A    between atoms: C9_12  and  C10_13 
REMARK    5  A    between atoms: C13_17  and  C14_18 
REMARK    6  A    between atoms: C14_18  and  C15_19 
REMARK    7  A    between atoms: C15_19  and  C16_20 
ROOT
HETATM    1  C3  UNL     1      26.474   1.134  53.670  1.00  0.00     0.128 C 
HETATM    2  C4  UNL     1      25.519   2.316  53.849  1.00  0.00     0.026 C 
HETATM    3  C5  UNL     1      24.977   2.535  52.479  1.00  0.00     0.021 C 
HETATM    4  C6  UNL     1      26.019   1.873  51.565  1.00  0.00     0.055 C 
HETATM    5  C7  UNL     1      25.996   0.578  52.375  1.00  0.00     0.186 C 
HETATM    6  C8  UNL     1      24.507   0.341  52.372  1.00  0.00     0.021 C 
HETATM    7  C9  UNL     1      23.881   1.536  52.270  1.00  0.00    -0.045 C 
ENDROOT
BRANCH   7   8
HETATM    8  C10 UNL     1      22.433   1.613  52.008  1.00  0.00     0.075 A 
HETATM    9  C11 UNL     1      21.517   1.138  53.112  1.00  0.00     0.049 C 
HETATM   10  N2  UNL     1      22.013   0.938  50.771  1.00  0.00    -0.382 N 
HETATM   11  C12 UNL     1      21.636   2.140  50.158  1.00  0.00     0.090 A 
HETATM   12  H16 UNL     1      21.992  -0.051  50.442  1.00  0.00     0.160 HD
HETATM   13  C13 UNL     1      22.003   2.796  51.259  1.00  0.00    -0.033 A 
BRANCH  13  14
HETATM   14  C14 UNL     1      22.054   4.171  51.768  1.00  0.00     0.045 C 
BRANCH  14  15
HETATM   15  C15 UNL     1      22.874   5.051  50.821  1.00  0.00     0.075 C 
BRANCH  15  16
HETATM   16  C16 UNL     1      23.719   6.013  51.545  1.00  0.00     0.117 A 
HETATM   17  O3  UNL     1      23.706   7.172  51.051  1.00  0.00    -0.194 OA
HETATM   18  O4  UNL     1      24.527   6.878  52.261  1.00  0.00     0.000 OA
HETATM   19  H22 UNL     1      24.710   6.694  53.258  1.00  0.00     0.000 HD
ENDBRANCH  15  16
ENDBRANCH  14  15
ENDBRANCH  13  14
ENDBRANCH   7   8
BRANCH   5  20
HETATM   20  N1  UNL     1      26.767  -0.460  51.802  1.00  0.00     0.092 N 
HETATM   21  H10 UNL     1      26.802  -1.337  52.335  1.00  0.00     0.314 HD
HETATM   22  H11 UNL     1      27.659  -0.068  51.480  1.00  0.00     0.314 HD
ENDBRANCH   5  20
BRANCH   1  23
HETATM   23  C2  UNL     1      26.489   0.232  54.803  1.00  0.00     0.265 C 
HETATM   24  O2  UNL     1      26.081  -0.399  55.784  1.00  0.00    -0.265 OA
BRANCH  23  25
HETATM   25  O1  UNL     1      27.704  -0.401  55.051  1.00  0.00    -0.326 OA
HETATM   26  C1  UNL     1      28.942   0.094  54.624  1.00  0.00     0.213 C 
ENDBRANCH  23  25
ENDBRANCH   1  23
TORSDOF 7
ENDMDL
MODEL 5
REMARK VINA RESULT:      -6.6      3.119      4.345
REMARK  7 active torsions:
REMARK  status: ('A' for Active; 'I' for Inactive)
REMARK    1  A    between atoms: O1_2  and  C2_3 
REMARK    2  A    between atoms: C2_3  and  C3_5 
REMARK    3  A    between atoms: C7_9  and  N1_10 
REMARK    4  A    between atoms: C9_12  and  C10_13 
REMARK    5  A    between atoms: C13_17  and  C14_18 
REMARK    6  A    between atoms: C14_18  and  C15_19 
REMARK    7  A    between atoms: C15_19  and  C16_20 
ROOT
HETATM    1  C3  UNL     1      25.716   0.429  53.357  1.00  0.00     0.128 C 
HETATM    2  C4  UNL     1      24.541   0.815  52.457  1.00  0.00     0.026 C 
HETATM    3  C5  UNL     1      24.536   2.304  52.511  1.00  0.00     0.021 C 
HETATM    4  C6  UNL     1      25.302   2.623  53.803  1.00  0.00     0.055 C 
HETATM    5  C7  UNL     1      26.465   1.714  53.411  1.00  0.00     0.186 C 
HETATM    6  C8  UNL     1      26.731   2.275  52.037  1.00  0.00     0.021 C 
HETATM    7  C9  UNL     1      25.578   2.787  51.550  1.00  0.00    -0.045 C 
ENDROOT
BRANCH   7   8
HETATM    8  C10 UNL     1      25.570   3.611  50.328  1.00  0.00     0.075 A 
HETATM    9  C11 UNL     1      26.729   3.426  49.376  1.00  0.00     0.049 C 
HETATM   10  N2  UNL     1      25.438   5.054  50.582  1.00  0.00    -0.382 N 
HETATM   11  C12 UNL     1      24.176   5.118  49.979  1.00  0.00     0.090 A 
HETATM   12  H16 UNL     1      26.035   5.779  51.035  1.00  0.00     0.160 HD
HETATM   13  C13 UNL     1      24.250   3.811  49.727  1.00  0.00    -0.033 A 
BRANCH  13  14
HETATM   14  C14 UNL     1      23.448   2.754  49.101  1.00  0.00     0.045 C 
BRANCH  14  15
HETATM   15  C15 UNL     1      22.124   2.586  49.850  1.00  0.00     0.075 C 
BRANCH  15  16
HETATM   16  C16 UNL     1      21.001   2.310  48.942  1.00  0.00     0.117 A 
HETATM   17  O3  UNL     1      20.274   1.348  49.310  1.00  0.00    -0.194 OA
HETATM   18  O4  UNL     1      19.961   2.093  48.056  1.00  0.00     0.000 OA
HETATM   19  H22 UNL     1      19.611   2.874  47.482  1.00  0.00     0.000 HD
ENDBRANCH  15  16
ENDBRANCH  14  15
ENDBRANCH  13  14
ENDBRANCH   7   8
BRANCH   5  20
HETATM   20  N1  UNL     1      27.560   1.779  54.304  1.00  0.00     0.092 N 
HETATM   21  H10 UNL     1      28.105   0.915  54.407  1.00  0.00     0.314 HD
HETATM   22  H11 UNL     1      27.254   2.249  55.164  1.00  0.00     0.314 HD
ENDBRANCH   5  20
BRANCH   1  23
HETATM   23  C2  UNL     1      26.442  -0.732  52.888  1.00  0.00     0.265 C 
HETATM   24  O2  UNL     1      26.769  -1.673  52.157  1.00  0.00    -0.265 OA
BRANCH  23  25
HETATM   25  O1  UNL     1      27.471  -1.172  53.715  1.00  0.00    -0.326 OA
HETATM   26  C1  UNL     1      28.780  -1.404  53.275  1.00  0.00     0.213 C 
ENDBRANCH  23  25
ENDBRANCH   1  23
TORSDOF 7
ENDMDL
MODEL 6
REMARK VINA RESULT:      -6.6      3.300      4.642
REMARK  7 active torsions:
REMARK  status: ('A' for Active; 'I' for Inactive)
REMARK    1  A    between atoms: O1_2  and  C2_3 
REMARK    2  A    between atoms: C2_3  and  C3_5 
REMARK    3  A    between atoms: C7_9  and  N1_10 
REMARK    4  A    between atoms: C9_12  and  C10_13 
REMARK    5  A    between atoms: C13_17  and  C14_18 
REMARK    6  A    between atoms: C14_18  and  C15_19 
REMARK    7  A    between atoms: C15_19  and  C16_20 
ROOT
HETATM    1  C3  UNL     1      24.492   4.125  51.198  1.00  0.00     0.128 C 
HETATM    2  C4  UNL     1      24.457   2.689  50.673  1.00  0.00     0.026 C 
HETATM    3  C5  UNL     1      24.174   1.879  51.891  1.00  0.00     0.021 C 
HETATM    4  C6  UNL     1      24.603   2.798  53.045  1.00  0.00     0.055 C 
HETATM    5  C7  UNL     1      23.786   3.967  52.498  1.00  0.00     0.186 C 
HETATM    6  C8  UNL     1      22.462   3.261  52.346  1.00  0.00     0.021 C 
HETATM    7  C9  UNL     1      22.698   1.946  52.135  1.00  0.00    -0.045 C 
ENDROOT
BRANCH   7   8
HETATM    8  C10 UNL     1      21.601   0.963  52.180  1.00  0.00     0.075 A 
HETATM    9  C11 UNL     1      21.096   0.447  50.852  1.00  0.00     0.049 C 
HETATM   10  N2  UNL     1      20.431   1.409  52.950  1.00  0.00    -0.382 N 
HETATM   11  C12 UNL     1      20.618   0.432  53.937  1.00  0.00     0.090 A 
HETATM   12  H16 UNL     1      19.716   2.159  52.835  1.00  0.00     0.160 HD
HETATM   13  C13 UNL     1      21.687  -0.008  53.274  1.00  0.00    -0.033 A 
BRANCH  13  14
HETATM   14  C14 UNL     1      22.715  -1.047  53.390  1.00  0.00     0.045 C 
BRANCH  14  15
HETATM   15  C15 UNL     1      23.600  -0.777  54.609  1.00  0.00     0.075 C 
BRANCH  15  16
HETATM   16  C16 UNL     1      25.032  -0.890  54.295  1.00  0.00     0.117 A 
HETATM   17  O3  UNL     1      25.788  -0.572  55.252  1.00  0.00    -0.194 OA
HETATM   18  O4  UNL     1      26.366  -1.013  53.950  1.00  0.00     0.000 OA
HETATM   19  H22 UNL     1      26.641  -1.682  53.214  1.00  0.00     0.000 HD
ENDBRANCH  15  16
ENDBRANCH  14  15
ENDBRANCH  13  14
ENDBRANCH   7   8
BRANCH   5  20
HETATM   20  N1  UNL     1      23.766   5.093  53.356  1.00  0.00     0.092 N 
HETATM   21  H10 UNL     1      24.587   5.708  53.303  1.00  0.00     0.314 HD
HETATM   22  H11 UNL     1      23.463   4.789  54.288  1.00  0.00     0.314 HD
ENDBRANCH   5  20
BRANCH   1  23
HETATM   23  C2  UNL     1      23.943   5.090  50.268  1.00  0.00     0.265 C 
HETATM   24  O2  UNL     1      23.420   5.539  49.243  1.00  0.00    -0.265 OA
BRANCH  23  25
HETATM   25  O1  UNL     1      23.956   6.414  50.699  1.00  0.00    -0.326 OA
HETATM   26  C1  UNL     1      22.956   7.344  50.390  1.00  0.00     0.213 C 
ENDBRANCH  23  25
ENDBRANCH   1  23
TORSDOF 7
ENDMDL
MODEL 7
REMARK VINA RESULT:      -6.6      1.592      1.807
REMARK  7 active torsions:
REMARK  status: ('A' for Active; 'I' for Inactive)
REMARK    1  A    between atoms: O1_2  and  C2_3 
REMARK    2  A    between atoms: C2_3  and  C3_5 
REMARK    3  A    between atoms: C7_9  and  N1_10 
REMARK    4  A    between atoms: C9_12  and  C10_13 
REMARK    5  A    between atoms: C13_17  and  C14_18 
REMARK    6  A    between atoms: C14_18  and  C15_19 
REMARK    7  A    between atoms: C15_19  and  C16_20 
ROOT
HETATM    1  C3  UNL     1      25.690   1.646  52.828  1.00  0.00     0.128 C 
HETATM    2  C4  UNL     1      24.353   1.189  53.414  1.00  0.00     0.026 C 
HETATM    3  C5  UNL     1      23.411   2.273  53.019  1.00  0.00     0.021 C 
HETATM    4  C6  UNL     1      24.331   3.471  52.743  1.00  0.00     0.055 C 
HETATM    5  C7  UNL     1      25.232   2.645  51.826  1.00  0.00     0.186 C 
HETATM    6  C8  UNL     1      24.169   2.090  50.912  1.00  0.00     0.021 C 
HETATM    7  C9  UNL     1      23.006   2.015  51.600  1.00  0.00    -0.045 C 
ENDROOT
BRANCH   7   8
HETATM    8  C10 UNL     1      21.735   1.730  50.912  1.00  0.00     0.075 A 
HETATM    9  C11 UNL     1      21.831   1.127  49.529  1.00  0.00     0.049 C 
HETATM   10  N2  UNL     1      20.832   2.887  50.823  1.00  0.00    -0.382 N 
HETATM   11  C12 UNL     1      19.879   2.300  51.665  1.00  0.00     0.090 A 
HETATM   12  H16 UNL     1      20.860   3.807  50.332  1.00  0.00     0.160 HD
HETATM   13  C13 UNL     1      20.664   1.228  51.776  1.00  0.00    -0.033 A 
BRANCH  13  14
HETATM   14  C14 UNL     1      20.673  -0.077  52.446  1.00  0.00     0.045 C 
BRANCH  14  15
HETATM   15  C15 UNL     1      20.521   0.107  53.958  1.00  0.00     0.075 C 
BRANCH  15  16
HETATM   16  C16 UNL     1      21.469  -0.720  54.718  1.00  0.00     0.117 A 
HETATM   17  O3  UNL     1      21.098  -1.916  54.861  1.00  0.00    -0.194 OA
HETATM   18  O4  UNL     1      22.394  -1.456  55.439  1.00  0.00     0.000 OA
HETATM   19  H22 UNL     1      23.385  -1.172  55.433  1.00  0.00     0.000 HD
ENDBRANCH  15  16
ENDBRANCH  14  15
ENDBRANCH  13  14
ENDBRANCH   7   8
BRANCH   5  20
HETATM   20  N1  UNL     1      26.233   3.409  51.180  1.00  0.00     0.092 N 
HETATM   21  H10 UNL     1      25.900   4.220  50.645  1.00  0.00     0.314 HD
HETATM   22  H11 UNL     1      26.883   2.768  50.711  1.00  0.00     0.314 HD
ENDBRANCH   5  20
BRANCH   1  23
HETATM   23  C2  UNL     1      26.506   0.554  52.338  1.00  0.00     0.265 C 
HETATM   24  O2  UNL     1      26.837  -0.432  51.672  1.00  0.00    -0.265 OA
BRANCH  23  25
HETATM   25  O1  UNL     1      27.764   0.435  52.922  1.00  0.00    -0.326 OA
HETATM   26  C1  UNL     1      28.560   1.526  53.287  1.00  0.00     0.213 C 
ENDBRANCH  23  25
ENDBRANCH   1  23
TORSDOF 7
ENDMDL
MODEL 8
REMARK VINA RESULT:      -6.5      4.187      6.070
REMARK  7 active torsions:
REMARK  status: ('A' for Active; 'I' for Inactive)
REMARK    1  A    between atoms: O1_2  and  C2_3 
REMARK    2  A    between atoms: C2_3  and  C3_5 
REMARK    3  A    between atoms: C7_9  and  N1_10 
REMARK    4  A    between atoms: C9_12  and  C10_13 
REMARK    5  A    between atoms: C13_17  and  C14_18 
REMARK    6  A    between atoms: C14_18  and  C15_19 
REMARK    7  A    between atoms: C15_19  and  C16_20 
ROOT
HETATM    1  C3  UNL     1      24.363   4.651  48.992  1.00  0.00     0.128 C 
HETATM    2  C4  UNL     1      24.151   3.143  49.131  1.00  0.00     0.026 C 
HETATM    3  C5  UNL     1      25.357   2.690  49.881  1.00  0.00     0.021 C 
HETATM    4  C6  UNL     1      26.379   3.810  49.635  1.00  0.00     0.055 C 
HETATM    5  C7  UNL     1      25.383   4.892  50.048  1.00  0.00     0.186 C 
HETATM    6  C8  UNL     1      24.970   4.317  51.380  1.00  0.00     0.021 C 
HETATM    7  C9  UNL     1      25.111   2.973  51.331  1.00  0.00    -0.045 C 
ENDROOT
BRANCH   7   8
HETATM    8  C10 UNL     1      25.008   2.154  52.552  1.00  0.00     0.075 A 
HETATM    9  C11 UNL     1      23.640   1.605  52.887  1.00  0.00     0.049 C 
HETATM   10  N2  UNL     1      25.521   2.817  53.760  1.00  0.00    -0.382 N 
HETATM   11  C12 UNL     1      26.579   1.909  53.896  1.00  0.00     0.090 A 
HETATM   12  H16 UNL     1      25.233   3.646  54.324  1.00  0.00     0.160 HD
HETATM   13  C13 UNL     1      26.151   1.275  52.804  1.00  0.00    -0.033 A 
BRANCH  13  14
HETATM   14  C14 UNL     1      26.514   0.119  51.977  1.00  0.00     0.045 C 
BRANCH  14  15
HETATM   15  C15 UNL     1      26.086  -1.177  52.670  1.00  0.00     0.075 C 
BRANCH  15  16
HETATM   16  C16 UNL     1      27.168  -2.173  52.707  1.00  0.00     0.117 A 
HETATM   17  O3  UNL     1      28.127  -1.853  53.459  1.00  0.00    -0.194 OA
HETATM   18  O4  UNL     1      28.156  -3.140  52.707  1.00  0.00     0.000 OA
HETATM   19  H22 UNL     1      27.910  -4.119  52.496  1.00  0.00     0.000 HD
ENDBRANCH  15  16
ENDBRANCH  14  15
ENDBRANCH  13  14
ENDBRANCH   7   8
BRANCH   5  20
HETATM   20  N1  UNL     1      25.949   6.187  50.107  1.00  0.00     0.092 N 
HETATM   21  H10 UNL     1      26.502   6.395  50.947  1.00  0.00     0.314 HD
HETATM   22  H11 UNL     1      25.234   6.871  49.832  1.00  0.00     0.314 HD
ENDBRANCH   5  20
BRANCH   1  23
HETATM   23  C2  UNL     1      23.136   5.414  49.081  1.00  0.00     0.265 C 
HETATM   24  O2  UNL     1      21.925   5.657  49.105  1.00  0.00    -0.265 OA
BRANCH  23  25
HETATM   25  O1  UNL     1      23.293   6.786  49.257  1.00  0.00    -0.326 OA
HETATM   26  C1  UNL     1      22.945   7.740  48.293  1.00  0.00     0.213 C 
ENDBRANCH  23  25
ENDBRANCH   1  23
TORSDOF 7
ENDMDL
MODEL 9
REMARK VINA RESULT:      -6.4      3.236      4.976
REMARK  7 active torsions:
REMARK  status: ('A' for Active; 'I' for Inactive)
REMARK    1  A    between atoms: O1_2  and  C2_3 
REMARK    2  A    between atoms: C2_3  and  C3_5 
REMARK    3  A    between atoms: C7_9  and  N1_10 
REMARK    4  A    between atoms: C9_12  and  C10_13 
REMARK    5  A    between atoms: C13_17  and  C14_18 
REMARK    6  A    between atoms: C14_18  and  C15_19 
REMARK    7  A    between atoms: C15_19  and  C16_20 
ROOT
HETATM    1  C3  UNL     1      23.095   1.286  53.022  1.00  0.00     0.128 C 
HETATM    2  C4  UNL     1      22.804   2.736  52.634  1.00  0.00     0.026 C 
HETATM    3  C5  UNL     1      24.149   3.376  52.645  1.00  0.00     0.021 C 
HETATM    4  C6  UNL     1      24.987   2.444  53.533  1.00  0.00     0.055 C 
HETATM    5  C7  UNL     1      24.555   1.207  52.748  1.00  0.00     0.186 C 
HETATM    6  C8  UNL     1      24.901   1.692  51.362  1.00  0.00     0.021 C 
HETATM    7  C9  UNL     1      24.811   3.041  51.343  1.00  0.00    -0.045 C 
ENDROOT
BRANCH   7   8
HETATM    8  C10 UNL     1      25.313   3.819  50.197  1.00  0.00     0.075 A 
HETATM    9  C11 UNL     1      26.552   3.292  49.509  1.00  0.00     0.049 C 
HETATM   10  N2  UNL     1      25.550   5.239  50.497  1.00  0.00    -0.382 N 
HETATM   11  C12 UNL     1      24.527   5.665  49.640  1.00  0.00     0.090 A 
HETATM   12  H16 UNL     1      26.214   5.762  51.108  1.00  0.00     0.160 HD
HETATM   13  C13 UNL     1      24.275   4.391  49.337  1.00  0.00    -0.033 A 
BRANCH  13  14
HETATM   14  C14 UNL     1      23.363   3.610  48.494  1.00  0.00     0.045 C 
BRANCH  14  15
HETATM   15  C15 UNL     1      21.959   3.609  49.101  1.00  0.00     0.075 C 
BRANCH  15  16
HETATM   16  C16 UNL     1      21.298   2.302  48.976  1.00  0.00     0.117 A 
HETATM   17  O3  UNL     1      21.959   1.460  48.311  1.00  0.00    -0.194 OA
HETATM   18  O4  UNL     1      20.634   1.091  48.887  1.00  0.00     0.000 OA
HETATM   19  H22 UNL     1      19.963   0.825  49.623  1.00  0.00     0.000 HD
ENDBRANCH  15  16
ENDBRANCH  14  15
ENDBRANCH  13  14
ENDBRANCH   7   8
BRANCH   5  20
HETATM   20  N1  UNL     1      25.219   0.024  53.148  1.00  0.00     0.092 N 
HETATM   21  H10 UNL     1      25.197  -0.751  52.474  1.00  0.00     0.314 HD
HETATM   22  H11 UNL     1      24.957  -0.187  54.118  1.00  0.00     0.314 HD
ENDBRANCH   5  20
BRANCH   1  23
HETATM   23  C2  UNL     1      22.249   0.327  52.341  1.00  0.00     0.265 C 
HETATM   24  O2  UNL     1      21.438  -0.123  51.526  1.00  0.00    -0.265 OA
BRANCH  23  25
HETATM   25  O1  UNL     1      22.293  -0.972  52.837  1.00  0.00    -0.326 OA
HETATM   26  C1  UNL     1      21.873  -1.330  54.124  1.00  0.00     0.213 C 
ENDBRANCH  23  25
ENDBRANCH   1  23
TORSDOF 7
ENDMDL
