MODEL 1
REMARK VINA RESULT:      -9.6      0.000      0.000
REMARK  6 active torsions:
REMARK  status: ('A' for Active; 'I' for Inactive)
REMARK    1  A    between atoms: C3_4  and  C5_6 
REMARK    2  A    between atoms: C5_6  and  N3_21 
REMARK    3  A    between atoms: C6_7  and  C7_8 
REMARK    4  A    between atoms: C7_8  and  N2_9 
REMARK       I    between atoms: N2_9  and  C8_10 
REMARK    5  A    between atoms: C8_10  and  C9_12 
REMARK    6  A    between atoms: N3_21  and  C18_22 
ROOT
HETATM    1  C5  UNL     1      23.069   3.710  49.592  1.00  0.00     0.064 C 
HETATM    2  C6  UNL     1      24.287   3.463  50.090  1.00  0.00     0.021 C 
ENDROOT
BRANCH   1   3
HETATM    3  C3  UNL     1      22.671   5.090  49.202  1.00  0.00     0.224 A 
HETATM    4  N1  UNL     1      22.189   5.911  50.275  1.00  0.00     0.104 N 
HETATM    5  C1  UNL     1      21.977   5.356  51.582  1.00  0.00     0.311 C 
HETATM    6  C2  UNL     1      21.253   5.479  49.211  1.00  0.00     0.321 A 
HETATM    7  C4  UNL     1      23.490   5.689  48.081  1.00  0.00     0.058 C 
ENDBRANCH   1   3
BRANCH   1   8
HETATM    8  N3  UNL     1      22.278   2.544  49.541  1.00  0.00    -0.189 N 
HETATM    9  H20 UNL     1      22.173   2.002  48.630  1.00  0.00     0.184 HD
BRANCH   8  10
HETATM   10  C18 UNL     1      21.463   1.687  50.284  1.00  0.00     0.727 A 
HETATM   11  N4  UNL     1      20.179   1.514  49.898  1.00  0.00    -0.075 NA
HETATM   12  C19 UNL     1      19.332   0.695  50.578  1.00  0.00     0.139 A 
HETATM   13  C20 UNL     1      19.874   0.062  51.677  1.00  0.00     0.053 A 
HETATM   14  C21 UNL     1      21.162   0.201  52.108  1.00  0.00     0.089 A 
HETATM   15  C22 UNL     1      21.750  -0.444  53.250  1.00  0.00     0.011 A 
HETATM   16  N6  UNL     1      21.911   1.029  51.369  1.00  0.00    -0.062 NA
HETATM   17  C23 UNL     1      23.090  -0.166  53.530  1.00  0.00     0.017 A 
HETATM   18  C26 UNL     1      21.148  -1.309  54.111  1.00  0.00     0.130 A 
HETATM   19  C24 UNL     1      23.763  -0.724  54.601  1.00  0.00     0.020 A 
HETATM   20  C25 UNL     1      23.089  -1.595  55.435  1.00  0.00     0.116 A 
HETATM   21  N5  UNL     1      21.797  -1.855  55.155  1.00  0.00    -0.272 NA
ENDBRANCH   8  10
ENDBRANCH   1   8
BRANCH   2  22
HETATM   22  C7  UNL     1      25.522   4.204  50.425  1.00  0.00     0.152 C 
BRANCH  22  23
HETATM   23  N2  UNL     1      26.568   3.329  50.953  1.00  0.00    -0.354 N 
HETATM   24  C8  UNL     1      26.337   2.657  52.182  1.00  0.00     0.248 C 
HETATM   25  O1  UNL     1      25.260   2.826  52.774  1.00  0.00    -0.268 OA
HETATM   26  H12 UNL     1      27.471   3.205  50.428  1.00  0.00     0.163 HD
BRANCH  24  27
HETATM   27  C9  UNL     1      27.371   1.788  52.713  1.00  0.00     0.022 C 
HETATM   28  C10 UNL     1      28.552   2.086  53.247  1.00  0.00     0.014 C 
HETATM   29  C11 UNL     1      29.261   0.849  53.634  1.00  0.00     0.009 C 
HETATM   30  C12 UNL     1      28.513  -0.233  53.346  1.00  0.00    -0.046 C 
HETATM   31  C13 UNL     1      28.810  -1.639  53.521  1.00  0.00     0.008 C 
HETATM   32  C17 UNL     1      27.286   0.374  52.870  1.00  0.00     0.080 C 
HETATM   33  C14 UNL     1      27.927  -2.393  52.839  1.00  0.00     0.000 C 
HETATM   34  C15 UNL     1      26.801  -1.807  52.098  1.00  0.00    -0.003 C 
HETATM   35  C16 UNL     1      26.471  -0.505  52.059  1.00  0.00    -0.012 C 
ENDBRANCH  24  27
ENDBRANCH  22  23
ENDBRANCH   2  22
TORSDOF 6
ENDMDL
MODEL 2
REMARK VINA RESULT:      -9.5      2.603      6.017
REMARK  6 active torsions:
REMARK  status: ('A' for Active; 'I' for Inactive)
REMARK    1  A    between atoms: C3_4  and  C5_6 
REMARK    2  A    between atoms: C5_6  and  N3_21 
REMARK    3  A    between atoms: C6_7  and  C7_8 
REMARK    4  A    between atoms: C7_8  and  N2_9 
REMARK       I    between atoms: N2_9  and  C8_10 
REMARK    5  A    between atoms: C8_10  and  C9_12 
REMARK    6  A    between atoms: N3_21  and  C18_22 
ROOT
HETATM    1  C5  UNL     1      22.288   3.190  51.133  1.00  0.00     0.064 C 
HETATM    2  C6  UNL     1      22.276   4.507  51.376  1.00  0.00     0.021 C 
ENDROOT
BRANCH   1   3
HETATM    3  C3  UNL     1      22.115   2.670  49.749  1.00  0.00     0.224 A 
HETATM    4  N1  UNL     1      20.769   2.692  49.253  1.00  0.00     0.104 N 
HETATM    5  C1  UNL     1      19.679   3.052  50.115  1.00  0.00     0.311 C 
HETATM    6  C2  UNL     1      21.427   1.392  49.522  1.00  0.00     0.321 A 
HETATM    7  C4  UNL     1      23.282   2.940  48.825  1.00  0.00     0.058 C 
ENDBRANCH   1   3
BRANCH   1   8
HETATM    8  N3  UNL     1      22.439   2.439  52.316  1.00  0.00    -0.189 N 
HETATM    9  H20 UNL     1      21.794   2.605  53.147  1.00  0.00     0.184 HD
BRANCH   8  10
HETATM   10  C18 UNL     1      23.181   1.435  52.941  1.00  0.00     0.727 A 
HETATM   11  N4  UNL     1      22.546   0.308  53.338  1.00  0.00    -0.075 NA
HETATM   12  C19 UNL     1      23.209  -0.708  53.954  1.00  0.00     0.139 A 
HETATM   13  C20 UNL     1      24.560  -0.506  54.141  1.00  0.00     0.053 A 
HETATM   14  C21 UNL     1      25.249   0.610  53.761  1.00  0.00     0.089 A 
HETATM   15  C22 UNL     1      26.654   0.846  53.947  1.00  0.00     0.011 A 
HETATM   16  N6  UNL     1      24.504   1.549  53.164  1.00  0.00    -0.062 NA
HETATM   17  C23 UNL     1      27.171   2.061  53.489  1.00  0.00     0.017 A 
HETATM   18  C26 UNL     1      27.561   0.015  54.529  1.00  0.00     0.130 A 
HETATM   19  C24 UNL     1      28.506   2.401  53.615  1.00  0.00     0.020 A 
HETATM   20  C25 UNL     1      29.371   1.508  54.217  1.00  0.00     0.116 A 
HETATM   21  N5  UNL     1      28.860   0.341  54.654  1.00  0.00    -0.272 NA
ENDBRANCH   8  10
ENDBRANCH   1   8
BRANCH   2  22
HETATM   22  C7  UNL     1      22.127   5.773  50.630  1.00  0.00     0.152 C 
BRANCH  22  23
HETATM   23  N2  UNL     1      23.404   6.270  50.119  1.00  0.00    -0.354 N 
HETATM   24  C8  UNL     1      23.541   6.483  48.721  1.00  0.00     0.248 C 
HETATM   25  O1  UNL     1      22.581   6.245  47.973  1.00  0.00    -0.268 OA
HETATM   26  H12 UNL     1      24.201   6.463  50.778  1.00  0.00     0.163 HD
BRANCH  24  27
HETATM   27  C9  UNL     1      24.806   6.974  48.206  1.00  0.00     0.022 C 
HETATM   28  C10 UNL     1      25.070   8.023  47.434  1.00  0.00     0.014 C 
HETATM   29  C11 UNL     1      26.521   8.105  47.165  1.00  0.00     0.009 C 
HETATM   30  C12 UNL     1      27.172   7.100  47.782  1.00  0.00    -0.046 C 
HETATM   31  C13 UNL     1      28.580   6.767  47.778  1.00  0.00     0.008 C 
HETATM   32  C17 UNL     1      26.099   6.462  48.521  1.00  0.00     0.080 C 
HETATM   33  C14 UNL     1      28.771   5.530  48.274  1.00  0.00     0.000 C 
HETATM   34  C15 UNL     1      27.665   4.713  48.793  1.00  0.00    -0.003 C 
HETATM   35  C16 UNL     1      26.382   5.096  48.906  1.00  0.00    -0.012 C 
ENDBRANCH  24  27
ENDBRANCH  22  23
ENDBRANCH   2  22
TORSDOF 6
ENDMDL
MODEL 3
REMARK VINA RESULT:      -9.3      4.746      6.030
REMARK  6 active torsions:
REMARK  status: ('A' for Active; 'I' for Inactive)
REMARK    1  A    between atoms: C3_4  and  C5_6 
REMARK    2  A    between atoms: C5_6  and  N3_21 
REMARK    3  A    between atoms: C6_7  and  C7_8 
REMARK    4  A    between atoms: C7_8  and  N2_9 
REMARK       I    between atoms: N2_9  and  C8_10 
REMARK    5  A    between atoms: C8_10  and  C9_12 
REMARK    6  A    between atoms: N3_21  and  C18_22 
ROOT
HETATM    1  C5  UNL     1      25.535   5.069  49.290  1.00  0.00     0.064 C 
HETATM    2  C6  UNL     1      26.794   5.225  48.860  1.00  0.00     0.021 C 
ENDROOT
BRANCH   1   3
HETATM    3  C3  UNL     1      24.648   6.248  49.491  1.00  0.00     0.224 A 
HETATM    4  N1  UNL     1      23.351   6.145  48.887  1.00  0.00     0.104 N 
HETATM    5  C1  UNL     1      23.029   5.037  48.032  1.00  0.00     0.311 C 
HETATM    6  C2  UNL     1      24.326   7.129  48.359  1.00  0.00     0.321 A 
HETATM    7  C4  UNL     1      24.828   6.952  50.817  1.00  0.00     0.058 C 
ENDBRANCH   1   3
BRANCH   1   8
HETATM    8  N3  UNL     1      25.229   3.716  49.538  1.00  0.00    -0.189 N 
HETATM    9  H20 UNL     1      25.208   3.012  48.740  1.00  0.00     0.184 HD
BRANCH   8  10
HETATM   10  C18 UNL     1      24.897   2.786  50.526  1.00  0.00     0.727 A 
HETATM   11  N4  UNL     1      23.616   2.363  50.616  1.00  0.00    -0.075 NA
HETATM   12  C19 UNL     1      23.225   1.460  51.556  1.00  0.00     0.139 A 
HETATM   13  C20 UNL     1      24.221   1.014  52.399  1.00  0.00     0.053 A 
HETATM   14  C21 UNL     1      25.527   1.407  52.351  1.00  0.00     0.089 A 
HETATM   15  C22 UNL     1      26.582   0.961  53.219  1.00  0.00     0.011 A 
HETATM   16  N6  UNL     1      25.807   2.298  51.390  1.00  0.00    -0.062 NA
HETATM   17  C23 UNL     1      27.858   1.490  53.009  1.00  0.00     0.017 A 
HETATM   18  C26 UNL     1      26.488   0.070  54.242  1.00  0.00     0.130 A 
HETATM   19  C24 UNL     1      28.951   1.138  53.781  1.00  0.00     0.020 A 
HETATM   20  C25 UNL     1      28.782   0.226  54.805  1.00  0.00     0.116 A 
HETATM   21  N5  UNL     1      27.546  -0.276  54.997  1.00  0.00    -0.272 NA
ENDBRANCH   8  10
ENDBRANCH   1   8
BRANCH   2  22
HETATM   22  C7  UNL     1      27.708   6.319  48.473  1.00  0.00     0.152 C 
BRANCH  22  23
HETATM   23  N2  UNL     1      29.109   5.991  48.735  1.00  0.00    -0.354 N 
HETATM   24  C8  UNL     1      30.100   6.470  47.838  1.00  0.00     0.248 C 
HETATM   25  O1  UNL     1      29.756   7.152  46.861  1.00  0.00    -0.268 OA
HETATM   26  H12 UNL     1      29.370   5.410  49.573  1.00  0.00     0.163 HD
BRANCH  24  27
HETATM   27  C9  UNL     1      31.492   6.146  48.090  1.00  0.00     0.022 C 
HETATM   28  C10 UNL     1      32.457   6.875  48.642  1.00  0.00     0.014 C 
HETATM   29  C11 UNL     1      33.720   6.109  48.670  1.00  0.00     0.009 C 
HETATM   30  C12 UNL     1      33.541   4.885  48.137  1.00  0.00    -0.046 C 
HETATM   31  C13 UNL     1      34.494   3.815  47.931  1.00  0.00     0.008 C 
HETATM   32  C17 UNL     1      32.115   4.882  47.877  1.00  0.00     0.080 C 
HETATM   33  C14 UNL     1      33.980   2.882  47.108  1.00  0.00     0.000 C 
HETATM   34  C15 UNL     1      32.610   2.967  46.583  1.00  0.00    -0.003 C 
HETATM   35  C16 UNL     1      31.699   3.905  46.894  1.00  0.00    -0.012 C 
ENDBRANCH  24  27
ENDBRANCH  22  23
ENDBRANCH   2  22
TORSDOF 6
ENDMDL
MODEL 4
REMARK VINA RESULT:      -9.2      4.502      5.794
REMARK  6 active torsions:
REMARK  status: ('A' for Active; 'I' for Inactive)
REMARK    1  A    between atoms: C3_4  and  C5_6 
REMARK    2  A    between atoms: C5_6  and  N3_21 
REMARK    3  A    between atoms: C6_7  and  C7_8 
REMARK    4  A    between atoms: C7_8  and  N2_9 
REMARK       I    between atoms: N2_9  and  C8_10 
REMARK    5  A    between atoms: C8_10  and  C9_12 
REMARK    6  A    between atoms: N3_21  and  C18_22 
ROOT
HETATM    1  C5  UNL     1      25.545   4.066  49.804  1.00  0.00     0.064 C 
HETATM    2  C6  UNL     1      26.753   4.302  49.277  1.00  0.00     0.021 C 
ENDROOT
BRANCH   1   3
HETATM    3  C3  UNL     1      24.489   5.115  49.789  1.00  0.00     0.224 A 
HETATM    4  N1  UNL     1      23.219   4.694  49.272  1.00  0.00     0.104 N 
HETATM    5  C1  UNL     1      23.064   3.395  48.681  1.00  0.00     0.311 C 
HETATM    6  C2  UNL     1      24.027   5.677  48.512  1.00  0.00     0.321 A 
HETATM    7  C4  UNL     1      24.568   6.103  50.930  1.00  0.00     0.058 C 
ENDBRANCH   1   3
BRANCH   1   8
HETATM    8  N3  UNL     1      25.461   2.775  50.365  1.00  0.00    -0.189 N 
HETATM    9  H20 UNL     1      25.177   1.943  49.765  1.00  0.00     0.184 HD
BRANCH   8  10
HETATM   10  C18 UNL     1      25.616   2.030  51.537  1.00  0.00     0.727 A 
HETATM   11  N4  UNL     1      26.822   2.022  52.148  1.00  0.00    -0.075 NA
HETATM   12  C19 UNL     1      27.040   1.317  53.291  1.00  0.00     0.139 A 
HETATM   13  C20 UNL     1      25.953   0.619  53.772  1.00  0.00     0.053 A 
HETATM   14  C21 UNL     1      24.716   0.592  53.195  1.00  0.00     0.089 A 
HETATM   15  C22 UNL     1      23.570  -0.130  53.675  1.00  0.00     0.011 A 
HETATM   16  N6  UNL     1      24.608   1.320  52.076  1.00  0.00    -0.062 NA
HETATM   17  C23 UNL     1      22.389  -0.031  52.934  1.00  0.00     0.017 A 
HETATM   18  C26 UNL     1      23.492  -0.915  54.783  1.00  0.00     0.130 A 
HETATM   19  C24 UNL     1      21.222  -0.681  53.295  1.00  0.00     0.020 A 
HETATM   20  C25 UNL     1      21.216  -1.463  54.433  1.00  0.00     0.116 A 
HETATM   21  N5  UNL     1      22.361  -1.550  55.138  1.00  0.00    -0.272 NA
ENDBRANCH   8  10
ENDBRANCH   1   8
BRANCH   2  22
HETATM   22  C7  UNL     1      27.475   5.401  48.602  1.00  0.00     0.152 C 
BRANCH  22  23
HETATM   23  N2  UNL     1      28.921   5.327  48.813  1.00  0.00    -0.354 N 
HETATM   24  C8  UNL     1      29.770   6.114  47.992  1.00  0.00     0.248 C 
HETATM   25  O1  UNL     1      29.269   6.841  47.121  1.00  0.00    -0.268 OA
HETATM   26  H12 UNL     1      29.316   4.701  49.561  1.00  0.00     0.163 HD
BRANCH  24  27
HETATM   27  C9  UNL     1      31.205   6.045  48.194  1.00  0.00     0.022 C 
HETATM   28  C10 UNL     1      32.046   6.941  48.700  1.00  0.00     0.014 C 
HETATM   29  C11 UNL     1      33.424   6.409  48.688  1.00  0.00     0.009 C 
HETATM   30  C12 UNL     1      33.445   5.164  48.175  1.00  0.00    -0.046 C 
HETATM   31  C13 UNL     1      34.563   4.275  47.944  1.00  0.00     0.008 C 
HETATM   32  C17 UNL     1      32.033   4.906  47.971  1.00  0.00     0.080 C 
HETATM   33  C14 UNL     1      34.192   3.252  47.151  1.00  0.00     0.000 C 
HETATM   34  C15 UNL     1      32.811   3.085  46.679  1.00  0.00    -0.003 C 
HETATM   35  C16 UNL     1      31.760   3.854  47.015  1.00  0.00    -0.012 C 
ENDBRANCH  24  27
ENDBRANCH  22  23
ENDBRANCH   2  22
TORSDOF 6
ENDMDL
MODEL 5
REMARK VINA RESULT:      -9.2      2.451      5.408
REMARK  6 active torsions:
REMARK  status: ('A' for Active; 'I' for Inactive)
REMARK    1  A    between atoms: C3_4  and  C5_6 
REMARK    2  A    between atoms: C5_6  and  N3_21 
REMARK    3  A    between atoms: C6_7  and  C7_8 
REMARK    4  A    between atoms: C7_8  and  N2_9 
REMARK       I    between atoms: N2_9  and  C8_10 
REMARK    5  A    between atoms: C8_10  and  C9_12 
REMARK    6  A    between atoms: N3_21  and  C18_22 
ROOT
HETATM    1  C5  UNL     1      20.391   2.653  51.213  1.00  0.00     0.064 C 
HETATM    2  C6  UNL     1      21.189   3.723  51.322  1.00  0.00     0.021 C 
ENDROOT
BRANCH   1   3
HETATM    3  C3  UNL     1      19.571   2.437  49.989  1.00  0.00     0.224 A 
HETATM    4  N1  UNL     1      18.331   3.155  49.952  1.00  0.00     0.104 N 
HETATM    5  C1  UNL     1      17.879   3.895  51.096  1.00  0.00     0.311 C 
HETATM    6  C2  UNL     1      18.315   1.678  50.068  1.00  0.00     0.321 A 
HETATM    7  C4  UNL     1      20.373   2.215  48.726  1.00  0.00     0.058 C 
ENDBRANCH   1   3
BRANCH   1   8
HETATM    8  N3  UNL     1      20.424   1.854  52.373  1.00  0.00    -0.189 N 
HETATM    9  H20 UNL     1      19.607   1.857  53.055  1.00  0.00     0.184 HD
BRANCH   8  10
HETATM   10  C18 UNL     1      21.183   0.936  53.103  1.00  0.00     0.727 A 
HETATM   11  N4  UNL     1      20.561   0.163  54.022  1.00  0.00    -0.075 NA
HETATM   12  C19 UNL     1      21.242  -0.750  54.768  1.00  0.00     0.139 A 
HETATM   13  C20 UNL     1      22.596  -0.827  54.519  1.00  0.00     0.053 A 
HETATM   14  C21 UNL     1      23.271  -0.072  53.604  1.00  0.00     0.089 A 
HETATM   15  C22 UNL     1      24.681  -0.130  53.329  1.00  0.00     0.011 A 
HETATM   16  N6  UNL     1      22.510   0.795  52.924  1.00  0.00    -0.062 NA
HETATM   17  C23 UNL     1      25.184   0.734  52.352  1.00  0.00     0.017 A 
HETATM   18  C26 UNL     1      25.604  -0.939  53.915  1.00  0.00     0.130 A 
HETATM   19  C24 UNL     1      26.522   0.770  52.003  1.00  0.00     0.020 A 
HETATM   20  C25 UNL     1      27.404  -0.080  52.640  1.00  0.00     0.116 A 
HETATM   21  N5  UNL     1      26.906  -0.908  53.579  1.00  0.00    -0.272 NA
ENDBRANCH   8  10
ENDBRANCH   1   8
BRANCH   2  22
HETATM   22  C7  UNL     1      21.571   4.910  50.529  1.00  0.00     0.152 C 
BRANCH  22  23
HETATM   23  N2  UNL     1      22.857   4.737  49.854  1.00  0.00    -0.354 N 
HETATM   24  C8  UNL     1      24.038   5.151  50.524  1.00  0.00     0.248 C 
HETATM   25  O1  UNL     1      23.952   5.646  51.658  1.00  0.00    -0.268 OA
HETATM   26  H12 UNL     1      22.898   4.313  48.892  1.00  0.00     0.163 HD
BRANCH  24  27
HETATM   27  C9  UNL     1      25.318   4.984  49.861  1.00  0.00     0.022 C 
HETATM   28  C10 UNL     1      26.049   3.891  49.668  1.00  0.00     0.014 C 
HETATM   29  C11 UNL     1      27.292   4.232  48.944  1.00  0.00     0.009 C 
HETATM   30  C12 UNL     1      27.334   5.551  48.675  1.00  0.00    -0.046 C 
HETATM   31  C13 UNL     1      28.360   6.331  48.017  1.00  0.00     0.008 C 
HETATM   32  C17 UNL     1      26.040   5.993  49.158  1.00  0.00     0.080 C 
HETATM   33  C14 UNL     1      28.147   7.646  48.212  1.00  0.00     0.000 C 
HETATM   34  C15 UNL     1      26.978   8.151  48.943  1.00  0.00    -0.003 C 
HETATM   35  C16 UNL     1      25.969   7.412  49.434  1.00  0.00    -0.012 C 
ENDBRANCH  24  27
ENDBRANCH  22  23
ENDBRANCH   2  22
TORSDOF 6
ENDMDL
MODEL 6
REMARK VINA RESULT:      -9.1      3.692      6.065
REMARK  6 active torsions:
REMARK  status: ('A' for Active; 'I' for Inactive)
REMARK    1  A    between atoms: C3_4  and  C5_6 
REMARK    2  A    between atoms: C5_6  and  N3_21 
REMARK    3  A    between atoms: C6_7  and  C7_8 
REMARK    4  A    between atoms: C7_8  and  N2_9 
REMARK       I    between atoms: N2_9  and  C8_10 
REMARK    5  A    between atoms: C8_10  and  C9_12 
REMARK    6  A    between atoms: N3_21  and  C18_22 
ROOT
HETATM    1  C5  UNL     1      23.081   4.561  50.910  1.00  0.00     0.064 C 
HETATM    2  C6  UNL     1      23.948   5.503  51.303  1.00  0.00     0.021 C 
ENDROOT
BRANCH   1   3
HETATM    3  C3  UNL     1      22.463   4.613  49.557  1.00  0.00     0.224 A 
HETATM    4  N1  UNL     1      21.410   5.575  49.405  1.00  0.00     0.104 N 
HETATM    5  C1  UNL     1      20.916   6.304  50.539  1.00  0.00     0.311 C 
HETATM    6  C2  UNL     1      21.090   4.129  49.355  1.00  0.00     0.321 A 
HETATM    7  C4  UNL     1      23.415   4.325  48.418  1.00  0.00     0.058 C 
ENDBRANCH   1   3
BRANCH   1   8
HETATM    8  N3  UNL     1      22.842   3.612  51.924  1.00  0.00    -0.189 N 
HETATM    9  H20 UNL     1      22.052   3.755  52.623  1.00  0.00     0.184 HD
BRANCH   8  10
HETATM   10  C18 UNL     1      23.266   2.399  52.472  1.00  0.00     0.727 A 
HETATM   11  N4  UNL     1      22.358   1.412  52.649  1.00  0.00    -0.075 NA
HETATM   12  C19 UNL     1      22.704   0.208  53.178  1.00  0.00     0.139 A 
HETATM   13  C20 UNL     1      24.033   0.070  53.518  1.00  0.00     0.053 A 
HETATM   14  C21 UNL     1      24.989   1.032  53.362  1.00  0.00     0.089 A 
HETATM   15  C22 UNL     1      26.378   0.915  53.711  1.00  0.00     0.011 A 
HETATM   16  N6  UNL     1      24.545   2.179  52.832  1.00  0.00    -0.062 NA
HETATM   17  C23 UNL     1      27.199   2.021  53.476  1.00  0.00     0.017 A 
HETATM   18  C26 UNL     1      27.004  -0.163  54.256  1.00  0.00     0.130 A 
HETATM   19  C24 UNL     1      28.550   2.028  53.772  1.00  0.00     0.020 A 
HETATM   20  C25 UNL     1      29.120   0.897  54.324  1.00  0.00     0.116 A 
HETATM   21  N5  UNL     1      28.318  -0.162  54.547  1.00  0.00    -0.272 NA
ENDBRANCH   8  10
ENDBRANCH   1   8
BRANCH   2  22
HETATM   22  C7  UNL     1      24.570   6.733  50.770  1.00  0.00     0.152 C 
BRANCH  22  23
HETATM   23  N2  UNL     1      25.965   6.527  50.384  1.00  0.00    -0.354 N 
HETATM   24  C8  UNL     1      26.330   6.714  49.024  1.00  0.00     0.248 C 
HETATM   25  O1  UNL     1      25.462   7.046  48.203  1.00  0.00    -0.268 OA
HETATM   26  H12 UNL     1      26.679   6.247  51.104  1.00  0.00     0.163 HD
BRANCH  24  27
HETATM   27  C9  UNL     1      27.712   6.510  48.633  1.00  0.00     0.022 C 
HETATM   28  C10 UNL     1      28.356   5.395  48.304  1.00  0.00     0.014 C 
HETATM   29  C11 UNL     1      29.768   5.697  47.990  1.00  0.00     0.009 C 
HETATM   30  C12 UNL     1      30.008   7.016  48.116  1.00  0.00    -0.046 C 
HETATM   31  C13 UNL     1      31.239   7.756  47.940  1.00  0.00     0.008 C 
HETATM   32  C17 UNL     1      28.685   7.529  48.413  1.00  0.00     0.080 C 
HETATM   33  C14 UNL     1      31.116   8.998  48.445  1.00  0.00     0.000 C 
HETATM   34  C15 UNL     1      29.856   9.491  49.018  1.00  0.00    -0.003 C 
HETATM   35  C16 UNL     1      28.688   8.828  49.052  1.00  0.00    -0.012 C 
ENDBRANCH  24  27
ENDBRANCH  22  23
ENDBRANCH   2  22
TORSDOF 6
ENDMDL
MODEL 7
REMARK VINA RESULT:      -9.1      4.785      8.555
REMARK  6 active torsions:
REMARK  status: ('A' for Active; 'I' for Inactive)
REMARK    1  A    between atoms: C3_4  and  C5_6 
REMARK    2  A    between atoms: C5_6  and  N3_21 
REMARK    3  A    between atoms: C6_7  and  C7_8 
REMARK    4  A    between atoms: C7_8  and  N2_9 
REMARK       I    between atoms: N2_9  and  C8_10 
REMARK    5  A    between atoms: C8_10  and  C9_12 
REMARK    6  A    between atoms: N3_21  and  C18_22 
ROOT
HETATM    1  C5  UNL     1      26.984   6.688  48.573  1.00  0.00     0.064 C 
HETATM    2  C6  UNL     1      26.867   5.518  49.214  1.00  0.00     0.021 C 
ENDROOT
BRANCH   1   3
HETATM    3  C3  UNL     1      25.827   7.618  48.467  1.00  0.00     0.224 A 
HETATM    4  N1  UNL     1      25.891   8.769  49.320  1.00  0.00     0.104 N 
HETATM    5  C1  UNL     1      26.934   8.898  50.298  1.00  0.00     0.311 C 
HETATM    6  C2  UNL     1      24.867   7.728  49.575  1.00  0.00     0.321 A 
HETATM    7  C4  UNL     1      25.221   7.714  47.085  1.00  0.00     0.058 C 
ENDBRANCH   1   3
BRANCH   1   8
HETATM    8  N3  UNL     1      28.272   6.858  48.025  1.00  0.00    -0.189 N 
HETATM    9  H20 UNL     1      28.427   6.782  46.975  1.00  0.00     0.184 HD
BRANCH   8  10
HETATM   10  C18 UNL     1      29.612   7.119  48.324  1.00  0.00     0.727 A 
HETATM   11  N4  UNL     1      29.948   8.346  48.783  1.00  0.00    -0.075 NA
HETATM   12  C19 UNL     1      31.234   8.666  49.091  1.00  0.00     0.139 A 
HETATM   13  C20 UNL     1      32.157   7.659  48.902  1.00  0.00     0.053 A 
HETATM   14  C21 UNL     1      31.871   6.406  48.443  1.00  0.00     0.089 A 
HETATM   15  C22 UNL     1      32.814   5.342  48.234  1.00  0.00     0.011 A 
HETATM   16  N6  UNL     1      30.577   6.194  48.169  1.00  0.00    -0.062 NA
HETATM   17  C23 UNL     1      32.320   4.127  47.750  1.00  0.00     0.017 A 
HETATM   18  C26 UNL     1      34.156   5.372  48.453  1.00  0.00     0.130 A 
HETATM   19  C24 UNL     1      33.129   3.032  47.509  1.00  0.00     0.020 A 
HETATM   20  C25 UNL     1      34.485   3.135  47.754  1.00  0.00     0.116 A 
HETATM   21  N5  UNL     1      34.949   4.311  48.220  1.00  0.00    -0.272 NA
ENDBRANCH   8  10
ENDBRANCH   1   8
BRANCH   2  22
HETATM   22  C7  UNL     1      25.836   4.748  49.941  1.00  0.00     0.152 C 
BRANCH  22  23
HETATM   23  N2  UNL     1      26.370   3.517  50.523  1.00  0.00    -0.354 N 
HETATM   24  C8  UNL     1      25.554   2.780  51.422  1.00  0.00     0.248 C 
HETATM   25  O1  UNL     1      24.417   3.194  51.690  1.00  0.00    -0.268 OA
HETATM   26  H12 UNL     1      27.339   3.191  50.277  1.00  0.00     0.163 HD
BRANCH  24  27
HETATM   27  C9  UNL     1      26.078   1.559  52.005  1.00  0.00     0.022 C 
HETATM   28  C10 UNL     1      25.558   0.336  52.049  1.00  0.00     0.014 C 
HETATM   29  C11 UNL     1      26.469  -0.578  52.769  1.00  0.00     0.009 C 
HETATM   30  C12 UNL     1      27.573   0.078  53.173  1.00  0.00    -0.046 C 
HETATM   31  C13 UNL     1      28.711  -0.400  53.929  1.00  0.00     0.008 C 
HETATM   32  C17 UNL     1      27.366   1.391  52.593  1.00  0.00     0.080 C 
HETATM   33  C14 UNL     1      29.448   0.636  54.371  1.00  0.00     0.000 C 
HETATM   34  C15 UNL     1      29.123   2.030  54.038  1.00  0.00    -0.003 C 
HETATM   35  C16 UNL     1      28.135   2.441  53.225  1.00  0.00    -0.012 C 
ENDBRANCH  24  27
ENDBRANCH  22  23
ENDBRANCH   2  22
TORSDOF 6
ENDMDL
MODEL 8
REMARK VINA RESULT:      -8.8      4.929      8.622
REMARK  6 active torsions:
REMARK  status: ('A' for Active; 'I' for Inactive)
REMARK    1  A    between atoms: C3_4  and  C5_6 
REMARK    2  A    between atoms: C5_6  and  N3_21 
REMARK    3  A    between atoms: C6_7  and  C7_8 
REMARK    4  A    between atoms: C7_8  and  N2_9 
REMARK       I    between atoms: N2_9  and  C8_10 
REMARK    5  A    between atoms: C8_10  and  C9_12 
REMARK    6  A    between atoms: N3_21  and  C18_22 
ROOT
HETATM    1  C5  UNL     1      26.992   7.118  48.374  1.00  0.00     0.064 C 
HETATM    2  C6  UNL     1      26.681   5.965  48.981  1.00  0.00     0.021 C 
ENDROOT
BRANCH   1   3
HETATM    3  C3  UNL     1      25.984   8.205  48.243  1.00  0.00     0.224 A 
HETATM    4  N1  UNL     1      26.147   9.301  49.153  1.00  0.00     0.104 N 
HETATM    5  C1  UNL     1      27.130   9.243  50.199  1.00  0.00     0.311 C 
HETATM    6  C2  UNL     1      24.975   8.405  49.293  1.00  0.00     0.321 A 
HETATM    7  C4  UNL     1      25.492   8.441  46.832  1.00  0.00     0.058 C 
ENDBRANCH   1   3
BRANCH   1   8
HETATM    8  N3  UNL     1      28.314   7.113  47.885  1.00  0.00    -0.189 N 
HETATM    9  H20 UNL     1      28.503   7.125  46.838  1.00  0.00     0.184 HD
BRANCH   8  10
HETATM   10  C18 UNL     1      29.663   7.095  48.248  1.00  0.00     0.727 A 
HETATM   11  N4  UNL     1      30.158   8.132  48.961  1.00  0.00    -0.075 NA
HETATM   12  C19 UNL     1      31.462   8.178  49.345  1.00  0.00     0.139 A 
HETATM   13  C20 UNL     1      32.232   7.101  48.958  1.00  0.00     0.053 A 
HETATM   14  C21 UNL     1      31.783   6.031  48.240  1.00  0.00     0.089 A 
HETATM   15  C22 UNL     1      32.565   4.900  47.822  1.00  0.00     0.011 A 
HETATM   16  N6  UNL     1      30.485   6.084  47.913  1.00  0.00    -0.062 NA
HETATM   17  C23 UNL     1      31.917   3.904  47.086  1.00  0.00     0.017 A 
HETATM   18  C26 UNL     1      33.885   4.676  48.059  1.00  0.00     0.130 A 
HETATM   19  C24 UNL     1      32.564   2.771  46.628  1.00  0.00     0.020 A 
HETATM   20  C25 UNL     1      33.908   2.609  46.905  1.00  0.00     0.116 A 
HETATM   21  N5  UNL     1      34.521   3.576  47.615  1.00  0.00    -0.272 NA
ENDBRANCH   8  10
ENDBRANCH   1   8
BRANCH   2  22
HETATM   22  C7  UNL     1      25.520   5.337  49.645  1.00  0.00     0.152 C 
BRANCH  22  23
HETATM   23  N2  UNL     1      25.913   4.245  50.535  1.00  0.00    -0.354 N 
HETATM   24  C8  UNL     1      25.115   3.071  50.565  1.00  0.00     0.248 C 
HETATM   25  O1  UNL     1      24.111   3.000  49.841  1.00  0.00    -0.268 OA
HETATM   26  H12 UNL     1      26.771   4.334  51.138  1.00  0.00     0.163 HD
BRANCH  24  27
HETATM   27  C9  UNL     1      25.498   1.983  51.447  1.00  0.00     0.022 C 
HETATM   28  C10 UNL     1      26.680   1.405  51.634  1.00  0.00     0.014 C 
HETATM   29  C11 UNL     1      26.564   0.325  52.636  1.00  0.00     0.009 C 
HETATM   30  C12 UNL     1      25.298   0.232  53.085  1.00  0.00    -0.046 C 
HETATM   31  C13 UNL     1      24.717  -0.689  54.039  1.00  0.00     0.008 C 
HETATM   32  C17 UNL     1      24.663   1.349  52.413  1.00  0.00     0.080 C 
HETATM   33  C14 UNL     1      23.373  -0.634  53.985  1.00  0.00     0.000 C 
HETATM   34  C15 UNL     1      22.660   0.304  53.107  1.00  0.00    -0.003 C 
HETATM   35  C16 UNL     1      23.223   1.241  52.325  1.00  0.00    -0.012 C 
ENDBRANCH  24  27
ENDBRANCH  22  23
ENDBRANCH   2  22
TORSDOF 6
ENDMDL
MODEL 9
REMARK VINA RESULT:      -8.8      4.245      8.015
REMARK  6 active torsions:
REMARK  status: ('A' for Active; 'I' for Inactive)
REMARK    1  A    between atoms: C3_4  and  C5_6 
REMARK    2  A    between atoms: C5_6  and  N3_21 
REMARK    3  A    between atoms: C6_7  and  C7_8 
REMARK    4  A    between atoms: C7_8  and  N2_9 
REMARK       I    between atoms: N2_9  and  C8_10 
REMARK    5  A    between atoms: C8_10  and  C9_12 
REMARK    6  A    between atoms: N3_21  and  C18_22 
ROOT
HETATM    1  C5  UNL     1      25.542   6.342  49.111  1.00  0.00     0.064 C 
HETATM    2  C6  UNL     1      25.460   5.017  49.290  1.00  0.00     0.021 C 
ENDROOT
BRANCH   1   3
HETATM    3  C3  UNL     1      24.452   7.242  49.577  1.00  0.00     0.224 A 
HETATM    4  N1  UNL     1      23.358   7.397  48.663  1.00  0.00     0.104 N 
HETATM    5  C1  UNL     1      23.421   6.833  47.344  1.00  0.00     0.311 C 
HETATM    6  C2  UNL     1      24.250   8.549  48.935  1.00  0.00     0.321 A 
HETATM    7  C4  UNL     1      24.212   7.220  51.070  1.00  0.00     0.058 C 
ENDBRANCH   1   3
BRANCH   1   8
HETATM    8  N3  UNL     1      26.720   6.706  48.428  1.00  0.00    -0.189 N 
HETATM    9  H20 UNL     1      26.789   6.592  47.372  1.00  0.00     0.184 HD
BRANCH   8  10
HETATM   10  C18 UNL     1      28.009   7.223  48.576  1.00  0.00     0.727 A 
HETATM   11  N4  UNL     1      28.154   8.489  49.031  1.00  0.00    -0.075 NA
HETATM   12  C19 UNL     1      29.381   9.053  49.196  1.00  0.00     0.139 A 
HETATM   13  C20 UNL     1      30.452   8.249  48.869  1.00  0.00     0.053 A 
HETATM   14  C21 UNL     1      30.362   6.968  48.406  1.00  0.00     0.089 A 
HETATM   15  C22 UNL     1      31.461   6.111  48.055  1.00  0.00     0.011 A 
HETATM   16  N6  UNL     1      29.110   6.508  48.280  1.00  0.00    -0.062 NA
HETATM   17  C23 UNL     1      31.157   4.828  47.593  1.00  0.00     0.017 A 
HETATM   18  C26 UNL     1      32.788   6.404  48.116  1.00  0.00     0.130 A 
HETATM   19  C24 UNL     1      32.129   3.916  47.224  1.00  0.00     0.020 A 
HETATM   20  C25 UNL     1      33.458   4.281  47.311  1.00  0.00     0.116 A 
HETATM   21  N5  UNL     1      33.738   5.521  47.757  1.00  0.00    -0.272 NA
ENDBRANCH   8  10
ENDBRANCH   1   8
BRANCH   2  22
HETATM   22  C7  UNL     1      24.525   4.030  49.868  1.00  0.00     0.152 C 
BRANCH  22  23
HETATM   23  N2  UNL     1      25.213   2.841  50.371  1.00  0.00    -0.354 N 
HETATM   24  C8  UNL     1      25.021   2.466  51.727  1.00  0.00     0.248 C 
HETATM   25  O1  UNL     1      24.279   3.150  52.447  1.00  0.00    -0.268 OA
HETATM   26  H12 UNL     1      25.837   2.281  49.735  1.00  0.00     0.163 HD
BRANCH  24  27
HETATM   27  C9  UNL     1      25.702   1.289  52.233  1.00  0.00     0.022 C 
HETATM   28  C10 UNL     1      25.271   0.039  52.368  1.00  0.00     0.014 C 
HETATM   29  C11 UNL     1      26.336  -0.807  52.947  1.00  0.00     0.009 C 
HETATM   30  C12 UNL     1      27.447  -0.079  53.169  1.00  0.00    -0.046 C 
HETATM   31  C13 UNL     1      28.715  -0.474  53.744  1.00  0.00     0.008 C 
HETATM   32  C17 UNL     1      27.073   1.208  52.616  1.00  0.00     0.080 C 
HETATM   33  C14 UNL     1      29.446   0.612  54.057  1.00  0.00     0.000 C 
HETATM   34  C15 UNL     1      28.990   1.977  53.765  1.00  0.00    -0.003 C 
HETATM   35  C16 UNL     1      27.865   2.314  53.111  1.00  0.00    -0.012 C 
ENDBRANCH  24  27
ENDBRANCH  22  23
ENDBRANCH   2  22
TORSDOF 6
ENDMDL
