MODEL 1
REMARK VINA RESULT:      -8.4      0.000      0.000
REMARK  7 active torsions:
REMARK  status: ('A' for Active; 'I' for Inactive)
REMARK    1  A    between atoms: C7_7  and  O1_8 
REMARK    2  A    between atoms: O1_8  and  C8_9 
REMARK    3  A    between atoms: N1_14  and  C13_15 
REMARK    4  A    between atoms: C13_15  and  C14_16 
REMARK    5  A    between atoms: C14_16  and  C16_18 
REMARK    6  A    between atoms: C16_18  and  N2_19 
REMARK    7  A    between atoms: C25_30  and  N5_31 
ROOT
HETATM    1  C8  UNL     1      25.476   2.461  51.904  1.00  0.00     0.050 C 
HETATM    2  C9  UNL     1      26.436   2.778  51.056  1.00  0.00     0.011 C 
HETATM    3  C10 UNL     1      26.812   3.363  49.722  1.00  0.00     0.073 C 
HETATM    4  C11 UNL     1      25.561   4.141  49.339  1.00  0.00     0.006 C 
HETATM    5  C12 UNL     1      24.283   3.737  49.123  1.00  0.00     0.103 C 
HETATM    6  N1  UNL     1      23.229   4.337  49.967  1.00  0.00    -0.341 N 
HETATM    7  C20 UNL     1      23.349   4.591  51.398  1.00  0.00     0.127 C 
HETATM    8  C21 UNL     1      23.463   4.752  52.720  1.00  0.00     0.024 C 
HETATM    9  C22 UNL     1      23.586   3.353  53.296  1.00  0.00     0.037 C 
HETATM   10  C23 UNL     1      24.044   2.379  52.269  1.00  0.00     0.068 C 
HETATM   11  N3  UNL     1      23.506   6.068  51.305  1.00  0.00    -0.225 NA
HETATM   12  C24 UNL     1      24.404   6.864  50.680  1.00  0.00     0.237 C 
HETATM   13  N4  UNL     1      25.476   6.729  49.655  1.00  0.00    -0.224 NA
HETATM   14  C25 UNL     1      26.051   5.572  49.296  1.00  0.00     0.130 C 
ENDROOT
BRANCH   1  15
HETATM   15  O1  UNL     1      26.047   1.892  53.084  1.00  0.00    -0.315 OA
BRANCH  15  16
HETATM   16  C7  UNL     1      26.775   0.714  53.045  1.00  0.00     0.081 A 
HETATM   17  C2  UNL     1      28.115   0.780  53.410  1.00  0.00    -0.028 A 
HETATM   18  C1  UNL     1      28.771   2.047  53.827  1.00  0.00     0.051 C 
HETATM   19  C3  UNL     1      28.841  -0.419  53.368  1.00  0.00     0.009 A 
HETATM   20  C4  UNL     1      28.339  -1.639  53.000  1.00  0.00     0.001 A 
HETATM   21  C5  UNL     1      27.013  -1.675  52.645  1.00  0.00     0.003 A 
HETATM   22  C6  UNL     1      26.251  -0.534  52.667  1.00  0.00     0.038 A 
ENDBRANCH  15  16
ENDBRANCH   1  15
BRANCH  14  23
HETATM   23  N5  UNL     1      27.393   5.600  48.768  1.00  0.00    -0.383 N 
HETATM   24  H32 UNL     1      27.671   6.621  48.885  1.00  0.00     0.157 HD
HETATM   25  H33 UNL     1      27.844   4.737  48.396  1.00  0.00     0.157 HD
ENDBRANCH  14  23
BRANCH   6  26
HETATM   26  C13 UNL     1      22.073   4.680  49.187  1.00  0.00     0.136 C 
BRANCH  26  27
HETATM   27  C14 UNL     1      20.755   4.171  49.620  1.00  0.00     0.028 C 
HETATM   28  C15 UNL     1      19.759   5.291  49.702  1.00  0.00     0.013 C 
BRANCH  27  29
HETATM   29  C16 UNL     1      20.316   3.113  48.606  1.00  0.00     0.278 C 
BRANCH  29  30
HETATM   30  N2  UNL     1      20.186   1.800  49.197  1.00  0.00     0.088 N 
HETATM   31  C17 UNL     1      20.545   1.885  50.622  1.00  0.00     0.274 C 
HETATM   32  C18 UNL     1      21.297   0.590  50.463  1.00  0.00     0.060 C 
HETATM   33  C19 UNL     1      21.452   1.061  49.030  1.00  0.00     0.274 C 
ENDBRANCH  29  30
ENDBRANCH  27  29
ENDBRANCH  26  27
ENDBRANCH   6  26
TORSDOF 7
ENDMDL
MODEL 2
REMARK VINA RESULT:      -8.3      1.182      1.643
REMARK  7 active torsions:
REMARK  status: ('A' for Active; 'I' for Inactive)
REMARK    1  A    between atoms: C7_7  and  O1_8 
REMARK    2  A    between atoms: O1_8  and  C8_9 
REMARK    3  A    between atoms: N1_14  and  C13_15 
REMARK    4  A    between atoms: C13_15  and  C14_16 
REMARK    5  A    between atoms: C14_16  and  C16_18 
REMARK    6  A    between atoms: C16_18  and  N2_19 
REMARK    7  A    between atoms: C25_30  and  N5_31 
ROOT
HETATM    1  C8  UNL     1      25.395   1.806  51.852  1.00  0.00     0.050 C 
HETATM    2  C9  UNL     1      26.323   2.524  51.248  1.00  0.00     0.011 C 
HETATM    3  C10 UNL     1      26.690   3.421  50.098  1.00  0.00     0.073 C 
HETATM    4  C11 UNL     1      25.328   3.880  49.593  1.00  0.00     0.006 C 
HETATM    5  C12 UNL     1      24.277   3.185  49.089  1.00  0.00     0.103 C 
HETATM    6  N1  UNL     1      22.982   3.308  49.791  1.00  0.00    -0.341 N 
HETATM    7  C20 UNL     1      22.816   3.322  51.240  1.00  0.00     0.127 C 
HETATM    8  C21 UNL     1      22.688   3.265  52.570  1.00  0.00     0.024 C 
HETATM    9  C22 UNL     1      23.147   1.874  52.969  1.00  0.00     0.037 C 
HETATM   10  C23 UNL     1      24.019   1.267  51.927  1.00  0.00     0.068 C 
HETATM   11  N3  UNL     1      22.531   4.776  51.374  1.00  0.00    -0.225 NA
HETATM   12  C24 UNL     1      23.225   5.889  51.039  1.00  0.00     0.237 C 
HETATM   13  N4  UNL     1      24.420   6.242  50.225  1.00  0.00    -0.224 NA
HETATM   14  C25 UNL     1      25.363   5.374  49.831  1.00  0.00     0.130 C 
ENDROOT
BRANCH   1  15
HETATM   15  O1  UNL     1      25.938   1.213  53.032  1.00  0.00    -0.315 OA
BRANCH  15  16
HETATM   16  C7  UNL     1      26.764   0.102  52.974  1.00  0.00     0.081 A 
HETATM   17  C2  UNL     1      28.083   0.265  53.387  1.00  0.00    -0.028 A 
HETATM   18  C1  UNL     1      28.616   1.565  53.873  1.00  0.00     0.051 C 
HETATM   19  C3  UNL     1      28.908  -0.867  53.325  1.00  0.00     0.009 A 
HETATM   20  C4  UNL     1      28.523  -2.109  52.895  1.00  0.00     0.001 A 
HETATM   21  C5  UNL     1      27.217  -2.241  52.495  1.00  0.00     0.003 A 
HETATM   22  C6  UNL     1      26.360  -1.169  52.532  1.00  0.00     0.038 A 
ENDBRANCH  15  16
ENDBRANCH   1  15
BRANCH  14  23
HETATM   23  N5  UNL     1      26.694   5.866  49.573  1.00  0.00    -0.383 N 
HETATM   24  H32 UNL     1      27.149   5.829  50.535  1.00  0.00     0.157 HD
HETATM   25  H33 UNL     1      26.987   6.151  48.614  1.00  0.00     0.157 HD
ENDBRANCH  14  23
BRANCH   6  26
HETATM   26  C13 UNL     1      21.899   3.454  48.860  1.00  0.00     0.136 C 
BRANCH  26  27
HETATM   27  C14 UNL     1      20.972   2.318  48.675  1.00  0.00     0.028 C 
HETATM   28  C15 UNL     1      21.729   1.022  48.624  1.00  0.00     0.013 C 
BRANCH  27  29
HETATM   29  C16 UNL     1      19.986   2.336  49.845  1.00  0.00     0.278 C 
BRANCH  29  30
HETATM   30  N2  UNL     1      19.846   1.039  50.470  1.00  0.00     0.088 N 
HETATM   31  C17 UNL     1      18.436   0.624  50.388  1.00  0.00     0.274 C 
HETATM   32  C18 UNL     1      18.545   0.132  51.806  1.00  0.00     0.060 C 
HETATM   33  C19 UNL     1      19.601   1.216  51.914  1.00  0.00     0.274 C 
ENDBRANCH  29  30
ENDBRANCH  27  29
ENDBRANCH  26  27
ENDBRANCH   6  26
TORSDOF 7
ENDMDL
MODEL 3
REMARK VINA RESULT:      -8.1      1.603      4.723
REMARK  7 active torsions:
REMARK  status: ('A' for Active; 'I' for Inactive)
REMARK    1  A    between atoms: C7_7  and  O1_8 
REMARK    2  A    between atoms: O1_8  and  C8_9 
REMARK    3  A    between atoms: N1_14  and  C13_15 
REMARK    4  A    between atoms: C13_15  and  C14_16 
REMARK    5  A    between atoms: C14_16  and  C16_18 
REMARK    6  A    between atoms: C16_18  and  N2_19 
REMARK    7  A    between atoms: C25_30  and  N5_31 
ROOT
HETATM    1  C8  UNL     1      24.879   2.046  51.692  1.00  0.00     0.050 C 
HETATM    2  C9  UNL     1      24.051   1.297  52.395  1.00  0.00     0.011 C 
HETATM    3  C10 UNL     1      22.709   1.164  53.061  1.00  0.00     0.073 C 
HETATM    4  C11 UNL     1      21.903   2.273  52.398  1.00  0.00     0.006 C 
HETATM    5  C12 UNL     1      22.077   3.618  52.373  1.00  0.00     0.103 C 
HETATM    6  N1  UNL     1      22.230   4.260  51.050  1.00  0.00    -0.341 N 
HETATM    7  C20 UNL     1      23.013   3.717  49.946  1.00  0.00     0.127 C 
HETATM    8  C21 UNL     1      23.791   3.230  48.974  1.00  0.00     0.024 C 
HETATM    9  C22 UNL     1      25.207   3.266  49.522  1.00  0.00     0.037 C 
HETATM   10  C23 UNL     1      25.215   3.315  51.008  1.00  0.00     0.068 C 
HETATM   11  N3  UNL     1      21.864   3.273  49.112  1.00  0.00    -0.225 NA
HETATM   12  C24 UNL     1      20.837   2.420  49.333  1.00  0.00     0.237 C 
HETATM   13  N4  UNL     1      20.220   1.709  50.487  1.00  0.00    -0.224 NA
HETATM   14  C25 UNL     1      20.813   1.513  51.672  1.00  0.00     0.130 C 
ENDROOT
BRANCH   1  15
HETATM   15  O1  UNL     1      26.086   1.324  51.442  1.00  0.00    -0.315 OA
BRANCH  15  16
HETATM   16  C7  UNL     1      27.080   1.215  52.401  1.00  0.00     0.081 A 
HETATM   17  C2  UNL     1      27.376  -0.060  52.872  1.00  0.00    -0.028 A 
HETATM   18  C1  UNL     1      26.671  -1.276  52.389  1.00  0.00     0.051 C 
HETATM   19  C3  UNL     1      28.385  -0.156  53.841  1.00  0.00     0.009 A 
HETATM   20  C4  UNL     1      29.096   0.895  54.356  1.00  0.00     0.001 A 
HETATM   21  C5  UNL     1      28.784   2.141  53.872  1.00  0.00     0.003 A 
HETATM   22  C6  UNL     1      27.806   2.300  52.923  1.00  0.00     0.038 A 
ENDBRANCH  15  16
ENDBRANCH   1  15
BRANCH  14  23
HETATM   23  N5  UNL     1      20.408   0.382  52.472  1.00  0.00    -0.383 N 
HETATM   24  H32 UNL     1      21.134  -0.355  52.223  1.00  0.00     0.157 HD
HETATM   25  H33 UNL     1      19.576   0.436  53.097  1.00  0.00     0.157 HD
ENDBRANCH  14  23
BRANCH   6  26
HETATM   26  C13 UNL     1      21.472   5.476  50.973  1.00  0.00     0.136 C 
BRANCH  26  27
HETATM   27  C14 UNL     1      22.049   6.620  50.236  1.00  0.00     0.028 C 
HETATM   28  C15 UNL     1      21.103   7.785  50.247  1.00  0.00     0.013 C 
BRANCH  27  29
HETATM   29  C16 UNL     1      23.375   6.978  50.913  1.00  0.00     0.278 C 
BRANCH  29  30
HETATM   30  N2  UNL     1      24.315   7.586  49.997  1.00  0.00     0.088 N 
HETATM   31  C17 UNL     1      24.228   6.895  48.701  1.00  0.00     0.274 C 
HETATM   32  C18 UNL     1      25.731   6.942  48.627  1.00  0.00     0.060 C 
HETATM   33  C19 UNL     1      25.630   6.932  50.140  1.00  0.00     0.274 C 
ENDBRANCH  29  30
ENDBRANCH  27  29
ENDBRANCH  26  27
ENDBRANCH   6  26
TORSDOF 7
ENDMDL
MODEL 4
REMARK VINA RESULT:      -8.0      1.552      2.269
REMARK  7 active torsions:
REMARK  status: ('A' for Active; 'I' for Inactive)
REMARK    1  A    between atoms: C7_7  and  O1_8 
REMARK    2  A    between atoms: O1_8  and  C8_9 
REMARK    3  A    between atoms: N1_14  and  C13_15 
REMARK    4  A    between atoms: C13_15  and  C14_16 
REMARK    5  A    between atoms: C14_16  and  C16_18 
REMARK    6  A    between atoms: C16_18  and  N2_19 
REMARK    7  A    between atoms: C25_30  and  N5_31 
ROOT
HETATM    1  C8  UNL     1      25.656   2.217  51.902  1.00  0.00     0.050 C 
HETATM    2  C9  UNL     1      26.561   2.786  51.128  1.00  0.00     0.011 C 
HETATM    3  C10 UNL     1      26.865   3.501  49.839  1.00  0.00     0.073 C 
HETATM    4  C11 UNL     1      25.489   3.984  49.400  1.00  0.00     0.006 C 
HETATM    5  C12 UNL     1      24.356   3.306  49.088  1.00  0.00     0.103 C 
HETATM    6  N1  UNL     1      23.145   3.606  49.879  1.00  0.00    -0.341 N 
HETATM    7  C20 UNL     1      23.121   3.817  51.322  1.00  0.00     0.127 C 
HETATM    8  C21 UNL     1      23.119   3.941  52.654  1.00  0.00     0.024 C 
HETATM    9  C22 UNL     1      23.535   2.584  53.194  1.00  0.00     0.037 C 
HETATM   10  C23 UNL     1      24.265   1.789  52.170  1.00  0.00     0.068 C 
HETATM   11  N3  UNL     1      22.933   5.293  51.285  1.00  0.00    -0.225 NA
HETATM   12  C24 UNL     1      23.653   6.303  50.744  1.00  0.00     0.237 C 
HETATM   13  N4  UNL     1      24.783   6.465  49.787  1.00  0.00    -0.224 NA
HETATM   14  C25 UNL     1      25.632   5.491  49.432  1.00  0.00     0.130 C 
ENDROOT
BRANCH   1  15
HETATM   15  O1  UNL     1      26.276   1.744  53.098  1.00  0.00    -0.315 OA
BRANCH  15  16
HETATM   16  C7  UNL     1      27.110   0.638  53.098  1.00  0.00     0.081 A 
HETATM   17  C2  UNL     1      28.432   0.834  53.484  1.00  0.00    -0.028 A 
HETATM   18  C1  UNL     1      28.961   2.164  53.885  1.00  0.00     0.051 C 
HETATM   19  C3  UNL     1      29.264  -0.295  53.481  1.00  0.00     0.009 A 
HETATM   20  C4  UNL     1      28.884  -1.563  53.130  1.00  0.00     0.001 A 
HETATM   21  C5  UNL     1      27.574  -1.727  52.754  1.00  0.00     0.003 A 
HETATM   22  C6  UNL     1      26.710  -0.660  52.737  1.00  0.00     0.038 A 
ENDBRANCH  15  16
ENDBRANCH   1  15
BRANCH  14  23
HETATM   23  N5  UNL     1      26.958   5.853  48.994  1.00  0.00    -0.383 N 
HETATM   24  H32 UNL     1      26.782   6.722  48.405  1.00  0.00     0.157 HD
HETATM   25  H33 UNL     1      27.790   5.292  49.275  1.00  0.00     0.157 HD
ENDBRANCH  14  23
BRANCH   6  26
HETATM   26  C13 UNL     1      21.987   3.706  49.036  1.00  0.00     0.136 C 
BRANCH  26  27
HETATM   27  C14 UNL     1      21.699   2.598  48.102  1.00  0.00     0.028 C 
HETATM   28  C15 UNL     1      21.313   1.359  48.857  1.00  0.00     0.013 C 
BRANCH  27  29
HETATM   29  C16 UNL     1      20.567   3.058  47.181  1.00  0.00     0.278 C 
BRANCH  29  30
HETATM   30  N2  UNL     1      20.934   4.211  46.388  1.00  0.00     0.088 N 
HETATM   31  C17 UNL     1      19.898   4.430  45.366  1.00  0.00     0.274 C 
HETATM   32  C18 UNL     1      20.998   4.710  44.376  1.00  0.00     0.060 C 
HETATM   33  C19 UNL     1      21.796   3.781  45.271  1.00  0.00     0.274 C 
ENDBRANCH  29  30
ENDBRANCH  27  29
ENDBRANCH  26  27
ENDBRANCH   6  26
TORSDOF 7
ENDMDL
MODEL 5
REMARK VINA RESULT:      -7.8      1.644      3.226
REMARK  7 active torsions:
REMARK  status: ('A' for Active; 'I' for Inactive)
REMARK    1  A    between atoms: C7_7  and  O1_8 
REMARK    2  A    between atoms: O1_8  and  C8_9 
REMARK    3  A    between atoms: N1_14  and  C13_15 
REMARK    4  A    between atoms: C13_15  and  C14_16 
REMARK    5  A    between atoms: C14_16  and  C16_18 
REMARK    6  A    between atoms: C16_18  and  N2_19 
REMARK    7  A    between atoms: C25_30  and  N5_31 
ROOT
HETATM    1  C8  UNL     1      25.017   1.911  51.524  1.00  0.00     0.050 C 
HETATM    2  C9  UNL     1      26.078   2.352  50.875  1.00  0.00     0.011 C 
HETATM    3  C10 UNL     1      26.624   3.172  49.738  1.00  0.00     0.073 C 
HETATM    4  C11 UNL     1      25.439   4.057  49.373  1.00  0.00     0.006 C 
HETATM    5  C12 UNL     1      24.193   3.751  48.931  1.00  0.00     0.103 C 
HETATM    6  N1  UNL     1      23.050   4.213  49.747  1.00  0.00    -0.341 N 
HETATM    7  C20 UNL     1      22.996   4.177  51.204  1.00  0.00     0.127 C 
HETATM    8  C21 UNL     1      22.948   4.071  52.536  1.00  0.00     0.024 C 
HETATM    9  C22 UNL     1      22.982   2.582  52.832  1.00  0.00     0.037 C 
HETATM   10  C23 UNL     1      23.550   1.812  51.694  1.00  0.00     0.068 C 
HETATM   11  N3  UNL     1      23.183   5.637  51.426  1.00  0.00    -0.225 NA
HETATM   12  C24 UNL     1      24.162   6.506  51.082  1.00  0.00     0.237 C 
HETATM   13  N4  UNL     1      25.350   6.534  50.185  1.00  0.00    -0.224 NA
HETATM   14  C25 UNL     1      25.949   5.449  49.674  1.00  0.00     0.130 C 
ENDROOT
BRANCH   1  15
HETATM   15  O1  UNL     1      25.430   1.101  52.625  1.00  0.00    -0.315 OA
BRANCH  15  16
HETATM   16  C7  UNL     1      26.754   1.039  53.027  1.00  0.00     0.081 A 
HETATM   17  C2  UNL     1      27.384  -0.200  52.964  1.00  0.00    -0.028 A 
HETATM   18  C1  UNL     1      26.691  -1.427  52.492  1.00  0.00     0.051 C 
HETATM   19  C3  UNL     1      28.725  -0.248  53.373  1.00  0.00     0.009 A 
HETATM   20  C4  UNL     1      29.457   0.817  53.824  1.00  0.00     0.001 A 
HETATM   21  C5  UNL     1      28.811   2.027  53.875  1.00  0.00     0.003 A 
HETATM   22  C6  UNL     1      27.499   2.138  53.488  1.00  0.00     0.038 A 
ENDBRANCH  15  16
ENDBRANCH   1  15
BRANCH  14  23
HETATM   23  N5  UNL     1      27.347   5.530  49.324  1.00  0.00    -0.383 N 
HETATM   24  H32 UNL     1      27.824   5.061  50.152  1.00  0.00     0.157 HD
HETATM   25  H33 UNL     1      27.654   5.974  48.433  1.00  0.00     0.157 HD
ENDBRANCH  14  23
BRANCH   6  26
HETATM   26  C13 UNL     1      22.004   4.745  48.920  1.00  0.00     0.136 C 
BRANCH  26  27
HETATM   27  C14 UNL     1      22.145   4.640  47.453  1.00  0.00     0.028 C 
HETATM   28  C15 UNL     1      21.101   3.723  46.887  1.00  0.00     0.013 C 
BRANCH  27  29
HETATM   29  C16 UNL     1      22.011   6.052  46.878  1.00  0.00     0.278 C 
BRANCH  29  30
HETATM   30  N2  UNL     1      22.692   7.043  47.681  1.00  0.00     0.088 N 
HETATM   31  C17 UNL     1      22.260   8.382  47.247  1.00  0.00     0.274 C 
HETATM   32  C18 UNL     1      23.694   8.830  47.358  1.00  0.00     0.060 C 
HETATM   33  C19 UNL     1      23.987   7.373  47.056  1.00  0.00     0.274 C 
ENDBRANCH  29  30
ENDBRANCH  27  29
ENDBRANCH  26  27
ENDBRANCH   6  26
TORSDOF 7
ENDMDL
MODEL 6
REMARK VINA RESULT:      -7.6      1.289      2.472
REMARK  7 active torsions:
REMARK  status: ('A' for Active; 'I' for Inactive)
REMARK    1  A    between atoms: C7_7  and  O1_8 
REMARK    2  A    between atoms: O1_8  and  C8_9 
REMARK    3  A    between atoms: N1_14  and  C13_15 
REMARK    4  A    between atoms: C13_15  and  C14_16 
REMARK    5  A    between atoms: C14_16  and  C16_18 
REMARK    6  A    between atoms: C16_18  and  N2_19 
REMARK    7  A    between atoms: C25_30  and  N5_31 
ROOT
HETATM    1  C8  UNL     1      25.144   1.791  51.820  1.00  0.00     0.050 C 
HETATM    2  C9  UNL     1      26.119   2.516  51.305  1.00  0.00     0.011 C 
HETATM    3  C10 UNL     1      26.582   3.422  50.197  1.00  0.00     0.073 C 
HETATM    4  C11 UNL     1      25.268   3.880  49.578  1.00  0.00     0.006 C 
HETATM    5  C12 UNL     1      24.267   3.187  48.979  1.00  0.00     0.103 C 
HETATM    6  N1  UNL     1      22.916   3.301  49.566  1.00  0.00    -0.341 N 
HETATM    7  C20 UNL     1      22.624   3.305  50.995  1.00  0.00     0.127 C 
HETATM    8  C21 UNL     1      22.380   3.239  52.308  1.00  0.00     0.024 C 
HETATM    9  C22 UNL     1      22.806   1.846  52.736  1.00  0.00     0.037 C 
HETATM   10  C23 UNL     1      23.767   1.249  51.771  1.00  0.00     0.068 C 
HETATM   11  N3  UNL     1      22.323   4.757  51.113  1.00  0.00    -0.225 NA
HETATM   12  C24 UNL     1      23.040   5.874  50.847  1.00  0.00     0.237 C 
HETATM   13  N4  UNL     1      24.302   6.236  50.143  1.00  0.00    -0.224 NA
HETATM   14  C25 UNL     1      25.278   5.373  49.828  1.00  0.00     0.130 C 
ENDROOT
BRANCH   1  15
HETATM   15  O1  UNL     1      25.583   1.192  53.040  1.00  0.00    -0.315 OA
BRANCH  15  16
HETATM   16  C7  UNL     1      26.923   0.937  53.284  1.00  0.00     0.081 A 
HETATM   17  C2  UNL     1      27.382  -0.354  53.041  1.00  0.00    -0.028 A 
HETATM   18  C1  UNL     1      26.497  -1.439  52.541  1.00  0.00     0.051 C 
HETATM   19  C3  UNL     1      28.740  -0.598  53.291  1.00  0.00     0.009 A 
HETATM   20  C4  UNL     1      29.642   0.324  53.752  1.00  0.00     0.001 A 
HETATM   21  C5  UNL     1      29.162   1.589  53.982  1.00  0.00     0.003 A 
HETATM   22  C6  UNL     1      27.842   1.890  53.755  1.00  0.00     0.038 A 
ENDBRANCH  15  16
ENDBRANCH   1  15
BRANCH  14  23
HETATM   23  N5  UNL     1      26.625   5.871  49.691  1.00  0.00    -0.383 N 
HETATM   24  H32 UNL     1      27.070   5.604  50.621  1.00  0.00     0.157 HD
HETATM   25  H33 UNL     1      26.934   6.355  48.822  1.00  0.00     0.157 HD
ENDBRANCH  14  23
BRANCH   6  26
HETATM   26  C13 UNL     1      21.918   3.451  48.544  1.00  0.00     0.136 C 
BRANCH  26  27
HETATM   27  C14 UNL     1      21.048   2.297  48.236  1.00  0.00     0.028 C 
HETATM   28  C15 UNL     1      21.550   1.060  48.922  1.00  0.00     0.013 C 
BRANCH  27  29
HETATM   29  C16 UNL     1      19.634   2.652  48.702  1.00  0.00     0.278 C 
BRANCH  29  30
HETATM   30  N2  UNL     1      19.330   4.055  48.525  1.00  0.00     0.088 N 
HETATM   31  C17 UNL     1      18.256   4.427  49.460  1.00  0.00     0.274 C 
HETATM   32  C18 UNL     1      17.628   5.227  48.349  1.00  0.00     0.060 C 
HETATM   33  C19 UNL     1      18.315   4.205  47.464  1.00  0.00     0.274 C 
ENDBRANCH  29  30
ENDBRANCH  27  29
ENDBRANCH  26  27
ENDBRANCH   6  26
TORSDOF 7
ENDMDL
MODEL 7
REMARK VINA RESULT:      -7.2      2.057      5.237
REMARK  7 active torsions:
REMARK  status: ('A' for Active; 'I' for Inactive)
REMARK    1  A    between atoms: C7_7  and  O1_8 
REMARK    2  A    between atoms: O1_8  and  C8_9 
REMARK    3  A    between atoms: N1_14  and  C13_15 
REMARK    4  A    between atoms: C13_15  and  C14_16 
REMARK    5  A    between atoms: C14_16  and  C16_18 
REMARK    6  A    between atoms: C16_18  and  N2_19 
REMARK    7  A    between atoms: C25_30  and  N5_31 
ROOT
HETATM    1  C8  UNL     1      23.134   2.469  51.527  1.00  0.00     0.050 C 
HETATM    2  C9  UNL     1      21.973   2.300  52.131  1.00  0.00     0.011 C 
HETATM    3  C10 UNL     1      20.664   2.904  52.563  1.00  0.00     0.073 C 
HETATM    4  C11 UNL     1      20.571   4.146  51.687  1.00  0.00     0.006 C 
HETATM    5  C12 UNL     1      21.370   5.238  51.589  1.00  0.00     0.103 C 
HETATM    6  N1  UNL     1      21.964   5.530  50.268  1.00  0.00    -0.341 N 
HETATM    7  C20 UNL     1      22.515   4.529  49.361  1.00  0.00     0.127 C 
HETATM    8  C21 UNL     1      23.071   3.598  48.579  1.00  0.00     0.024 C 
HETATM    9  C22 UNL     1      24.257   3.059  49.361  1.00  0.00     0.037 C 
HETATM   10  C23 UNL     1      24.114   3.321  50.818  1.00  0.00     0.068 C 
HETATM   11  N3  UNL     1      21.399   4.547  48.377  1.00  0.00    -0.225 NA
HETATM   12  C24 UNL     1      20.071   4.307  48.481  1.00  0.00     0.237 C 
HETATM   13  N4  UNL     1      19.059   4.143  49.561  1.00  0.00    -0.224 NA
HETATM   14  C25 UNL     1      19.343   3.875  50.843  1.00  0.00     0.130 C 
ENDROOT
BRANCH   1  15
HETATM   15  O1  UNL     1      23.868   1.243  51.547  1.00  0.00    -0.315 OA
BRANCH  15  16
HETATM   16  C7  UNL     1      24.679   0.898  52.616  1.00  0.00     0.081 A 
HETATM   17  C2  UNL     1      24.268  -0.166  53.412  1.00  0.00    -0.028 A 
HETATM   18  C1  UNL     1      23.014  -0.921  53.155  1.00  0.00     0.051 C 
HETATM   19  C3  UNL     1      25.099  -0.506  54.489  1.00  0.00     0.009 A 
HETATM   20  C4  UNL     1      26.272   0.120  54.817  1.00  0.00     0.001 A 
HETATM   21  C5  UNL     1      26.653   1.165  54.014  1.00  0.00     0.003 A 
HETATM   22  C6  UNL     1      25.882   1.546  52.944  1.00  0.00     0.038 A 
ENDBRANCH  15  16
ENDBRANCH   1  15
BRANCH  14  23
HETATM   23  N5  UNL     1      18.356   3.193  51.644  1.00  0.00    -0.383 N 
HETATM   24  H32 UNL     1      18.827   3.132  52.597  1.00  0.00     0.157 HD
HETATM   25  H33 UNL     1      17.444   2.896  51.237  1.00  0.00     0.157 HD
ENDBRANCH  14  23
BRANCH   6  26
HETATM   26  C13 UNL     1      21.896   6.932  49.967  1.00  0.00     0.136 C 
BRANCH  26  27
HETATM   27  C14 UNL     1      23.117   7.608  49.481  1.00  0.00     0.028 C 
HETATM   28  C15 UNL     1      22.788   8.973  48.949  1.00  0.00     0.013 C 
BRANCH  27  29
HETATM   29  C16 UNL     1      24.092   7.694  50.658  1.00  0.00     0.278 C 
BRANCH  29  30
HETATM   30  N2  UNL     1      25.342   7.015  50.391  1.00  0.00     0.088 N 
HETATM   31  C17 UNL     1      26.357   8.018  50.033  1.00  0.00     0.274 C 
HETATM   32  C18 UNL     1      26.828   7.087  48.947  1.00  0.00     0.060 C 
HETATM   33  C19 UNL     1      25.387   6.615  48.972  1.00  0.00     0.274 C 
ENDBRANCH  29  30
ENDBRANCH  27  29
ENDBRANCH  26  27
ENDBRANCH   6  26
TORSDOF 7
ENDMDL
MODEL 8
REMARK VINA RESULT:      -6.9      1.329      2.107
REMARK  7 active torsions:
REMARK  status: ('A' for Active; 'I' for Inactive)
REMARK    1  A    between atoms: C7_7  and  O1_8 
REMARK    2  A    between atoms: O1_8  and  C8_9 
REMARK    3  A    between atoms: N1_14  and  C13_15 
REMARK    4  A    between atoms: C13_15  and  C14_16 
REMARK    5  A    between atoms: C14_16  and  C16_18 
REMARK    6  A    between atoms: C16_18  and  N2_19 
REMARK    7  A    between atoms: C25_30  and  N5_31 
ROOT
HETATM    1  C8  UNL     1      24.621   2.774  51.635  1.00  0.00     0.050 C 
HETATM    2  C9  UNL     1      25.733   3.206  51.071  1.00  0.00     0.011 C 
HETATM    3  C10 UNL     1      26.378   3.936  49.925  1.00  0.00     0.073 C 
HETATM    4  C11 UNL     1      25.210   4.713  49.333  1.00  0.00     0.006 C 
HETATM    5  C12 UNL     1      24.041   4.297  48.784  1.00  0.00     0.103 C 
HETATM    6  N1  UNL     1      22.789   4.776  49.407  1.00  0.00    -0.341 N 
HETATM    7  C20 UNL     1      22.560   4.883  50.844  1.00  0.00     0.127 C 
HETATM    8  C21 UNL     1      22.356   4.909  52.165  1.00  0.00     0.024 C 
HETATM    9  C22 UNL     1      22.416   3.462  52.619  1.00  0.00     0.037 C 
HETATM   10  C23 UNL     1      23.150   2.613  51.643  1.00  0.00     0.068 C 
HETATM   11  N3  UNL     1      22.657   6.366  50.930  1.00  0.00    -0.225 NA
HETATM   12  C24 UNL     1      23.633   7.248  50.612  1.00  0.00     0.237 C 
HETATM   13  N4  UNL     1      24.919   7.251  49.861  1.00  0.00    -0.224 NA
HETATM   14  C25 UNL     1      25.621   6.155  49.541  1.00  0.00     0.130 C 
ENDROOT
BRANCH   1  15
HETATM   15  O1  UNL     1      24.932   2.103  52.857  1.00  0.00    -0.315 OA
BRANCH  15  16
HETATM   16  C7  UNL     1      25.813   1.035  52.898  1.00  0.00     0.081 A 
HETATM   17  C2  UNL     1      25.271  -0.234  53.072  1.00  0.00    -0.028 A 
HETATM   18  C1  UNL     1      23.810  -0.469  53.213  1.00  0.00     0.051 C 
HETATM   19  C3  UNL     1      26.174  -1.307  53.110  1.00  0.00     0.009 A 
HETATM   20  C4  UNL     1      27.534  -1.205  52.991  1.00  0.00     0.001 A 
HETATM   21  C5  UNL     1      28.041   0.059  52.819  1.00  0.00     0.003 A 
HETATM   22  C6  UNL     1      27.208   1.149  52.773  1.00  0.00     0.038 A 
ENDBRANCH  15  16
ENDBRANCH   1  15
BRANCH  14  23
HETATM   23  N5  UNL     1      27.046   6.276  49.350  1.00  0.00    -0.383 N 
HETATM   24  H32 UNL     1      27.429   5.451  49.903  1.00  0.00     0.157 HD
HETATM   25  H33 UNL     1      27.448   7.047  48.776  1.00  0.00     0.157 HD
ENDBRANCH  14  23
BRANCH   6  26
HETATM   26  C13 UNL     1      21.830   5.164  48.412  1.00  0.00     0.136 C 
BRANCH  26  27
HETATM   27  C14 UNL     1      20.758   4.210  48.059  1.00  0.00     0.028 C 
HETATM   28  C15 UNL     1      21.250   2.797  48.172  1.00  0.00     0.013 C 
BRANCH  27  29
HETATM   29  C16 UNL     1      19.586   4.464  49.011  1.00  0.00     0.278 C 
BRANCH  29  30
HETATM   30  N2  UNL     1      19.344   3.349  49.900  1.00  0.00     0.088 N 
HETATM   31  C17 UNL     1      17.936   2.942  49.774  1.00  0.00     0.274 C 
HETATM   32  C18 UNL     1      17.894   2.791  51.272  1.00  0.00     0.060 C 
HETATM   33  C19 UNL     1      18.970   3.859  51.232  1.00  0.00     0.274 C 
ENDBRANCH  29  30
ENDBRANCH  27  29
ENDBRANCH  26  27
ENDBRANCH   6  26
TORSDOF 7
ENDMDL
MODEL 9
REMARK VINA RESULT:      -6.9      7.287      9.718
REMARK  7 active torsions:
REMARK  status: ('A' for Active; 'I' for Inactive)
REMARK    1  A    between atoms: C7_7  and  O1_8 
REMARK    2  A    between atoms: O1_8  and  C8_9 
REMARK    3  A    between atoms: N1_14  and  C13_15 
REMARK    4  A    between atoms: C13_15  and  C14_16 
REMARK    5  A    between atoms: C14_16  and  C16_18 
REMARK    6  A    between atoms: C16_18  and  N2_19 
REMARK    7  A    between atoms: C25_30  and  N5_31 
ROOT
HETATM    1  C8  UNL     1      33.168   7.980  47.815  1.00  0.00     0.050 C 
HETATM    2  C9  UNL     1      32.407   7.214  48.574  1.00  0.00     0.011 C 
HETATM    3  C10 UNL     1      31.123   7.058  49.341  1.00  0.00     0.073 C 
HETATM    4  C11 UNL     1      30.252   8.159  48.751  1.00  0.00     0.006 C 
HETATM    5  C12 UNL     1      30.405   9.507  48.723  1.00  0.00     0.103 C 
HETATM    6  N1  UNL     1      30.446  10.159  47.397  1.00  0.00    -0.341 N 
HETATM    7  C20 UNL     1      31.149   9.636  46.231  1.00  0.00     0.127 C 
HETATM    8  C21 UNL     1      31.856   9.166  45.198  1.00  0.00     0.024 C 
HETATM    9  C22 UNL     1      33.309   9.219  45.635  1.00  0.00     0.037 C 
HETATM   10  C23 UNL     1      33.432   9.259  47.117  1.00  0.00     0.068 C 
HETATM   11  N3  UNL     1      29.944   9.181  45.485  1.00  0.00    -0.225 NA
HETATM   12  C24 UNL     1      28.950   8.310  45.779  1.00  0.00     0.237 C 
HETATM   13  N4  UNL     1      28.434   7.584  46.972  1.00  0.00    -0.224 NA
HETATM   14  C25 UNL     1      29.120   7.388  48.106  1.00  0.00     0.130 C 
ENDROOT
BRANCH   1  15
HETATM   15  O1  UNL     1      34.361   7.278  47.467  1.00  0.00    -0.315 OA
BRANCH  15  16
HETATM   16  C7  UNL     1      34.339   5.943  47.097  1.00  0.00     0.081 A 
HETATM   17  C2  UNL     1      34.893   5.026  47.984  1.00  0.00    -0.028 A 
HETATM   18  C1  UNL     1      35.494   5.428  49.283  1.00  0.00     0.051 C 
HETATM   19  C3  UNL     1      34.863   3.677  47.598  1.00  0.00     0.009 A 
HETATM   20  C4  UNL     1      34.337   3.197  46.428  1.00  0.00     0.001 A 
HETATM   21  C5  UNL     1      33.797   4.125  45.573  1.00  0.00     0.003 A 
HETATM   22  C6  UNL     1      33.797   5.459  45.895  1.00  0.00     0.038 A 
ENDBRANCH  15  16
ENDBRANCH   1  15
BRANCH  14  23
HETATM   23  N5  UNL     1      28.794   6.247  48.926  1.00  0.00    -0.383 N 
HETATM   24  H32 UNL     1      28.218   6.678  49.710  1.00  0.00     0.157 HD
HETATM   25  H33 UNL     1      29.121   5.291  48.672  1.00  0.00     0.157 HD
ENDBRANCH  14  23
BRANCH   6  26
HETATM   26  C13 UNL     1      29.668  11.365  47.388  1.00  0.00     0.136 C 
BRANCH  26  27
HETATM   27  C14 UNL     1      28.576  11.505  48.374  1.00  0.00     0.028 C 
HETATM   28  C15 UNL     1      28.583  12.880  48.977  1.00  0.00     0.013 C 
BRANCH  27  29
HETATM   29  C16 UNL     1      27.260  11.230  47.643  1.00  0.00     0.278 C 
BRANCH  29  30
HETATM   30  N2  UNL     1      26.217  10.771  48.535  1.00  0.00     0.088 N 
HETATM   31  C17 UNL     1      26.788   9.777  49.457  1.00  0.00     0.274 C 
HETATM   32  C18 UNL     1      25.540   8.955  49.270  1.00  0.00     0.060 C 
HETATM   33  C19 UNL     1      25.508   9.636  47.915  1.00  0.00     0.274 C 
ENDBRANCH  29  30
ENDBRANCH  27  29
ENDBRANCH  26  27
ENDBRANCH   6  26
TORSDOF 7
ENDMDL
