MODEL 1
REMARK VINA RESULT:      -9.1      0.000      0.000
REMARK  4 active torsions:
REMARK  status: ('A' for Active; 'I' for Inactive)
REMARK    1  A    between atoms: C2_2  and  C3_3 
REMARK    2  A    between atoms: C4_4  and  C5_5 
REMARK       I    between atoms: C5_5  and  N1_7 
REMARK    3  A    between atoms: N1_7  and  C6_8 
REMARK    4  A    between atoms: C10_15  and  C11_16 
ROOT
HETATM    1  C6  UNL     1      24.420   3.189  51.649  1.00  0.00     0.148 A 
HETATM    2  N2  UNL     1      23.064   3.362  51.718  1.00  0.00    -0.239 NA
HETATM    3  C7  UNL     1      22.340   2.436  52.394  1.00  0.00     0.151 A 
HETATM    4  C8  UNL     1      22.890   1.337  53.012  1.00  0.00     0.089 A 
HETATM    5  N3  UNL     1      22.227   0.391  53.660  1.00  0.00    -0.240 NA
HETATM    6  C9  UNL     1      22.880  -0.656  54.203  1.00  0.00     0.234 A 
HETATM    7  N4  UNL     1      24.236  -0.768  54.103  1.00  0.00    -0.240 NA
HETATM    8  C10 UNL     1      24.971   0.185  53.444  1.00  0.00     0.082 A 
HETATM    9  C17 UNL     1      24.253   1.221  52.910  1.00  0.00     0.045 A 
HETATM   10  C18 UNL     1      25.021   2.115  52.245  1.00  0.00     0.071 A 
HETATM   11 BR1  UNL     1      26.871   2.068  51.926  1.00  0.00    -0.046 Br
ENDROOT
BRANCH   1  12
HETATM   12  N1  UNL     1      25.059   4.246  50.902  1.00  0.00    -0.307 N 
HETATM   13  C5  UNL     1      25.072   4.312  49.479  1.00  0.00     0.246 C 
HETATM   14  O1  UNL     1      24.414   3.260  49.171  1.00  0.00    -0.268 OA
HETATM   15  H6  UNL     1      25.432   4.822  51.712  1.00  0.00     0.170 HD
BRANCH  13  16
HETATM   16  C4  UNL     1      25.783   5.475  49.016  1.00  0.00     0.074 C 
HETATM   17  C3  UNL     1      26.868   6.059  48.610  1.00  0.00     0.005 C 
BRANCH  17  18
HETATM   18  C2  UNL     1      28.164   5.435  48.459  1.00  0.00    -0.010 C 
HETATM   19  C1  UNL     1      29.182   6.109  47.965  1.00  0.00     0.011 C 
ENDBRANCH  17  18
ENDBRANCH  13  16
ENDBRANCH   1  12
BRANCH   8  20
HETATM   20  C11 UNL     1      26.370  -0.181  53.511  1.00  0.00    -0.006 A 
HETATM   21  C12 UNL     1      27.219  -1.000  52.750  1.00  0.00     0.014 A 
HETATM   22  C13 UNL     1      28.523  -1.202  53.083  1.00  0.00     0.001 A 
HETATM   23  C14 UNL     1      29.075  -0.608  54.188  1.00  0.00     0.000 A 
HETATM   24  C15 UNL     1      28.309   0.197  54.966  1.00  0.00     0.001 A 
HETATM   25  C16 UNL     1      26.978   0.405  54.631  1.00  0.00     0.014 A 
ENDBRANCH   8  20
TORSDOF 4
ENDMDL
MODEL 2
REMARK VINA RESULT:      -8.8      3.359      5.880
REMARK  4 active torsions:
REMARK  status: ('A' for Active; 'I' for Inactive)
REMARK    1  A    between atoms: C2_2  and  C3_3 
REMARK    2  A    between atoms: C4_4  and  C5_5 
REMARK       I    between atoms: C5_5  and  N1_7 
REMARK    3  A    between atoms: N1_7  and  C6_8 
REMARK    4  A    between atoms: C10_15  and  C11_16 
ROOT
HETATM    1  C6  UNL     1      25.160  -0.457  54.291  1.00  0.00     0.148 A 
HETATM    2  N2  UNL     1      24.839  -1.318  55.306  1.00  0.00    -0.239 NA
HETATM    3  C7  UNL     1      23.529  -1.604  55.504  1.00  0.00     0.151 A 
HETATM    4  C8  UNL     1      22.508  -1.082  54.745  1.00  0.00     0.089 A 
HETATM    5  N3  UNL     1      21.214  -1.307  54.913  1.00  0.00    -0.240 NA
HETATM    6  C9  UNL     1      20.304  -0.711  54.117  1.00  0.00     0.234 A 
HETATM    7  N4  UNL     1      20.690   0.135  53.118  1.00  0.00    -0.240 NA
HETATM    8  C10 UNL     1      22.018   0.402  52.899  1.00  0.00     0.082 A 
HETATM    9  C17 UNL     1      22.893  -0.229  53.742  1.00  0.00     0.045 A 
HETATM   10  C18 UNL     1      24.186   0.093  53.505  1.00  0.00     0.071 A 
HETATM   11 BR1  UNL     1      24.886   1.302  52.249  1.00  0.00    -0.046 Br
ENDROOT
BRANCH   1  12
HETATM   12  N1  UNL     1      26.584  -0.244  54.198  1.00  0.00    -0.307 N 
HETATM   13  C5  UNL     1      27.454  -1.046  53.402  1.00  0.00     0.246 C 
HETATM   14  O1  UNL     1      26.631  -1.879  52.891  1.00  0.00    -0.268 OA
HETATM   15  H6  UNL     1      26.673   0.592  54.846  1.00  0.00     0.170 HD
BRANCH  13  16
HETATM   16  C4  UNL     1      28.818  -0.599  53.507  1.00  0.00     0.074 C 
HETATM   17  C3  UNL     1      29.700   0.307  53.796  1.00  0.00     0.005 C 
BRANCH  17  18
HETATM   18  C2  UNL     1      29.421   1.639  54.287  1.00  0.00    -0.010 C 
HETATM   19  C1  UNL     1      28.678   2.472  53.588  1.00  0.00     0.011 C 
ENDBRANCH  17  18
ENDBRANCH  13  16
ENDBRANCH   1  12
BRANCH   8  20
HETATM   20  C11 UNL     1      22.129   1.309  51.776  1.00  0.00    -0.006 A 
HETATM   21  C12 UNL     1      22.396   2.679  51.630  1.00  0.00     0.014 A 
HETATM   22  C13 UNL     1      22.393   3.293  50.415  1.00  0.00     0.001 A 
HETATM   23  C14 UNL     1      22.129   2.595  49.266  1.00  0.00     0.000 A 
HETATM   24  C15 UNL     1      21.864   1.267  49.338  1.00  0.00     0.001 A 
HETATM   25  C16 UNL     1      21.865   0.636  50.574  1.00  0.00     0.014 A 
ENDBRANCH   8  20
TORSDOF 4
ENDMDL
MODEL 3
REMARK VINA RESULT:      -8.2      1.962      2.610
REMARK  4 active torsions:
REMARK  status: ('A' for Active; 'I' for Inactive)
REMARK    1  A    between atoms: C2_2  and  C3_3 
REMARK    2  A    between atoms: C4_4  and  C5_5 
REMARK       I    between atoms: C5_5  and  N1_7 
REMARK    3  A    between atoms: N1_7  and  C6_8 
REMARK    4  A    between atoms: C10_15  and  C11_16 
ROOT
HETATM    1  C6  UNL     1      23.740   1.756  51.746  1.00  0.00     0.148 A 
HETATM    2  N2  UNL     1      22.406   1.543  51.967  1.00  0.00    -0.239 NA
HETATM    3  C7  UNL     1      22.056   0.678  52.950  1.00  0.00     0.151 A 
HETATM    4  C8  UNL     1      22.963   0.005  53.736  1.00  0.00     0.089 A 
HETATM    5  N3  UNL     1      22.676  -0.869  54.689  1.00  0.00    -0.240 NA
HETATM    6  C9  UNL     1      23.659  -1.486  55.374  1.00  0.00     0.234 A 
HETATM    7  N4  UNL     1      24.972  -1.226  55.108  1.00  0.00    -0.240 NA
HETATM    8  C10 UNL     1      25.325  -0.329  54.132  1.00  0.00     0.082 A 
HETATM    9  C17 UNL     1      24.284   0.262  53.468  1.00  0.00     0.045 A 
HETATM   10  C18 UNL     1      24.686   1.114  52.496  1.00  0.00     0.071 A 
HETATM   11 BR1  UNL     1      26.433   1.514  51.932  1.00  0.00    -0.046 Br
ENDROOT
BRANCH   1  12
HETATM   12  N1  UNL     1      23.964   2.696  50.674  1.00  0.00    -0.307 N 
HETATM   13  C5  UNL     1      23.973   4.110  50.851  1.00  0.00     0.246 C 
HETATM   14  O1  UNL     1      23.749   4.209  52.105  1.00  0.00    -0.268 OA
HETATM   15  H6  UNL     1      24.089   2.011  49.873  1.00  0.00     0.170 HD
BRANCH  13  16
HETATM   16  C4  UNL     1      24.220   4.791  49.606  1.00  0.00     0.074 C 
HETATM   17  C3  UNL     1      23.849   5.165  48.421  1.00  0.00     0.005 C 
BRANCH  17  18
HETATM   18  C2  UNL     1      22.577   4.876  47.798  1.00  0.00    -0.010 C 
HETATM   19  C1  UNL     1      22.194   3.632  47.595  1.00  0.00     0.011 C 
ENDBRANCH  17  18
ENDBRANCH  13  16
ENDBRANCH   1  12
BRANCH   8  20
HETATM   20  C11 UNL     1      26.770  -0.242  54.083  1.00  0.00    -0.006 A 
HETATM   21  C12 UNL     1      27.728   0.646  54.595  1.00  0.00     0.014 A 
HETATM   22  C13 UNL     1      29.059   0.501  54.344  1.00  0.00     0.001 A 
HETATM   23  C14 UNL     1      29.529  -0.530  53.574  1.00  0.00     0.000 A 
HETATM   24  C15 UNL     1      28.654  -1.424  53.049  1.00  0.00     0.001 A 
HETATM   25  C16 UNL     1      27.297  -1.280  53.301  1.00  0.00     0.014 A 
ENDBRANCH   8  20
TORSDOF 4
ENDMDL
MODEL 4
REMARK VINA RESULT:      -7.9      1.468      1.795
REMARK  4 active torsions:
REMARK  status: ('A' for Active; 'I' for Inactive)
REMARK    1  A    between atoms: C2_2  and  C3_3 
REMARK    2  A    between atoms: C4_4  and  C5_5 
REMARK       I    between atoms: C5_5  and  N1_7 
REMARK    3  A    between atoms: N1_7  and  C6_8 
REMARK    4  A    between atoms: C10_15  and  C11_16 
ROOT
HETATM    1  C6  UNL     1      24.301   3.738  49.955  1.00  0.00     0.148 A 
HETATM    2  N2  UNL     1      22.996   3.972  49.615  1.00  0.00    -0.239 NA
HETATM    3  C7  UNL     1      22.047   3.160  50.143  1.00  0.00     0.151 A 
HETATM    4  C8  UNL     1      22.321   2.119  50.999  1.00  0.00     0.089 A 
HETATM    5  N3  UNL     1      21.437   1.282  51.520  1.00  0.00    -0.240 NA
HETATM    6  C9  UNL     1      21.834   0.279  52.328  1.00  0.00     0.234 A 
HETATM    7  N4  UNL     1      23.153   0.101  52.633  1.00  0.00    -0.240 NA
HETATM    8  C10 UNL     1      24.109   0.941  52.122  1.00  0.00     0.082 A 
HETATM    9  C17 UNL     1      23.646   1.936  51.304  1.00  0.00     0.045 A 
HETATM   10  C18 UNL     1      24.631   2.716  50.802  1.00  0.00     0.071 A 
HETATM   11 BR1  UNL     1      26.489   2.558  51.033  1.00  0.00    -0.046 Br
ENDROOT
BRANCH   1  12
HETATM   12  N1  UNL     1      25.197   4.674  49.322  1.00  0.00    -0.307 N 
HETATM   13  C5  UNL     1      25.538   5.942  49.875  1.00  0.00     0.246 C 
HETATM   14  O1  UNL     1      24.864   5.932  50.961  1.00  0.00    -0.268 OA
HETATM   15  H6  UNL     1      25.435   4.116  48.450  1.00  0.00     0.170 HD
BRANCH  13  16
HETATM   16  C4  UNL     1      26.451   6.657  49.022  1.00  0.00     0.074 C 
HETATM   17  C3  UNL     1      27.545   6.725  48.330  1.00  0.00     0.005 C 
BRANCH  17  18
HETATM   18  C2  UNL     1      28.523   5.670  48.180  1.00  0.00    -0.010 C 
HETATM   19  C1  UNL     1      29.809   5.919  48.328  1.00  0.00     0.011 C 
ENDBRANCH  17  18
ENDBRANCH  13  16
ENDBRANCH   1  12
BRANCH   8  20
HETATM   20  C11 UNL     1      25.404   0.528  52.622  1.00  0.00    -0.006 A 
HETATM   21  C12 UNL     1      26.429  -0.308  52.153  1.00  0.00     0.014 A 
HETATM   22  C13 UNL     1      27.552  -0.556  52.880  1.00  0.00     0.001 A 
HETATM   23  C14 UNL     1      27.738   0.005  54.117  1.00  0.00     0.000 A 
HETATM   24  C15 UNL     1      26.785   0.823  54.628  1.00  0.00     0.001 A 
HETATM   25  C16 UNL     1      25.637   1.079  53.891  1.00  0.00     0.014 A 
ENDBRANCH   8  20
TORSDOF 4
ENDMDL
MODEL 5
REMARK VINA RESULT:      -7.9      1.958      4.217
REMARK  4 active torsions:
REMARK  status: ('A' for Active; 'I' for Inactive)
REMARK    1  A    between atoms: C2_2  and  C3_3 
REMARK    2  A    between atoms: C4_4  and  C5_5 
REMARK       I    between atoms: C5_5  and  N1_7 
REMARK    3  A    between atoms: N1_7  and  C6_8 
REMARK    4  A    between atoms: C10_15  and  C11_16 
ROOT
HETATM    1  C6  UNL     1      25.932   2.472  52.170  1.00  0.00     0.148 A 
HETATM    2  N2  UNL     1      27.094   2.193  52.838  1.00  0.00    -0.239 NA
HETATM    3  C7  UNL     1      27.081   1.177  53.736  1.00  0.00     0.151 A 
HETATM    4  C8  UNL     1      25.970   0.413  54.010  1.00  0.00     0.089 A 
HETATM    5  N3  UNL     1      25.896  -0.570  54.895  1.00  0.00    -0.240 NA
HETATM    6  C9  UNL     1      24.738  -1.229  55.094  1.00  0.00     0.234 A 
HETATM    7  N4  UNL     1      23.614  -0.905  54.390  1.00  0.00    -0.240 NA
HETATM    8  C10 UNL     1      23.635   0.104  53.462  1.00  0.00     0.082 A 
HETATM    9  C17 UNL     1      24.838   0.740  53.307  1.00  0.00     0.045 A 
HETATM   10  C18 UNL     1      24.798   1.746  52.403  1.00  0.00     0.071 A 
HETATM   11 BR1  UNL     1      23.328   2.388  51.424  1.00  0.00    -0.046 Br
ENDROOT
BRANCH   1  12
HETATM   12  N1  UNL     1      26.093   3.573  51.251  1.00  0.00    -0.307 N 
HETATM   13  C5  UNL     1      26.585   3.430  49.922  1.00  0.00     0.246 C 
HETATM   14  O1  UNL     1      26.792   2.170  49.865  1.00  0.00    -0.268 OA
HETATM   15  H6  UNL     1      25.755   4.364  51.875  1.00  0.00     0.170 HD
BRANCH  13  16
HETATM   16  C4  UNL     1      26.636   4.698  49.243  1.00  0.00     0.074 C 
HETATM   17  C3  UNL     1      27.279   5.610  48.582  1.00  0.00     0.005 C 
BRANCH  17  18
HETATM   18  C2  UNL     1      28.676   5.563  48.208  1.00  0.00    -0.010 C 
HETATM   19  C1  UNL     1      29.365   6.673  48.038  1.00  0.00     0.011 C 
ENDBRANCH  17  18
ENDBRANCH  13  16
ENDBRANCH   1  12
BRANCH   8  20
HETATM   20  C11 UNL     1      22.321   0.213  52.865  1.00  0.00    -0.006 A 
HETATM   21  C12 UNL     1      21.792  -0.002  51.583  1.00  0.00     0.014 A 
HETATM   22  C13 UNL     1      20.483   0.233  51.289  1.00  0.00     0.001 A 
HETATM   23  C14 UNL     1      19.611   0.692  52.241  1.00  0.00     0.000 A 
HETATM   24  C15 UNL     1      20.059   0.919  53.502  1.00  0.00     0.001 A 
HETATM   25  C16 UNL     1      21.392   0.683  53.806  1.00  0.00     0.014 A 
ENDBRANCH   8  20
TORSDOF 4
ENDMDL
MODEL 6
REMARK VINA RESULT:      -7.9      2.639      5.562
REMARK  4 active torsions:
REMARK  status: ('A' for Active; 'I' for Inactive)
REMARK    1  A    between atoms: C2_2  and  C3_3 
REMARK    2  A    between atoms: C4_4  and  C5_5 
REMARK       I    between atoms: C5_5  and  N1_7 
REMARK    3  A    between atoms: N1_7  and  C6_8 
REMARK    4  A    between atoms: C10_15  and  C11_16 
ROOT
HETATM    1  C6  UNL     1      26.287   1.847  51.739  1.00  0.00     0.148 A 
HETATM    2  N2  UNL     1      26.469   2.925  50.914  1.00  0.00    -0.239 NA
HETATM    3  C7  UNL     1      25.367   3.522  50.398  1.00  0.00     0.151 A 
HETATM    4  C8  UNL     1      24.081   3.108  50.657  1.00  0.00     0.089 A 
HETATM    5  N3  UNL     1      22.973   3.637  50.159  1.00  0.00    -0.240 NA
HETATM    6  C9  UNL     1      21.767   3.122  50.468  1.00  0.00     0.234 A 
HETATM    7  N4  UNL     1      21.653   2.048  51.302  1.00  0.00    -0.240 NA
HETATM    8  C10 UNL     1      22.767   1.463  51.847  1.00  0.00     0.082 A 
HETATM    9  C17 UNL     1      23.963   2.026  51.492  1.00  0.00     0.045 A 
HETATM   10  C18 UNL     1      25.031   1.393  52.031  1.00  0.00     0.071 A 
HETATM   11 BR1  UNL     1      25.065  -0.145  53.110  1.00  0.00    -0.046 Br
ENDROOT
BRANCH   1  12
HETATM   12  N1  UNL     1      27.542   1.315  52.212  1.00  0.00    -0.307 N 
HETATM   13  C5  UNL     1      28.139   1.679  53.453  1.00  0.00     0.246 C 
HETATM   14  O1  UNL     1      27.284   2.512  53.909  1.00  0.00    -0.268 OA
HETATM   15  H6  UNL     1      27.770   0.673  51.397  1.00  0.00     0.170 HD
BRANCH  13  16
HETATM   16  C4  UNL     1      29.387   0.989  53.656  1.00  0.00     0.074 C 
HETATM   17  C3  UNL     1      30.072  -0.100  53.815  1.00  0.00     0.005 C 
BRANCH  17  18
HETATM   18  C2  UNL     1      29.538  -1.444  53.839  1.00  0.00    -0.010 C 
HETATM   19  C1  UNL     1      28.689  -1.847  52.916  1.00  0.00     0.011 C 
ENDBRANCH  17  18
ENDBRANCH  13  16
ENDBRANCH   1  12
BRANCH   8  20
HETATM   20  C11 UNL     1      22.347   0.368  52.696  1.00  0.00    -0.006 A 
HETATM   21  C12 UNL     1      22.407  -1.032  52.612  1.00  0.00     0.014 A 
HETATM   22  C13 UNL     1      21.873  -1.840  53.569  1.00  0.00     0.001 A 
HETATM   23  C14 UNL     1      21.248  -1.319  54.672  1.00  0.00     0.000 A 
HETATM   24  C15 UNL     1      21.156   0.027  54.813  1.00  0.00     0.001 A 
HETATM   25  C16 UNL     1      21.698   0.855  53.840  1.00  0.00     0.014 A 
ENDBRANCH   8  20
TORSDOF 4
ENDMDL
MODEL 7
REMARK VINA RESULT:      -7.8      2.625      6.148
REMARK  4 active torsions:
REMARK  status: ('A' for Active; 'I' for Inactive)
REMARK    1  A    between atoms: C2_2  and  C3_3 
REMARK    2  A    between atoms: C4_4  and  C5_5 
REMARK       I    between atoms: C5_5  and  N1_7 
REMARK    3  A    between atoms: N1_7  and  C6_8 
REMARK    4  A    between atoms: C10_15  and  C11_16 
ROOT
HETATM    1  C6  UNL     1      22.181   2.474  50.790  1.00  0.00     0.148 A 
HETATM    2  N2  UNL     1      22.007   3.341  49.746  1.00  0.00    -0.239 NA
HETATM    3  C7  UNL     1      23.110   3.915  49.207  1.00  0.00     0.151 A 
HETATM    4  C8  UNL     1      24.390   3.675  49.649  1.00  0.00     0.089 A 
HETATM    5  N3  UNL     1      25.498   4.228  49.177  1.00  0.00    -0.240 NA
HETATM    6  C9  UNL     1      26.697   3.931  49.714  1.00  0.00     0.234 A 
HETATM    7  N4  UNL     1      26.804   3.052  50.754  1.00  0.00    -0.240 NA
HETATM    8  C10 UNL     1      25.690   2.450  51.279  1.00  0.00     0.082 A 
HETATM    9  C17 UNL     1      24.500   2.795  50.695  1.00  0.00     0.045 A 
HETATM   10  C18 UNL     1      23.431   2.198  51.271  1.00  0.00     0.071 A 
HETATM   11 BR1  UNL     1      23.384   1.049  52.757  1.00  0.00    -0.046 Br
ENDROOT
BRANCH   1  12
HETATM   12  N1  UNL     1      20.925   1.942  51.262  1.00  0.00    -0.307 N 
HETATM   13  C5  UNL     1      20.345   0.734  50.776  1.00  0.00     0.246 C 
HETATM   14  O1  UNL     1      21.214   0.366  49.914  1.00  0.00    -0.268 OA
HETATM   15  H6  UNL     1      20.682   2.690  51.974  1.00  0.00     0.170 HD
BRANCH  13  16
HETATM   16  C4  UNL     1      19.093   0.456  51.430  1.00  0.00     0.074 C 
HETATM   17  C3  UNL     1      18.390  -0.166  52.325  1.00  0.00     0.005 C 
BRANCH  17  18
HETATM   18  C2  UNL     1      18.891  -1.129  53.280  1.00  0.00    -0.010 C 
HETATM   19  C1  UNL     1      18.193  -2.207  53.579  1.00  0.00     0.011 C 
ENDBRANCH  17  18
ENDBRANCH  13  16
ENDBRANCH   1  12
BRANCH   8  20
HETATM   20  C11 UNL     1      26.102   1.564  52.348  1.00  0.00    -0.006 A 
HETATM   21  C12 UNL     1      26.211   1.677  53.743  1.00  0.00     0.014 A 
HETATM   22  C13 UNL     1      26.688   0.663  54.517  1.00  0.00     0.001 A 
HETATM   23  C14 UNL     1      27.087  -0.526  53.965  1.00  0.00     0.000 A 
HETATM   24  C15 UNL     1      27.006  -0.700  52.622  1.00  0.00     0.001 A 
HETATM   25  C16 UNL     1      26.522   0.331  51.828  1.00  0.00     0.014 A 
ENDBRANCH   8  20
TORSDOF 4
ENDMDL
MODEL 8
REMARK VINA RESULT:      -7.4      3.638      6.409
REMARK  4 active torsions:
REMARK  status: ('A' for Active; 'I' for Inactive)
REMARK    1  A    between atoms: C2_2  and  C3_3 
REMARK    2  A    between atoms: C4_4  and  C5_5 
REMARK       I    between atoms: C5_5  and  N1_7 
REMARK    3  A    between atoms: N1_7  and  C6_8 
REMARK    4  A    between atoms: C10_15  and  C11_16 
ROOT
HETATM    1  C6  UNL     1      23.599   0.363  53.375  1.00  0.00     0.148 A 
HETATM    2  N2  UNL     1      23.281  -0.414  54.456  1.00  0.00    -0.239 NA
HETATM    3  C7  UNL     1      22.013  -0.885  54.549  1.00  0.00     0.151 A 
HETATM    4  C8  UNL     1      21.032  -0.626  53.620  1.00  0.00     0.089 A 
HETATM    5  N3  UNL     1      19.774  -1.037  53.677  1.00  0.00    -0.240 NA
HETATM    6  C9  UNL     1      18.895  -0.693  52.715  1.00  0.00     0.234 A 
HETATM    7  N4  UNL     1      19.276   0.082  51.658  1.00  0.00    -0.240 NA
HETATM    8  C10 UNL     1      20.567   0.533  51.550  1.00  0.00     0.082 A 
HETATM    9  C17 UNL     1      21.411   0.156  52.559  1.00  0.00     0.045 A 
HETATM   10  C18 UNL     1      22.663   0.653  52.421  1.00  0.00     0.071 A 
HETATM   11 BR1  UNL     1      23.331   1.805  51.096  1.00  0.00    -0.046 Br
ENDROOT
BRANCH   1  12
HETATM   12  N1  UNL     1      24.976   0.791  53.407  1.00  0.00    -0.307 N 
HETATM   13  C5  UNL     1      26.073  -0.041  53.040  1.00  0.00     0.246 C 
HETATM   14  O1  UNL     1      25.472  -1.124  52.724  1.00  0.00    -0.268 OA
HETATM   15  H6  UNL     1      24.835   1.785  53.753  1.00  0.00     0.170 HD
BRANCH  13  16
HETATM   16  C4  UNL     1      27.326   0.655  53.173  1.00  0.00     0.074 C 
HETATM   17  C3  UNL     1      28.571   0.698  53.532  1.00  0.00     0.005 C 
BRANCH  17  18
HETATM   18  C2  UNL     1      29.320  -0.382  54.135  1.00  0.00    -0.010 C 
HETATM   19  C1  UNL     1      29.668  -1.437  53.426  1.00  0.00     0.011 C 
ENDBRANCH  17  18
ENDBRANCH  13  16
ENDBRANCH   1  12
BRANCH   8  20
HETATM   20  C11 UNL     1      20.686   1.310  50.334  1.00  0.00    -0.006 A 
HETATM   21  C12 UNL     1      21.210   1.074  49.053  1.00  0.00     0.014 A 
HETATM   22  C13 UNL     1      21.228   2.035  48.089  1.00  0.00     0.001 A 
HETATM   23  C14 UNL     1      20.729   3.289  48.324  1.00  0.00     0.000 A 
HETATM   24  C15 UNL     1      20.207   3.582  49.541  1.00  0.00     0.001 A 
HETATM   25  C16 UNL     1      20.187   2.606  50.529  1.00  0.00     0.014 A 
ENDBRANCH   8  20
TORSDOF 4
ENDMDL
MODEL 9
REMARK VINA RESULT:      -7.4      5.490     10.289
REMARK  4 active torsions:
REMARK  status: ('A' for Active; 'I' for Inactive)
REMARK    1  A    between atoms: C2_2  and  C3_3 
REMARK    2  A    between atoms: C4_4  and  C5_5 
REMARK       I    between atoms: C5_5  and  N1_7 
REMARK    3  A    between atoms: N1_7  and  C6_8 
REMARK    4  A    between atoms: C10_15  and  C11_16 
ROOT
HETATM    1  C6  UNL     1      30.201   7.835  48.416  1.00  0.00     0.148 A 
HETATM    2  N2  UNL     1      30.078   9.199  48.419  1.00  0.00    -0.239 NA
HETATM    3  C7  UNL     1      31.152   9.934  48.041  1.00  0.00     0.151 A 
HETATM    4  C8  UNL     1      32.354   9.389  47.655  1.00  0.00     0.089 A 
HETATM    5  N3  UNL     1      33.441  10.060  47.303  1.00  0.00    -0.240 NA
HETATM    6  C9  UNL     1      34.572   9.408  46.969  1.00  0.00     0.234 A 
HETATM    7  N4  UNL     1      34.629   8.044  46.981  1.00  0.00    -0.240 NA
HETATM    8  C10 UNL     1      33.533   7.301  47.336  1.00  0.00     0.082 A 
HETATM    9  C17 UNL     1      32.415   8.018  47.669  1.00  0.00     0.045 A 
HETATM   10  C18 UNL     1      31.373   7.239  48.041  1.00  0.00     0.071 A 
HETATM   11 BR1  UNL     1      31.304   5.369  48.209  1.00  0.00    -0.046 Br
ENDROOT
BRANCH   1  12
HETATM   12  N1  UNL     1      28.985   7.185  48.840  1.00  0.00    -0.307 N 
HETATM   13  C5  UNL     1      27.881   6.930  47.975  1.00  0.00     0.246 C 
HETATM   14  O1  UNL     1      28.309   7.412  46.872  1.00  0.00    -0.268 OA
HETATM   15  H6  UNL     1      29.228   7.021  49.860  1.00  0.00     0.170 HD
BRANCH  13  16
HETATM   16  C4  UNL     1      26.810   6.270  48.676  1.00  0.00     0.074 C 
HETATM   17  C3  UNL     1      26.285   5.218  49.221  1.00  0.00     0.005 C 
BRANCH  17  18
HETATM   18  C2  UNL     1      26.891   3.906  49.293  1.00  0.00    -0.010 C 
HETATM   19  C1  UNL     1      26.496   3.030  50.194  1.00  0.00     0.011 C 
ENDBRANCH  17  18
ENDBRANCH  13  16
ENDBRANCH   1  12
BRANCH   8  20
HETATM   20  C11 UNL     1      33.875   5.897  47.242  1.00  0.00    -0.006 A 
HETATM   21  C12 UNL     1      34.370   4.935  48.136  1.00  0.00     0.014 A 
HETATM   22  C13 UNL     1      34.650   3.661  47.748  1.00  0.00     0.001 A 
HETATM   23  C14 UNL     1      34.459   3.252  46.454  1.00  0.00     0.000 A 
HETATM   24  C15 UNL     1      33.981   4.134  45.540  1.00  0.00     0.001 A 
HETATM   25  C16 UNL     1      33.694   5.435  45.930  1.00  0.00     0.014 A 
ENDBRANCH   8  20
TORSDOF 4
ENDMDL
