MODEL 1
REMARK VINA RESULT:      -7.8      0.000      0.000
REMARK  2 active torsions:
REMARK  status: ('A' for Active; 'I' for Inactive)
REMARK    1  A    between atoms: O1_2  and  C2_3 
REMARK    2  A    between atoms: C5_6  and  C6_7 
ROOT
HETATM    1  C6  UNL     1      23.998   1.729  51.235  1.00  0.00     0.113 C 
HETATM    2  C7  UNL     1      24.502   2.840  50.448  1.00  0.00     0.070 C 
HETATM    3  C8  UNL     1      23.410   3.411  49.587  1.00  0.00     0.000 C 
HETATM    4  S1  UNL     1      22.035   2.622  50.247  1.00  0.00    -0.127 SA
HETATM    5  N1  UNL     1      23.085   2.618  52.009  1.00  0.00    -0.249 NA
HETATM    6  C9  UNL     1      24.066   3.610  51.734  1.00  0.00     0.107 C 
HETATM    7  C10 UNL     1      23.791   5.024  51.325  1.00  0.00     0.222 C 
HETATM    8  O2  UNL     1      24.897   5.674  50.750  1.00  0.00    -0.278 OA
HETATM    9  N2  UNL     1      24.611   6.316  49.538  1.00  0.00    -0.266 N 
HETATM   10  C11 UNL     1      23.714   5.745  48.510  1.00  0.00     0.067 A 
HETATM   11  C12 UNL     1      23.316   6.504  47.486  1.00  0.00     0.056 A 
HETATM   12  C13 UNL     1      22.410   5.948  46.616  1.00  0.00     0.036 A 
HETATM   13 CL1  UNL     1      21.929   6.998  45.293  1.00  0.00    -0.084 Cl
HETATM   14  C14 UNL     1      21.892   4.677  46.733  1.00  0.00     0.025 A 
HETATM   15  C15 UNL     1      22.213   3.790  47.734  1.00  0.00     0.016 A 
HETATM   16  C16 UNL     1      23.109   4.439  48.525  1.00  0.00     0.006 A 
HETATM   17  H8  UNL     1      20.796   2.506  50.229  1.00  0.00     0.112 HD
HETATM   18  H12 UNL     1      24.868   7.208  49.079  1.00  0.00     0.194 HD
ENDROOT
BRANCH   1  19
HETATM   19  C5  UNL     1      25.034   1.133  52.163  1.00  0.00    -0.039 A 
HETATM   20  C4  UNL     1      24.685   0.510  53.330  1.00  0.00     0.011 A 
HETATM   21  C3  UNL     1      25.609  -0.042  54.192  1.00  0.00     0.037 A 
HETATM   22  C2  UNL     1      26.949   0.073  53.800  1.00  0.00     0.068 A 
HETATM   23  C18 UNL     1      27.317   0.698  52.628  1.00  0.00     0.037 A 
HETATM   24  C17 UNL     1      26.360   1.241  51.785  1.00  0.00     0.011 A 
BRANCH  22  25
HETATM   25  O1  UNL     1      27.932  -0.473  54.646  1.00  0.00    -0.356 OA
HETATM   26  C1  UNL     1      29.273  -0.489  54.195  1.00  0.00     0.210 C 
ENDBRANCH  22  25
ENDBRANCH   1  19
TORSDOF 2
ENDMDL
MODEL 2
REMARK VINA RESULT:      -7.7      3.114      3.723
REMARK  2 active torsions:
REMARK  status: ('A' for Active; 'I' for Inactive)
REMARK    1  A    between atoms: O1_2  and  C2_3 
REMARK    2  A    between atoms: C5_6  and  C6_7 
ROOT
HETATM    1  C6  UNL     1      23.561   2.448  50.485  1.00  0.00     0.113 C 
HETATM    2  C7  UNL     1      24.265   3.584  51.051  1.00  0.00     0.070 C 
HETATM    3  C8  UNL     1      24.587   4.589  49.981  1.00  0.00     0.000 C 
HETATM    4  S1  UNL     1      23.645   3.982  48.679  1.00  0.00    -0.127 SA
HETATM    5  N1  UNL     1      22.379   3.285  50.133  1.00  0.00    -0.249 NA
HETATM    6  C9  UNL     1      22.794   4.069  51.244  1.00  0.00     0.107 C 
HETATM    7  C10 UNL     1      22.831   5.565  51.295  1.00  0.00     0.222 C 
HETATM    8  O2  UNL     1      23.627   6.079  52.335  1.00  0.00    -0.278 OA
HETATM    9  N2  UNL     1      24.536   7.061  51.921  1.00  0.00    -0.266 N 
HETATM   10  C11 UNL     1      25.277   6.994  50.644  1.00  0.00     0.067 A 
HETATM   11  C12 UNL     1      25.955   8.062  50.216  1.00  0.00     0.056 A 
HETATM   12  C13 UNL     1      26.545   7.969  48.979  1.00  0.00     0.036 A 
HETATM   13 CL1  UNL     1      27.418   9.407  48.477  1.00  0.00    -0.084 Cl
HETATM   14  C14 UNL     1      26.482   6.860  48.164  1.00  0.00     0.025 A 
HETATM   15  C15 UNL     1      25.822   5.695  48.477  1.00  0.00     0.016 A 
HETATM   16  C16 UNL     1      25.285   5.898  49.710  1.00  0.00     0.006 A 
HETATM   17  H8  UNL     1      23.259   4.156  47.508  1.00  0.00     0.112 HD
HETATM   18  H12 UNL     1      24.891   7.961  52.290  1.00  0.00     0.194 HD
ENDROOT
BRANCH   1  19
HETATM   19  C5  UNL     1      23.162   1.415  51.516  1.00  0.00    -0.039 A 
HETATM   20  C4  UNL     1      21.941   0.798  51.486  1.00  0.00     0.011 A 
HETATM   21  C3  UNL     1      21.555  -0.147  52.413  1.00  0.00     0.037 A 
HETATM   22  C2  UNL     1      22.497  -0.445  53.405  1.00  0.00     0.068 A 
HETATM   23  C18 UNL     1      23.731   0.167  53.449  1.00  0.00     0.037 A 
HETATM   24  C17 UNL     1      24.086   1.112  52.501  1.00  0.00     0.011 A 
BRANCH  22  25
HETATM   25  O1  UNL     1      22.151  -1.403  54.376  1.00  0.00    -0.356 OA
HETATM   26  C1  UNL     1      23.022  -1.590  55.477  1.00  0.00     0.210 C 
ENDBRANCH  22  25
ENDBRANCH   1  19
TORSDOF 2
ENDMDL
MODEL 3
REMARK VINA RESULT:      -7.7      5.989      8.657
REMARK  2 active torsions:
REMARK  status: ('A' for Active; 'I' for Inactive)
REMARK    1  A    between atoms: O1_2  and  C2_3 
REMARK    2  A    between atoms: C5_6  and  C6_7 
ROOT
HETATM    1  C6  UNL     1      20.110   0.730  51.684  1.00  0.00     0.113 C 
HETATM    2  C7  UNL     1      21.005  -0.209  52.335  1.00  0.00     0.070 C 
HETATM    3  C8  UNL     1      22.334   0.438  52.609  1.00  0.00     0.000 C 
HETATM    4  S1  UNL     1      21.965   2.083  52.279  1.00  0.00    -0.127 SA
HETATM    5  N1  UNL     1      20.064   1.609  52.887  1.00  0.00    -0.249 NA
HETATM    6  C9  UNL     1      20.306   0.398  53.592  1.00  0.00     0.107 C 
HETATM    7  C10 UNL     1      21.251   0.228  54.742  1.00  0.00     0.222 C 
HETATM    8  O2  UNL     1      21.592  -1.111  55.004  1.00  0.00    -0.278 OA
HETATM    9  N2  UNL     1      22.970  -1.332  55.128  1.00  0.00    -0.266 N 
HETATM   10  C11 UNL     1      23.978  -0.665  54.277  1.00  0.00     0.067 A 
HETATM   11  C12 UNL     1      25.272  -0.754  54.593  1.00  0.00     0.056 A 
HETATM   12  C13 UNL     1      26.152  -0.036  53.820  1.00  0.00     0.036 A 
HETATM   13 CL1  UNL     1      27.836  -0.196  54.290  1.00  0.00    -0.084 Cl
HETATM   14  C14 UNL     1      25.788   0.759  52.755  1.00  0.00     0.025 A 
HETATM   15  C15 UNL     1      24.496   0.941  52.319  1.00  0.00     0.016 A 
HETATM   16  C16 UNL     1      23.721   0.189  53.147  1.00  0.00     0.006 A 
HETATM   17  H8  UNL     1      22.373   3.258  52.279  1.00  0.00     0.112 HD
HETATM   18  H12 UNL     1      23.589  -1.898  55.734  1.00  0.00     0.194 HD
ENDROOT
BRANCH   1  19
HETATM   19  C5  UNL     1      18.733   0.160  51.419  1.00  0.00    -0.039 A 
HETATM   20  C4  UNL     1      18.091  -0.633  52.331  1.00  0.00     0.011 A 
HETATM   21  C3  UNL     1      16.837  -1.163  52.113  1.00  0.00     0.037 A 
HETATM   22  C2  UNL     1      16.246  -0.840  50.886  1.00  0.00     0.068 A 
HETATM   23  C18 UNL     1      16.879  -0.042  49.956  1.00  0.00     0.037 A 
HETATM   24  C17 UNL     1      18.139   0.474  50.209  1.00  0.00     0.011 A 
BRANCH  22  25
HETATM   25  O1  UNL     1      14.966  -1.357  50.614  1.00  0.00    -0.356 OA
HETATM   26  C1  UNL     1      14.612  -2.607  51.177  1.00  0.00     0.210 C 
ENDBRANCH  22  25
ENDBRANCH   1  19
TORSDOF 2
ENDMDL
MODEL 4
REMARK VINA RESULT:      -7.6      3.319      3.973
REMARK  2 active torsions:
REMARK  status: ('A' for Active; 'I' for Inactive)
REMARK    1  A    between atoms: O1_2  and  C2_3 
REMARK    2  A    between atoms: C5_6  and  C6_7 
ROOT
HETATM    1  C6  UNL     1      23.380   2.439  52.727  1.00  0.00     0.113 C 
HETATM    2  C7  UNL     1      22.378   1.766  51.922  1.00  0.00     0.070 C 
HETATM    3  C8  UNL     1      21.285   2.724  51.536  1.00  0.00     0.000 C 
HETATM    4  S1  UNL     1      21.989   4.219  52.005  1.00  0.00    -0.127 SA
HETATM    5  N1  UNL     1      23.784   3.317  51.593  1.00  0.00    -0.249 NA
HETATM    6  C9  UNL     1      23.354   2.224  50.792  1.00  0.00     0.107 C 
HETATM    7  C10 UNL     1      22.549   2.323  49.533  1.00  0.00     0.222 C 
HETATM    8  O2  UNL     1      21.936   1.115  49.154  1.00  0.00    -0.278 OA
HETATM    9  N2  UNL     1      20.572   1.239  48.858  1.00  0.00    -0.266 N 
HETATM   10  C11 UNL     1      19.652   2.104  49.626  1.00  0.00     0.067 A 
HETATM   11  C12 UNL     1      18.424   2.342  49.158  1.00  0.00     0.056 A 
HETATM   12  C13 UNL     1      17.648   3.227  49.866  1.00  0.00     0.036 A 
HETATM   13 CL1  UNL     1      16.048   3.495  49.197  1.00  0.00    -0.084 Cl
HETATM   14  C14 UNL     1      18.053   3.877  51.012  1.00  0.00     0.025 A 
HETATM   15  C15 UNL     1      19.285   3.727  51.604  1.00  0.00     0.016 A 
HETATM   16  C16 UNL     1      19.959   2.835  50.828  1.00  0.00     0.006 A 
HETATM   17  H8  UNL     1      21.874   5.458  52.029  1.00  0.00     0.112 HD
HETATM   18  H12 UNL     1      19.918   0.859  48.152  1.00  0.00     0.194 HD
ENDROOT
BRANCH   1  19
HETATM   19  C5  UNL     1      24.538   1.545  53.114  1.00  0.00    -0.039 A 
HETATM   20  C4  UNL     1      24.437   0.181  53.090  1.00  0.00     0.011 A 
HETATM   21  C3  UNL     1      25.477  -0.655  53.437  1.00  0.00     0.037 A 
HETATM   22  C2  UNL     1      26.664  -0.020  53.824  1.00  0.00     0.068 A 
HETATM   23  C18 UNL     1      26.782   1.353  53.854  1.00  0.00     0.037 A 
HETATM   24  C17 UNL     1      25.715   2.163  53.497  1.00  0.00     0.011 A 
BRANCH  22  25
HETATM   25  O1  UNL     1      27.756  -0.829  54.189  1.00  0.00    -0.356 OA
HETATM   26  C1  UNL     1      29.041  -0.238  54.245  1.00  0.00     0.210 C 
ENDBRANCH  22  25
ENDBRANCH   1  19
TORSDOF 2
ENDMDL
MODEL 5
REMARK VINA RESULT:      -7.6      3.774      6.951
REMARK  2 active torsions:
REMARK  status: ('A' for Active; 'I' for Inactive)
REMARK    1  A    between atoms: O1_2  and  C2_3 
REMARK    2  A    between atoms: C5_6  and  C6_7 
ROOT
HETATM    1  C6  UNL     1      24.449   4.514  49.926  1.00  0.00     0.113 C 
HETATM    2  C7  UNL     1      24.551   3.873  51.224  1.00  0.00     0.070 C 
HETATM    3  C8  UNL     1      23.769   2.590  51.239  1.00  0.00     0.000 C 
HETATM    4  S1  UNL     1      23.421   2.407  49.567  1.00  0.00    -0.127 SA
HETATM    5  N1  UNL     1      25.186   3.404  49.257  1.00  0.00    -0.249 NA
HETATM    6  C9  UNL     1      25.803   3.251  50.528  1.00  0.00     0.107 C 
HETATM    7  C10 UNL     1      26.083   1.950  51.215  1.00  0.00     0.222 C 
HETATM    8  O2  UNL     1      26.336   2.078  52.593  1.00  0.00    -0.278 OA
HETATM    9  N2  UNL     1      25.590   1.199  53.391  1.00  0.00    -0.266 N 
HETATM   10  C11 UNL     1      24.177   0.860  53.121  1.00  0.00     0.067 A 
HETATM   11  C12 UNL     1      23.600  -0.144  53.786  1.00  0.00     0.056 A 
HETATM   12  C13 UNL     1      22.316  -0.473  53.425  1.00  0.00     0.036 A 
HETATM   13 CL1  UNL     1      21.618  -1.800  54.337  1.00  0.00    -0.084 Cl
HETATM   14  C14 UNL     1      21.597   0.158  52.433  1.00  0.00     0.025 A 
HETATM   15  C15 UNL     1      22.065   1.203  51.671  1.00  0.00     0.016 A 
HETATM   16  C16 UNL     1      23.329   1.442  52.113  1.00  0.00     0.006 A 
HETATM   17  H8  UNL     1      22.915   1.690  48.684  1.00  0.00     0.112 HD
HETATM   18  H12 UNL     1      25.758   0.620  54.232  1.00  0.00     0.194 HD
ENDROOT
BRANCH   1  19
HETATM   19  C5  UNL     1      25.253   5.792  49.822  1.00  0.00    -0.039 A 
HETATM   20  C4  UNL     1      26.294   5.922  48.943  1.00  0.00     0.011 A 
HETATM   21  C3  UNL     1      27.041   7.075  48.830  1.00  0.00     0.037 A 
HETATM   22  C2  UNL     1      26.670   8.125  49.679  1.00  0.00     0.068 A 
HETATM   23  C18 UNL     1      25.624   8.010  50.570  1.00  0.00     0.037 A 
HETATM   24  C17 UNL     1      24.895   6.835  50.657  1.00  0.00     0.011 A 
BRANCH  22  25
HETATM   25  O1  UNL     1      27.402   9.324  49.603  1.00  0.00    -0.356 OA
HETATM   26  C1  UNL     1      28.799   9.247  49.388  1.00  0.00     0.210 C 
ENDBRANCH  22  25
ENDBRANCH   1  19
TORSDOF 2
ENDMDL
MODEL 6
REMARK VINA RESULT:      -7.5      1.756      2.228
REMARK  2 active torsions:
REMARK  status: ('A' for Active; 'I' for Inactive)
REMARK    1  A    between atoms: O1_2  and  C2_3 
REMARK    2  A    between atoms: C5_6  and  C6_7 
ROOT
HETATM    1  C6  UNL     1      23.722   0.619  52.132  1.00  0.00     0.113 C 
HETATM    2  C7  UNL     1      23.773   1.733  51.202  1.00  0.00     0.070 C 
HETATM    3  C8  UNL     1      22.408   2.002  50.631  1.00  0.00     0.000 C 
HETATM    4  S1  UNL     1      21.435   1.021  51.651  1.00  0.00    -0.127 SA
HETATM    5  N1  UNL     1      22.860   1.377  53.082  1.00  0.00    -0.249 NA
HETATM    6  C9  UNL     1      23.512   2.513  52.529  1.00  0.00     0.107 C 
HETATM    7  C10 UNL     1      22.853   3.805  52.153  1.00  0.00     0.222 C 
HETATM    8  O2  UNL     1      23.623   4.605  51.290  1.00  0.00    -0.278 OA
HETATM    9  N2  UNL     1      22.921   5.069  50.170  1.00  0.00    -0.266 N 
HETATM   10  C11 UNL     1      21.941   4.246  49.429  1.00  0.00     0.067 A 
HETATM   11  C12 UNL     1      21.155   4.819  48.514  1.00  0.00     0.056 A 
HETATM   12  C13 UNL     1      20.201   4.023  47.927  1.00  0.00     0.036 A 
HETATM   13 CL1  UNL     1      19.202   4.837  46.736  1.00  0.00    -0.084 Cl
HETATM   14  C14 UNL     1      20.008   2.690  48.219  1.00  0.00     0.025 A 
HETATM   15  C15 UNL     1      20.743   1.975  49.136  1.00  0.00     0.016 A 
HETATM   16  C16 UNL     1      21.648   2.853  49.646  1.00  0.00     0.006 A 
HETATM   17  H8  UNL     1      20.282   0.665  51.955  1.00  0.00     0.112 HD
HETATM   18  H12 UNL     1      22.864   5.950  49.629  1.00  0.00     0.194 HD
ENDROOT
BRANCH   1  19
HETATM   19  C5  UNL     1      25.055   0.320  52.783  1.00  0.00    -0.039 A 
HETATM   20  C4  UNL     1      26.233   0.412  52.094  1.00  0.00     0.011 A 
HETATM   21  C3  UNL     1      27.459   0.146  52.665  1.00  0.00     0.037 A 
HETATM   22  C2  UNL     1      27.432  -0.231  54.013  1.00  0.00     0.068 A 
HETATM   23  C18 UNL     1      26.254  -0.328  54.722  1.00  0.00     0.037 A 
HETATM   24  C17 UNL     1      25.039  -0.053  54.116  1.00  0.00     0.011 A 
BRANCH  22  25
HETATM   25  O1  UNL     1      28.658  -0.515  54.643  1.00  0.00    -0.356 OA
HETATM   26  C1  UNL     1      29.804  -0.701  53.832  1.00  0.00     0.210 C 
ENDBRANCH  22  25
ENDBRANCH   1  19
TORSDOF 2
ENDMDL
MODEL 7
REMARK VINA RESULT:      -7.4      4.152      6.739
REMARK  2 active torsions:
REMARK  status: ('A' for Active; 'I' for Inactive)
REMARK    1  A    between atoms: O1_2  and  C2_3 
REMARK    2  A    between atoms: C5_6  and  C6_7 
ROOT
HETATM    1  C6  UNL     1      22.649   3.610  49.922  1.00  0.00     0.113 C 
HETATM    2  C7  UNL     1      22.179   3.107  51.200  1.00  0.00     0.070 C 
HETATM    3  C8  UNL     1      21.262   1.933  50.997  1.00  0.00     0.000 C 
HETATM    4  S1  UNL     1      21.519   1.611  49.330  1.00  0.00    -0.127 SA
HETATM    5  N1  UNL     1      23.404   2.356  49.643  1.00  0.00    -0.249 NA
HETATM    6  C9  UNL     1      23.490   2.271  51.059  1.00  0.00     0.107 C 
HETATM    7  C10 UNL     1      23.306   1.030  51.876  1.00  0.00     0.222 C 
HETATM    8  O2  UNL     1      23.060   1.277  53.238  1.00  0.00    -0.278 OA
HETATM    9  N2  UNL     1      21.955   0.583  53.750  1.00  0.00    -0.266 N 
HETATM   10  C11 UNL     1      20.702   0.383  52.993  1.00  0.00     0.067 A 
HETATM   11  C12 UNL     1      19.781  -0.468  53.452  1.00  0.00     0.056 A 
HETATM   12  C13 UNL     1      18.681  -0.683  52.658  1.00  0.00     0.036 A 
HETATM   13 CL1  UNL     1      17.511  -1.812  53.320  1.00  0.00    -0.084 Cl
HETATM   14  C14 UNL     1      18.471  -0.084  51.435  1.00  0.00     0.025 A 
HETATM   15  C15 UNL     1      19.332   0.810  50.842  1.00  0.00     0.016 A 
HETATM   16  C16 UNL     1      20.372   0.947  51.709  1.00  0.00     0.006 A 
HETATM   17  H8  UNL     1      21.266   0.865  48.366  1.00  0.00     0.112 HD
HETATM   18  H12 UNL     1      21.720   0.084  54.626  1.00  0.00     0.194 HD
ENDROOT
BRANCH   1  19
HETATM   19  C5  UNL     1      23.616   4.767  50.052  1.00  0.00    -0.039 A 
HETATM   20  C4  UNL     1      23.428   5.767  50.966  1.00  0.00     0.011 A 
HETATM   21  C3  UNL     1      24.294   6.831  51.103  1.00  0.00     0.037 A 
HETATM   22  C2  UNL     1      25.397   6.831  50.241  1.00  0.00     0.068 A 
HETATM   23  C18 UNL     1      25.602   5.831  49.315  1.00  0.00     0.037 A 
HETATM   24  C17 UNL     1      24.710   4.776  49.205  1.00  0.00     0.011 A 
BRANCH  22  25
HETATM   25  O1  UNL     1      26.312   7.896  50.341  1.00  0.00    -0.356 OA
HETATM   26  C1  UNL     1      27.170   8.150  49.244  1.00  0.00     0.210 C 
ENDBRANCH  22  25
ENDBRANCH   1  19
TORSDOF 2
ENDMDL
MODEL 8
REMARK VINA RESULT:      -7.2      3.759      7.636
REMARK  2 active torsions:
REMARK  status: ('A' for Active; 'I' for Inactive)
REMARK    1  A    between atoms: O1_2  and  C2_3 
REMARK    2  A    between atoms: C5_6  and  C6_7 
ROOT
HETATM    1  C6  UNL     1      21.826   4.006  50.618  1.00  0.00     0.113 C 
HETATM    2  C7  UNL     1      23.183   4.055  51.131  1.00  0.00     0.070 C 
HETATM    3  C8  UNL     1      23.713   2.664  51.348  1.00  0.00     0.000 C 
HETATM    4  S1  UNL     1      22.507   1.735  50.553  1.00  0.00    -0.127 SA
HETATM    5  N1  UNL     1      22.271   3.373  49.343  1.00  0.00    -0.249 NA
HETATM    6  C9  UNL     1      23.485   4.068  49.599  1.00  0.00     0.107 C 
HETATM    7  C10 UNL     1      24.865   3.515  49.421  1.00  0.00     0.222 C 
HETATM    8  O2  UNL     1      25.861   4.245  50.094  1.00  0.00    -0.278 OA
HETATM    9  N2  UNL     1      26.718   3.453  50.870  1.00  0.00    -0.266 N 
HETATM   10  C11 UNL     1      26.255   2.295  51.663  1.00  0.00     0.067 A 
HETATM   11  C12 UNL     1      27.150   1.460  52.197  1.00  0.00     0.056 A 
HETATM   12  C13 UNL     1      26.659   0.351  52.842  1.00  0.00     0.036 A 
HETATM   13 CL1  UNL     1      27.888  -0.704  53.521  1.00  0.00    -0.084 Cl
HETATM   14  C14 UNL     1      25.320   0.050  52.970  1.00  0.00     0.025 A 
HETATM   15  C15 UNL     1      24.294   0.817  52.471  1.00  0.00     0.016 A 
HETATM   16  C16 UNL     1      24.891   1.877  51.863  1.00  0.00     0.006 A 
HETATM   17  H8  UNL     1      22.140   0.601  50.192  1.00  0.00     0.112 HD
HETATM   18  H12 UNL     1      27.731   3.423  51.079  1.00  0.00     0.194 HD
ENDROOT
BRANCH   1  19
HETATM   19  C5  UNL     1      21.244   5.373  50.330  1.00  0.00    -0.039 A 
HETATM   20  C4  UNL     1      21.772   6.512  50.875  1.00  0.00     0.011 A 
HETATM   21  C3  UNL     1      21.260   7.768  50.628  1.00  0.00     0.037 A 
HETATM   22  C2  UNL     1      20.150   7.815  49.775  1.00  0.00     0.068 A 
HETATM   23  C18 UNL     1      19.607   6.677  49.219  1.00  0.00     0.037 A 
HETATM   24  C17 UNL     1      20.148   5.430  49.488  1.00  0.00     0.011 A 
BRANCH  22  25
HETATM   25  O1  UNL     1      19.590   9.074  49.492  1.00  0.00    -0.356 OA
HETATM   26  C1  UNL     1      20.463  10.146  49.187  1.00  0.00     0.210 C 
ENDBRANCH  22  25
ENDBRANCH   1  19
TORSDOF 2
ENDMDL
MODEL 9
REMARK VINA RESULT:      -7.2      3.993      7.966
REMARK  2 active torsions:
REMARK  status: ('A' for Active; 'I' for Inactive)
REMARK    1  A    between atoms: O1_2  and  C2_3 
REMARK    2  A    between atoms: C5_6  and  C6_7 
ROOT
HETATM    1  C6  UNL     1      23.365   3.407  49.261  1.00  0.00     0.113 C 
HETATM    2  C7  UNL     1      22.487   2.483  49.955  1.00  0.00     0.070 C 
HETATM    3  C8  UNL     1      23.138   1.988  51.217  1.00  0.00     0.000 C 
HETATM    4  S1  UNL     1      24.482   3.053  51.323  1.00  0.00    -0.127 SA
HETATM    5  N1  UNL     1      23.278   4.407  50.362  1.00  0.00    -0.249 NA
HETATM    6  C9  UNL     1      21.999   3.827  50.583  1.00  0.00     0.107 C 
HETATM    7  C10 UNL     1      21.405   3.495  51.917  1.00  0.00     0.222 C 
HETATM    8  O2  UNL     1      20.325   2.596  51.851  1.00  0.00    -0.278 OA
HETATM    9  N2  UNL     1      20.429   1.519  52.740  1.00  0.00    -0.266 N 
HETATM   10  C11 UNL     1      21.703   0.827  53.031  1.00  0.00     0.067 A 
HETATM   11  C12 UNL     1      21.768  -0.040  54.044  1.00  0.00     0.056 A 
HETATM   12  C13 UNL     1      23.000  -0.579  54.324  1.00  0.00     0.036 A 
HETATM   13 CL1  UNL     1      23.015  -1.710  55.667  1.00  0.00    -0.084 Cl
HETATM   14  C14 UNL     1      24.156  -0.285  53.634  1.00  0.00     0.025 A 
HETATM   15  C15 UNL     1      24.235   0.585  52.573  1.00  0.00     0.016 A 
HETATM   16  C16 UNL     1      22.971   1.051  52.386  1.00  0.00     0.006 A 
HETATM   17  H8  UNL     1      25.467   3.418  51.991  1.00  0.00     0.112 HD
HETATM   18  H12 UNL     1      19.790   0.987  53.357  1.00  0.00     0.194 HD
ENDROOT
BRANCH   1  19
HETATM   19  C5  UNL     1      22.754   3.984  48.002  1.00  0.00    -0.039 A 
HETATM   20  C4  UNL     1      22.058   3.208  47.116  1.00  0.00     0.011 A 
HETATM   21  C3  UNL     1      21.492   3.710  45.963  1.00  0.00     0.037 A 
HETATM   22  C2  UNL     1      21.673   5.081  45.744  1.00  0.00     0.068 A 
HETATM   23  C18 UNL     1      22.372   5.876  46.627  1.00  0.00     0.037 A 
HETATM   24  C17 UNL     1      22.927   5.338  47.776  1.00  0.00     0.011 A 
BRANCH  22  25
HETATM   25  O1  UNL     1      21.115   5.642  44.581  1.00  0.00    -0.356 OA
HETATM   26  C1  UNL     1      20.697   4.770  43.547  1.00  0.00     0.210 C 
ENDBRANCH  22  25
ENDBRANCH   1  19
TORSDOF 2
ENDMDL
