MODEL 1
REMARK VINA RESULT:      -9.6      0.000      0.000
REMARK  4 active torsions:
REMARK  status: ('A' for Active; 'I' for Inactive)
REMARK    1  A    between atoms: C7_8  and  C8_9 
REMARK    2  A    between atoms: C8_9  and  N1_10 
REMARK    3  A    between atoms: N1_10  and  C9_11 
REMARK    4  A    between atoms: C15_19  and  N3_20 
ROOT
HETATM    1  C9  UNL     1      17.644  -0.958  52.732  1.00  0.00     0.028 C 
HETATM    2  C10 UNL     1      18.042  -0.056  51.807  1.00  0.00     0.100 C 
HETATM    3  C11 UNL     1      19.104   0.779  51.176  1.00  0.00     0.247 C 
HETATM    4  O1  UNL     1      19.557   1.628  50.381  1.00  0.00    -0.268 OA
HETATM    5  N2  UNL     1      20.424   0.701  51.572  1.00  0.00    -0.323 N 
HETATM    6  C12 UNL     1      21.810   0.620  51.988  1.00  0.00     0.051 A 
HETATM    7  C13 UNL     1      22.781   1.302  51.306  1.00  0.00     0.033 A 
HETATM    8  C14 UNL     1      24.048   1.317  51.811  1.00  0.00     0.031 A 
HETATM    9  C15 UNL     1      24.243   0.634  52.979  1.00  0.00     0.031 A 
HETATM   10  C21 UNL     1      23.330  -0.077  53.723  1.00  0.00     0.048 A 
HETATM   11  C22 UNL     1      22.115  -0.070  53.202  1.00  0.00     0.060 A 
HETATM   12  C23 UNL     1      21.120  -0.900  53.860  1.00  0.00     0.254 C 
HETATM   13  O2  UNL     1      21.249  -1.682  54.817  1.00  0.00    -0.268 OA
HETATM   14  N5  UNL     1      19.763  -1.259  53.833  1.00  0.00    -0.351 N 
HETATM   15  C24 UNL     1      18.403  -1.642  53.833  1.00  0.00     0.179 C 
HETATM   16  H11 UNL     1      20.627  -0.249  51.827  1.00  0.00     0.169 HD
HETATM   17  H26 UNL     1      19.518  -0.439  53.297  1.00  0.00     0.163 HD
ENDROOT
BRANCH   1  18
HETATM   18  N1  UNL     1      16.269  -1.269  52.644  1.00  0.00    -0.387 N 
HETATM   19  H9  UNL     1      15.763  -2.045  53.163  1.00  0.00     0.159 HD
BRANCH  18  20
HETATM   20  C8  UNL     1      15.547  -0.388  51.723  1.00  0.00     0.158 C 
BRANCH  20  21
HETATM   21  C7  UNL     1      14.606   0.451  52.499  1.00  0.00    -0.035 A 
HETATM   22  C2  UNL     1      14.668   1.816  52.329  1.00  0.00    -0.052 A 
HETATM   23  C1  UNL     1      15.643   2.494  51.405  1.00  0.00     0.049 C 
HETATM   24  C3  UNL     1      13.792   2.610  53.045  1.00  0.00     0.031 A 
HETATM   25  C4  UNL     1      12.840   2.140  53.935  1.00  0.00     0.034 A 
HETATM   26 CL1  UNL     1      11.792   3.278  54.776  1.00  0.00    -0.084 Cl
HETATM   27  C5  UNL     1      12.800   0.765  54.086  1.00  0.00     0.024 A 
HETATM   28  C6  UNL     1      13.656  -0.045  53.390  1.00  0.00     0.011 A 
ENDBRANCH  20  21
ENDBRANCH  18  20
ENDBRANCH   1  18
BRANCH   9  29
HETATM   29  N3  UNL     1      25.571   0.690  53.474  1.00  0.00    -0.377 N 
HETATM   30  C16 UNL     1      26.301   1.851  53.847  1.00  0.00     0.153 C 
HETATM   31  C17 UNL     1      27.532   1.903  52.959  1.00  0.00     0.291 C 
HETATM   32  N4  UNL     1      28.429   0.873  53.453  1.00  0.00     0.087 N 
HETATM   33  C18 UNL     1      29.384   1.424  54.402  1.00  0.00     0.310 C 
HETATM   34  C19 UNL     1      27.794  -0.305  53.927  1.00  0.00     0.291 C 
HETATM   35  C20 UNL     1      26.356  -0.490  53.649  1.00  0.00     0.153 C 
ENDBRANCH   9  29
TORSDOF 4
ENDMDL
MODEL 2
REMARK VINA RESULT:      -9.6      1.532      2.980
REMARK  4 active torsions:
REMARK  status: ('A' for Active; 'I' for Inactive)
REMARK    1  A    between atoms: C7_8  and  C8_9 
REMARK    2  A    between atoms: C8_9  and  N1_10 
REMARK    3  A    between atoms: N1_10  and  C9_11 
REMARK    4  A    between atoms: C15_19  and  N3_20 
ROOT
HETATM    1  C9  UNL     1      16.266   0.769  51.966  1.00  0.00     0.028 C 
HETATM    2  C10 UNL     1      16.558  -0.371  52.631  1.00  0.00     0.100 C 
HETATM    3  C11 UNL     1      17.543  -1.288  53.274  1.00  0.00     0.247 C 
HETATM    4  O1  UNL     1      17.912  -2.327  53.857  1.00  0.00    -0.268 OA
HETATM    5  N2  UNL     1      18.880  -0.961  53.379  1.00  0.00    -0.323 N 
HETATM    6  C12 UNL     1      20.284  -0.620  53.490  1.00  0.00     0.051 A 
HETATM    7  C13 UNL     1      21.141  -1.421  54.197  1.00  0.00     0.033 A 
HETATM    8  C14 UNL     1      22.475  -1.145  54.159  1.00  0.00     0.031 A 
HETATM    9  C15 UNL     1      22.851  -0.070  53.403  1.00  0.00     0.031 A 
HETATM   10  C21 UNL     1      22.061   0.785  52.670  1.00  0.00     0.048 A 
HETATM   11  C22 UNL     1      20.774   0.487  52.732  1.00  0.00     0.060 A 
HETATM   12  C23 UNL     1      19.861   1.415  52.086  1.00  0.00     0.254 C 
HETATM   13  O2  UNL     1      20.097   2.500  51.527  1.00  0.00    -0.268 OA
HETATM   14  N5  UNL     1      18.507   1.625  51.780  1.00  0.00    -0.351 N 
HETATM   15  C24 UNL     1      17.153   1.868  51.456  1.00  0.00     0.179 C 
HETATM   16  H11 UNL     1      18.958   0.030  53.523  1.00  0.00     0.169 HD
HETATM   17  H26 UNL     1      18.286   0.649  51.913  1.00  0.00     0.163 HD
ENDROOT
BRANCH   1  18
HETATM   18  N1  UNL     1      14.887   0.911  51.693  1.00  0.00    -0.387 N 
HETATM   19  H9  UNL     1      14.271   0.216  51.179  1.00  0.00     0.159 HD
BRANCH  18  20
HETATM   20  C8  UNL     1      14.335   2.168  52.204  1.00  0.00     0.158 C 
BRANCH  20  21
HETATM   21  C7  UNL     1      13.342   1.864  53.258  1.00  0.00    -0.035 A 
HETATM   22  C2  UNL     1      12.557   2.896  53.722  1.00  0.00    -0.052 A 
HETATM   23  C1  UNL     1      12.662   4.310  53.219  1.00  0.00     0.049 C 
HETATM   24  C3  UNL     1      11.622   2.624  54.704  1.00  0.00     0.031 A 
HETATM   25  C4  UNL     1      11.405   1.379  55.271  1.00  0.00     0.034 A 
HETATM   26 CL1  UNL     1      10.175   1.188  56.516  1.00  0.00    -0.084 Cl
HETATM   27  C5  UNL     1      12.208   0.361  54.786  1.00  0.00     0.024 A 
HETATM   28  C6  UNL     1      13.141   0.602  53.815  1.00  0.00     0.011 A 
ENDBRANCH  20  21
ENDBRANCH  18  20
ENDBRANCH   1  18
BRANCH   9  29
HETATM   29  N3  UNL     1      24.250   0.169  53.381  1.00  0.00    -0.377 N 
HETATM   30  C16 UNL     1      25.280  -0.725  53.779  1.00  0.00     0.153 C 
HETATM   31  C17 UNL     1      26.040  -0.049  54.908  1.00  0.00     0.291 C 
HETATM   32  N4  UNL     1      26.837   0.994  54.288  1.00  0.00     0.087 N 
HETATM   33  C18 UNL     1      28.180   0.518  53.991  1.00  0.00     0.310 C 
HETATM   34  C19 UNL     1      26.225   1.650  53.187  1.00  0.00     0.291 C 
HETATM   35  C20 UNL     1      24.790   1.413  52.936  1.00  0.00     0.153 C 
ENDBRANCH   9  29
TORSDOF 4
ENDMDL
MODEL 3
REMARK VINA RESULT:      -9.4      8.142     11.642
REMARK  4 active torsions:
REMARK  status: ('A' for Active; 'I' for Inactive)
REMARK    1  A    between atoms: C7_8  and  C8_9 
REMARK    2  A    between atoms: C8_9  and  N1_10 
REMARK    3  A    between atoms: N1_10  and  C9_11 
REMARK    4  A    between atoms: C15_19  and  N3_20 
ROOT
HETATM    1  C9  UNL     1      24.916   3.755  51.166  1.00  0.00     0.028 C 
HETATM    2  C10 UNL     1      25.967   3.647  50.323  1.00  0.00     0.100 C 
HETATM    3  C11 UNL     1      26.956   4.260  49.389  1.00  0.00     0.247 C 
HETATM    4  O1  UNL     1      27.899   4.253  48.572  1.00  0.00    -0.268 OA
HETATM    5  N2  UNL     1      27.011   5.622  49.178  1.00  0.00    -0.323 N 
HETATM    6  C12 UNL     1      27.069   7.054  48.956  1.00  0.00     0.051 A 
HETATM    7  C13 UNL     1      28.068   7.599  48.194  1.00  0.00     0.033 A 
HETATM    8  C14 UNL     1      28.007   8.926  47.889  1.00  0.00     0.031 A 
HETATM    9  C15 UNL     1      26.933   9.613  48.382  1.00  0.00     0.031 A 
HETATM   10  C21 UNL     1      25.895   9.147  49.154  1.00  0.00     0.048 A 
HETATM   11  C22 UNL     1      25.988   7.858  49.430  1.00  0.00     0.060 A 
HETATM   12  C23 UNL     1      24.996   7.315  50.344  1.00  0.00     0.254 C 
HETATM   13  O2  UNL     1      24.093   7.896  50.970  1.00  0.00    -0.268 OA
HETATM   14  N5  UNL     1      24.557   6.124  50.944  1.00  0.00    -0.351 N 
HETATM   15  C24 UNL     1      24.091   4.944  51.565  1.00  0.00     0.179 C 
HETATM   16  H11 UNL     1      26.787   6.090  50.039  1.00  0.00     0.169 HD
HETATM   17  H26 UNL     1      25.025   5.558  50.251  1.00  0.00     0.163 HD
ENDROOT
BRANCH   1  18
HETATM   18  N1  UNL     1      24.532   2.518  51.730  1.00  0.00    -0.387 N 
HETATM   19  H9  UNL     1      24.034   1.725  51.230  1.00  0.00     0.159 HD
BRANCH  18  20
HETATM   20  C8  UNL     1      24.892   2.404  53.145  1.00  0.00     0.158 C 
BRANCH  20  21
HETATM   21  C7  UNL     1      26.125   1.595  53.263  1.00  0.00    -0.035 A 
HETATM   22  C2  UNL     1      25.994   0.226  53.325  1.00  0.00    -0.052 A 
HETATM   23  C1  UNL     1      24.668  -0.485  53.284  1.00  0.00     0.049 C 
HETATM   24  C3  UNL     1      27.139  -0.542  53.431  1.00  0.00     0.031 A 
HETATM   25  C4  UNL     1      28.429  -0.042  53.482  1.00  0.00     0.034 A 
HETATM   26 CL1  UNL     1      29.792  -1.149  53.619  1.00  0.00    -0.084 Cl
HETATM   27  C5  UNL     1      28.531   1.337  53.419  1.00  0.00     0.024 A 
HETATM   28  C6  UNL     1      27.415   2.121  53.314  1.00  0.00     0.011 A 
ENDBRANCH  20  21
ENDBRANCH  18  20
ENDBRANCH   1  18
BRANCH   9  29
HETATM   29  N3  UNL     1      26.905  10.987  48.028  1.00  0.00    -0.377 N 
HETATM   30  C16 UNL     1      27.999  11.784  47.594  1.00  0.00     0.153 C 
HETATM   31  C17 UNL     1      28.143  12.919  48.594  1.00  0.00     0.291 C 
HETATM   32  N4  UNL     1      27.044  13.831  48.328  1.00  0.00     0.087 N 
HETATM   33  C18 UNL     1      27.457  14.895  47.426  1.00  0.00     0.310 C 
HETATM   34  C19 UNL     1      25.826  13.214  47.939  1.00  0.00     0.291 C 
HETATM   35  C20 UNL     1      25.701  11.751  48.083  1.00  0.00     0.153 C 
ENDBRANCH   9  29
TORSDOF 4
ENDMDL
MODEL 4
REMARK VINA RESULT:      -9.1      3.830     10.787
REMARK  4 active torsions:
REMARK  status: ('A' for Active; 'I' for Inactive)
REMARK    1  A    between atoms: C7_8  and  C8_9 
REMARK    2  A    between atoms: C8_9  and  N1_10 
REMARK    3  A    between atoms: N1_10  and  C9_11 
REMARK    4  A    between atoms: C15_19  and  N3_20 
ROOT
HETATM    1  C9  UNL     1      23.421   1.055  53.042  1.00  0.00     0.028 C 
HETATM    2  C10 UNL     1      23.041   0.072  53.889  1.00  0.00     0.100 C 
HETATM    3  C11 UNL     1      22.010  -0.871  54.411  1.00  0.00     0.247 C 
HETATM    4  O1  UNL     1      21.561  -1.752  55.172  1.00  0.00    -0.268 OA
HETATM    5  N2  UNL     1      20.756  -0.966  53.844  1.00  0.00    -0.323 N 
HETATM    6  C12 UNL     1      19.438  -1.066  53.248  1.00  0.00     0.051 A 
HETATM    7  C13 UNL     1      18.558  -2.028  53.666  1.00  0.00     0.033 A 
HETATM    8  C14 UNL     1      17.282  -2.000  53.186  1.00  0.00     0.031 A 
HETATM    9  C15 UNL     1      16.985  -0.993  52.311  1.00  0.00     0.031 A 
HETATM   10  C21 UNL     1      17.805   0.006  51.839  1.00  0.00     0.048 A 
HETATM   11  C22 UNL     1      19.033  -0.055  52.324  1.00  0.00     0.060 A 
HETATM   12  C23 UNL     1      19.995   0.890  51.780  1.00  0.00     0.254 C 
HETATM   13  O2  UNL     1      19.858   1.721  50.866  1.00  0.00    -0.268 OA
HETATM   14  N5  UNL     1      21.322   1.333  51.898  1.00  0.00    -0.351 N 
HETATM   15  C24 UNL     1      22.651   1.801  51.989  1.00  0.00     0.179 C 
HETATM   16  H11 UNL     1      20.840  -0.823  52.853  1.00  0.00     0.169 HD
HETATM   17  H26 UNL     1      21.411   0.938  52.823  1.00  0.00     0.163 HD
ENDROOT
BRANCH   1  18
HETATM   18  N1  UNL     1      24.766   1.448  53.219  1.00  0.00    -0.387 N 
HETATM   19  H9  UNL     1      25.176   1.923  54.075  1.00  0.00     0.159 HD
BRANCH  18  20
HETATM   20  C8  UNL     1      25.606   1.132  52.061  1.00  0.00     0.158 C 
BRANCH  20  21
HETATM   21  C7  UNL     1      26.685   0.213  52.486  1.00  0.00    -0.035 A 
HETATM   22  C2  UNL     1      27.820   0.763  53.037  1.00  0.00    -0.052 A 
HETATM   23  C1  UNL     1      28.021   2.243  53.222  1.00  0.00     0.049 C 
HETATM   24  C3  UNL     1      28.834  -0.085  53.442  1.00  0.00     0.031 A 
HETATM   25  C4  UNL     1      28.804  -1.466  53.339  1.00  0.00     0.034 A 
HETATM   26 CL1  UNL     1      30.177  -2.415  53.899  1.00  0.00    -0.084 Cl
HETATM   27  C5  UNL     1      27.651  -1.991  52.781  1.00  0.00     0.024 A 
HETATM   28  C6  UNL     1      26.633  -1.175  52.371  1.00  0.00     0.011 A 
ENDBRANCH  20  21
ENDBRANCH  18  20
ENDBRANCH   1  18
BRANCH   9  29
HETATM   29  N3  UNL     1      15.644  -0.995  51.850  1.00  0.00    -0.377 N 
HETATM   30  C16 UNL     1      14.735  -2.089  51.856  1.00  0.00     0.153 C 
HETATM   31  C17 UNL     1      14.338  -2.341  50.412  1.00  0.00     0.291 C 
HETATM   32  N4  UNL     1      13.433  -1.264  50.050  1.00  0.00     0.087 N 
HETATM   33  C18 UNL     1      12.047  -1.657  50.249  1.00  0.00     0.310 C 
HETATM   34  C19 UNL     1      13.738   0.000  50.621  1.00  0.00     0.291 C 
HETATM   35  C20 UNL     1      15.040   0.173  51.294  1.00  0.00     0.153 C 
ENDBRANCH   9  29
TORSDOF 4
ENDMDL
MODEL 5
REMARK VINA RESULT:      -9.1      8.062     10.958
REMARK  4 active torsions:
REMARK  status: ('A' for Active; 'I' for Inactive)
REMARK    1  A    between atoms: C7_8  and  C8_9 
REMARK    2  A    between atoms: C8_9  and  N1_10 
REMARK    3  A    between atoms: N1_10  and  C9_11 
REMARK    4  A    between atoms: C15_19  and  N3_20 
ROOT
HETATM    1  C9  UNL     1      25.236   3.959  50.396  1.00  0.00     0.028 C 
HETATM    2  C10 UNL     1      26.399   4.011  49.709  1.00  0.00     0.100 C 
HETATM    3  C11 UNL     1      27.463   4.785  49.005  1.00  0.00     0.247 C 
HETATM    4  O1  UNL     1      28.508   4.929  48.340  1.00  0.00    -0.268 OA
HETATM    5  N2  UNL     1      27.450   6.164  48.960  1.00  0.00    -0.323 N 
HETATM    6  C12 UNL     1      27.438   7.613  48.912  1.00  0.00     0.051 A 
HETATM    7  C13 UNL     1      28.491   8.300  48.371  1.00  0.00     0.033 A 
HETATM    8  C14 UNL     1      28.380   9.649  48.213  1.00  0.00     0.031 A 
HETATM    9  C15 UNL     1      27.203  10.213  48.618  1.00  0.00     0.031 A 
HETATM   10  C21 UNL     1      26.102   9.601  49.171  1.00  0.00     0.048 A 
HETATM   11  C22 UNL     1      26.246   8.294  49.310  1.00  0.00     0.060 A 
HETATM   12  C23 UNL     1      25.178   7.592  50.002  1.00  0.00     0.254 C 
HETATM   13  O2  UNL     1      24.159   8.043  50.551  1.00  0.00    -0.268 OA
HETATM   14  N5  UNL     1      24.745   6.315  50.393  1.00  0.00    -0.351 N 
HETATM   15  C24 UNL     1      24.281   5.045  50.802  1.00  0.00     0.179 C 
HETATM   16  H11 UNL     1      27.076   6.511  49.826  1.00  0.00     0.169 HD
HETATM   17  H26 UNL     1      25.344   5.863  49.717  1.00  0.00     0.163 HD
ENDROOT
BRANCH   1  18
HETATM   18  N1  UNL     1      24.865   2.643  50.754  1.00  0.00    -0.387 N 
HETATM   19  H9  UNL     1      24.374   1.936  50.134  1.00  0.00     0.159 HD
BRANCH  18  20
HETATM   20  C8  UNL     1      25.231   2.307  52.132  1.00  0.00     0.158 C 
BRANCH  20  21
HETATM   21  C7  UNL     1      24.209   1.394  52.691  1.00  0.00    -0.035 A 
HETATM   22  C2  UNL     1      24.630   0.181  53.187  1.00  0.00    -0.052 A 
HETATM   23  C1  UNL     1      26.068  -0.264  53.183  1.00  0.00     0.049 C 
HETATM   24  C3  UNL     1      23.686  -0.679  53.716  1.00  0.00     0.031 A 
HETATM   25  C4  UNL     1      22.328  -0.419  53.790  1.00  0.00     0.034 A 
HETATM   26 CL1  UNL     1      21.245  -1.617  54.492  1.00  0.00    -0.084 Cl
HETATM   27  C5  UNL     1      21.932   0.807  53.284  1.00  0.00     0.024 A 
HETATM   28  C6  UNL     1      22.845   1.677  52.755  1.00  0.00     0.011 A 
ENDBRANCH  20  21
ENDBRANCH  18  20
ENDBRANCH   1  18
BRANCH   9  29
HETATM   29  N3  UNL     1      27.127  11.616  48.420  1.00  0.00    -0.377 N 
HETATM   30  C16 UNL     1      25.971  12.377  48.098  1.00  0.00     0.153 C 
HETATM   31  C17 UNL     1      26.247  13.059  46.770  1.00  0.00     0.291 C 
HETATM   32  N4  UNL     1      27.184  14.132  47.056  1.00  0.00     0.087 N 
HETATM   33  C18 UNL     1      26.485  15.388  47.282  1.00  0.00     0.310 C 
HETATM   34  C19 UNL     1      28.146  13.844  48.059  1.00  0.00     0.291 C 
HETATM   35  C20 UNL     1      28.281  12.450  48.525  1.00  0.00     0.153 C 
ENDBRANCH   9  29
TORSDOF 4
ENDMDL
MODEL 6
REMARK VINA RESULT:      -9.0      7.420     12.638
REMARK  4 active torsions:
REMARK  status: ('A' for Active; 'I' for Inactive)
REMARK    1  A    between atoms: C7_8  and  C8_9 
REMARK    2  A    between atoms: C8_9  and  N1_10 
REMARK    3  A    between atoms: N1_10  and  C9_11 
REMARK    4  A    between atoms: C15_19  and  N3_20 
ROOT
HETATM    1  C9  UNL     1      27.579   6.704  48.593  1.00  0.00     0.028 C 
HETATM    2  C10 UNL     1      26.548   7.315  49.217  1.00  0.00     0.100 C 
HETATM    3  C11 UNL     1      25.331   7.262  50.079  1.00  0.00     0.247 C 
HETATM    4  O1  UNL     1      24.334   7.732  50.663  1.00  0.00    -0.268 OA
HETATM    5  N2  UNL     1      24.905   6.088  50.666  1.00  0.00    -0.323 N 
HETATM    6  C12 UNL     1      24.455   4.855  51.281  1.00  0.00     0.051 A 
HETATM    7  C13 UNL     1      23.413   4.861  52.168  1.00  0.00     0.033 A 
HETATM    8  C14 UNL     1      22.927   3.667  52.615  1.00  0.00     0.031 A 
HETATM    9  C15 UNL     1      23.537   2.544  52.129  1.00  0.00     0.031 A 
HETATM   10  C21 UNL     1      24.586   2.450  51.244  1.00  0.00     0.048 A 
HETATM   11  C22 UNL     1      25.030   3.625  50.835  1.00  0.00     0.060 A 
HETATM   12  C23 UNL     1      26.217   3.616  49.996  1.00  0.00     0.254 C 
HETATM   13  O2  UNL     1      26.933   2.662  49.647  1.00  0.00    -0.268 OA
HETATM   14  N5  UNL     1      27.078   4.447  49.262  1.00  0.00    -0.351 N 
HETATM   15  C24 UNL     1      27.965   5.254  48.514  1.00  0.00     0.179 C 
HETATM   16  H11 UNL     1      25.710   5.540  50.912  1.00  0.00     0.169 HD
HETATM   17  H26 UNL     1      26.394   5.189  49.227  1.00  0.00     0.163 HD
ENDROOT
BRANCH   1  18
HETATM   18  N1  UNL     1      28.400   7.602  47.876  1.00  0.00    -0.387 N 
HETATM   19  H9  UNL     1      28.515   7.647  46.821  1.00  0.00     0.159 HD
BRANCH  18  20
HETATM   20  C8  UNL     1      29.129   8.524  48.750  1.00  0.00     0.158 C 
BRANCH  20  21
HETATM   21  C7  UNL     1      30.581   8.271  48.610  1.00  0.00    -0.035 A 
HETATM   22  C2  UNL     1      31.342   9.221  47.966  1.00  0.00    -0.052 A 
HETATM   23  C1  UNL     1      30.775  10.492  47.395  1.00  0.00     0.049 C 
HETATM   24  C3  UNL     1      32.700   8.999  47.834  1.00  0.00     0.031 A 
HETATM   25  C4  UNL     1      33.372   7.881  48.301  1.00  0.00     0.034 A 
HETATM   26 CL1  UNL     1      35.109   7.739  48.055  1.00  0.00    -0.084 Cl
HETATM   27  C5  UNL     1      32.583   6.944  48.944  1.00  0.00     0.024 A 
HETATM   28  C6  UNL     1      31.236   7.137  49.089  1.00  0.00     0.011 A 
ENDBRANCH  20  21
ENDBRANCH  18  20
ENDBRANCH   1  18
BRANCH   9  29
HETATM   29  N3  UNL     1      22.989   1.327  52.609  1.00  0.00    -0.377 N 
HETATM   30  C16 UNL     1      21.639   0.893  52.505  1.00  0.00     0.153 C 
HETATM   31  C17 UNL     1      21.128   0.697  53.923  1.00  0.00     0.291 C 
HETATM   32  N4  UNL     1      21.749  -0.522  54.410  1.00  0.00     0.087 N 
HETATM   33  C18 UNL     1      20.882  -1.671  54.194  1.00  0.00     0.310 C 
HETATM   34  C19 UNL     1      23.080  -0.742  53.968  1.00  0.00     0.291 C 
HETATM   35  C20 UNL     1      23.789   0.364  53.294  1.00  0.00     0.153 C 
ENDBRANCH   9  29
TORSDOF 4
ENDMDL
MODEL 7
REMARK VINA RESULT:      -8.9      6.865      9.255
REMARK  4 active torsions:
REMARK  status: ('A' for Active; 'I' for Inactive)
REMARK    1  A    between atoms: C7_8  and  C8_9 
REMARK    2  A    between atoms: C8_9  and  N1_10 
REMARK    3  A    between atoms: N1_10  and  C9_11 
REMARK    4  A    between atoms: C15_19  and  N3_20 
ROOT
HETATM    1  C9  UNL     1      24.100   3.763  51.901  1.00  0.00     0.028 C 
HETATM    2  C10 UNL     1      25.053   3.162  51.154  1.00  0.00     0.100 C 
HETATM    3  C11 UNL     1      26.153   3.226  50.148  1.00  0.00     0.247 C 
HETATM    4  O1  UNL     1      27.033   2.756  49.399  1.00  0.00    -0.268 OA
HETATM    5  N2  UNL     1      26.596   4.425  49.629  1.00  0.00    -0.323 N 
HETATM    6  C12 UNL     1      27.062   5.685  49.083  1.00  0.00     0.051 A 
HETATM    7  C13 UNL     1      28.156   5.724  48.261  1.00  0.00     0.033 A 
HETATM    8  C14 UNL     1      28.476   6.902  47.654  1.00  0.00     0.031 A 
HETATM    9  C15 UNL     1      27.661   7.965  47.925  1.00  0.00     0.031 A 
HETATM   10  C21 UNL     1      26.551   8.013  48.736  1.00  0.00     0.048 A 
HETATM   11  C22 UNL     1      26.273   6.854  49.308  1.00  0.00     0.060 A 
HETATM   12  C23 UNL     1      25.190   6.851  50.278  1.00  0.00     0.254 C 
HETATM   13  O2  UNL     1      24.511   7.798  50.710  1.00  0.00    -0.268 OA
HETATM   14  N5  UNL     1      24.439   6.013  51.118  1.00  0.00    -0.351 N 
HETATM   15  C24 UNL     1      23.666   5.199  51.975  1.00  0.00     0.179 C 
HETATM   16  H11 UNL     1      26.539   5.127  50.346  1.00  0.00     0.169 HD
HETATM   17  H26 UNL     1      24.705   5.190  50.597  1.00  0.00     0.163 HD
ENDROOT
BRANCH   1  18
HETATM   18  N1  UNL     1      23.387   2.859  52.719  1.00  0.00    -0.387 N 
HETATM   19  H9  UNL     1      22.888   3.089  53.627  1.00  0.00     0.159 HD
BRANCH  18  20
HETATM   20  C8  UNL     1      23.391   1.493  52.190  1.00  0.00     0.158 C 
BRANCH  20  21
HETATM   21  C7  UNL     1      22.097   0.850  52.510  1.00  0.00    -0.035 A 
HETATM   22  C2  UNL     1      21.201   0.658  51.482  1.00  0.00    -0.052 A 
HETATM   23  C1  UNL     1      21.467   1.072  50.060  1.00  0.00     0.049 C 
HETATM   24  C3  UNL     1      19.991   0.054  51.768  1.00  0.00     0.031 A 
HETATM   25  C4  UNL     1      19.595  -0.381  53.022  1.00  0.00     0.034 A 
HETATM   26 CL1  UNL     1      18.017  -1.132  53.230  1.00  0.00    -0.084 Cl
HETATM   27  C5  UNL     1      20.515  -0.175  54.035  1.00  0.00     0.024 A 
HETATM   28  C6  UNL     1      21.721   0.421  53.782  1.00  0.00     0.011 A 
ENDBRANCH  20  21
ENDBRANCH  18  20
ENDBRANCH   1  18
BRANCH   9  29
HETATM   29  N3  UNL     1      28.024   9.164  47.260  1.00  0.00    -0.377 N 
HETATM   30  C16 UNL     1      29.321   9.544  46.820  1.00  0.00     0.153 C 
HETATM   31  C17 UNL     1      29.671  10.836  47.539  1.00  0.00     0.291 C 
HETATM   32  N4  UNL     1      28.877  11.875  46.907  1.00  0.00     0.087 N 
HETATM   33  C18 UNL     1      29.629  12.538  45.853  1.00  0.00     0.310 C 
HETATM   34  C19 UNL     1      27.577  11.477  46.494  1.00  0.00     0.291 C 
HETATM   35  C20 UNL     1      27.061  10.173  46.956  1.00  0.00     0.153 C 
ENDBRANCH   9  29
TORSDOF 4
ENDMDL
MODEL 8
REMARK VINA RESULT:      -8.8      7.643     10.670
REMARK  4 active torsions:
REMARK  status: ('A' for Active; 'I' for Inactive)
REMARK    1  A    between atoms: C7_8  and  C8_9 
REMARK    2  A    between atoms: C8_9  and  N1_10 
REMARK    3  A    between atoms: N1_10  and  C9_11 
REMARK    4  A    between atoms: C15_19  and  N3_20 
ROOT
HETATM    1  C9  UNL     1      25.269   4.156  50.355  1.00  0.00     0.028 C 
HETATM    2  C10 UNL     1      24.853   5.436  50.478  1.00  0.00     0.100 C 
HETATM    3  C11 UNL     1      25.032   6.895  50.220  1.00  0.00     0.247 C 
HETATM    4  O1  UNL     1      24.745   8.105  50.309  1.00  0.00    -0.268 OA
HETATM    5  N2  UNL     1      26.069   7.375  49.447  1.00  0.00    -0.323 N 
HETATM    6  C12 UNL     1      27.158   7.880  48.635  1.00  0.00     0.051 A 
HETATM    7  C13 UNL     1      27.224   9.209  48.310  1.00  0.00     0.033 A 
HETATM    8  C14 UNL     1      28.335   9.670  47.669  1.00  0.00     0.031 A 
HETATM    9  C15 UNL     1      29.308   8.748  47.399  1.00  0.00     0.031 A 
HETATM   10  C21 UNL     1      29.320   7.403  47.686  1.00  0.00     0.048 A 
HETATM   11  C22 UNL     1      28.227   6.991  48.305  1.00  0.00     0.060 A 
HETATM   12  C23 UNL     1      28.107   5.561  48.532  1.00  0.00     0.254 C 
HETATM   13  O2  UNL     1      28.856   4.636  48.172  1.00  0.00    -0.268 OA
HETATM   14  N5  UNL     1      27.292   4.584  49.124  1.00  0.00    -0.351 N 
HETATM   15  C24 UNL     1      26.494   3.575  49.709  1.00  0.00     0.179 C 
HETATM   16  H11 UNL     1      26.254   6.715  48.712  1.00  0.00     0.169 HD
HETATM   17  H26 UNL     1      26.834   5.267  49.710  1.00  0.00     0.163 HD
ENDROOT
BRANCH   1  18
HETATM   18  N1  UNL     1      24.399   3.231  50.976  1.00  0.00    -0.387 N 
HETATM   19  H9  UNL     1      23.338   3.244  50.945  1.00  0.00     0.159 HD
BRANCH  18  20
HETATM   20  C8  UNL     1      25.115   2.187  51.713  1.00  0.00     0.158 C 
BRANCH  20  21
HETATM   21  C7  UNL     1      24.131   1.329  52.409  1.00  0.00    -0.035 A 
HETATM   22  C2  UNL     1      24.570   0.130  52.923  1.00  0.00    -0.052 A 
HETATM   23  C1  UNL     1      25.991  -0.353  52.807  1.00  0.00     0.049 C 
HETATM   24  C3  UNL     1      23.661  -0.679  53.579  1.00  0.00     0.031 A 
HETATM   25  C4  UNL     1      22.321  -0.379  53.767  1.00  0.00     0.034 A 
HETATM   26 CL1  UNL     1      21.283  -1.513  54.625  1.00  0.00    -0.084 Cl
HETATM   27  C5  UNL     1      21.908   0.832  53.240  1.00  0.00     0.024 A 
HETATM   28  C6  UNL     1      22.786   1.652  52.585  1.00  0.00     0.011 A 
ENDBRANCH  20  21
ENDBRANCH  18  20
ENDBRANCH   1  18
BRANCH   9  29
HETATM   29  N3  UNL     1      30.450   9.277  46.745  1.00  0.00    -0.377 N 
HETATM   30  C16 UNL     1      31.487   8.547  46.104  1.00  0.00     0.153 C 
HETATM   31  C17 UNL     1      32.782   8.900  46.817  1.00  0.00     0.291 C 
HETATM   32  N4  UNL     1      33.121  10.246  46.392  1.00  0.00     0.087 N 
HETATM   33  C18 UNL     1      34.033  10.221  45.258  1.00  0.00     0.310 C 
HETATM   34  C19 UNL     1      32.016  11.116  46.195  1.00  0.00     0.291 C 
HETATM   35  C20 UNL     1      30.687  10.683  46.671  1.00  0.00     0.153 C 
ENDBRANCH   9  29
TORSDOF 4
ENDMDL
MODEL 9
REMARK VINA RESULT:      -8.8      7.971     11.608
REMARK  4 active torsions:
REMARK  status: ('A' for Active; 'I' for Inactive)
REMARK    1  A    between atoms: C7_8  and  C8_9 
REMARK    2  A    between atoms: C8_9  and  N1_10 
REMARK    3  A    between atoms: N1_10  and  C9_11 
REMARK    4  A    between atoms: C15_19  and  N3_20 
ROOT
HETATM    1  C9  UNL     1      25.419   3.463  50.763  1.00  0.00     0.028 C 
HETATM    2  C10 UNL     1      24.665   4.583  50.836  1.00  0.00     0.100 C 
HETATM    3  C11 UNL     1      24.402   6.003  50.463  1.00  0.00     0.247 C 
HETATM    4  O1  UNL     1      23.788   7.089  50.494  1.00  0.00    -0.268 OA
HETATM    5  N2  UNL     1      25.201   6.679  49.564  1.00  0.00    -0.323 N 
HETATM    6  C12 UNL     1      26.041   7.390  48.620  1.00  0.00     0.051 A 
HETATM    7  C13 UNL     1      25.702   8.648  48.199  1.00  0.00     0.033 A 
HETATM    8  C14 UNL     1      26.587   9.340  47.426  1.00  0.00     0.031 A 
HETATM    9  C15 UNL     1      27.760   8.704  47.131  1.00  0.00     0.031 A 
HETATM   10  C21 UNL     1      28.176   7.448  47.507  1.00  0.00     0.048 A 
HETATM   11  C22 UNL     1      27.293   6.808  48.253  1.00  0.00     0.060 A 
HETATM   12  C23 UNL     1      27.602   5.428  48.588  1.00  0.00     0.254 C 
HETATM   13  O2  UNL     1      28.556   4.719  48.224  1.00  0.00    -0.268 OA
HETATM   14  N5  UNL     1      27.143   4.321  49.321  1.00  0.00    -0.351 N 
HETATM   15  C24 UNL     1      26.710   3.189  50.046  1.00  0.00     0.179 C 
HETATM   16  H11 UNL     1      25.514   6.032  48.862  1.00  0.00     0.169 HD
HETATM   17  H26 UNL     1      26.552   4.901  49.898  1.00  0.00     0.163 HD
ENDROOT
BRANCH   1  18
HETATM   18  N1  UNL     1      24.896   2.395  51.525  1.00  0.00    -0.387 N 
HETATM   19  H9  UNL     1      24.145   1.710  51.218  1.00  0.00     0.159 HD
BRANCH  18  20
HETATM   20  C8  UNL     1      25.502   2.296  52.855  1.00  0.00     0.158 C 
BRANCH  20  21
HETATM   21  C7  UNL     1      26.325   1.068  52.917  1.00  0.00    -0.035 A 
HETATM   22  C2  UNL     1      27.660   1.201  53.225  1.00  0.00    -0.052 A 
HETATM   23  C1  UNL     1      28.323   2.526  53.492  1.00  0.00     0.049 C 
HETATM   24  C3  UNL     1      28.439   0.061  53.291  1.00  0.00     0.031 A 
HETATM   25  C4  UNL     1      27.981  -1.228  53.070  1.00  0.00     0.034 A 
HETATM   26 CL1  UNL     1      29.097  -2.585  53.189  1.00  0.00    -0.084 Cl
HETATM   27  C5  UNL     1      26.636  -1.332  52.763  1.00  0.00     0.024 A 
HETATM   28  C6  UNL     1      25.842  -0.220  52.690  1.00  0.00     0.011 A 
ENDBRANCH  20  21
ENDBRANCH  18  20
ENDBRANCH   1  18
BRANCH   9  29
HETATM   29  N3  UNL     1      28.655   9.467  46.337  1.00  0.00    -0.377 N 
HETATM   30  C16 UNL     1      28.788   9.436  44.922  1.00  0.00     0.153 C 
HETATM   31  C17 UNL     1      30.218   9.019  44.622  1.00  0.00     0.291 C 
HETATM   32  N4  UNL     1      31.046  10.172  44.928  1.00  0.00     0.087 N 
HETATM   33  C18 UNL     1      31.284  10.974  43.738  1.00  0.00     0.310 C 
HETATM   34  C19 UNL     1      30.621  10.944  46.042  1.00  0.00     0.291 C 
HETATM   35  C20 UNL     1      29.572  10.392  46.921  1.00  0.00     0.153 C 
ENDBRANCH   9  29
TORSDOF 4
ENDMDL
