MODEL 1
REMARK VINA RESULT:      -8.0      0.000      0.000
REMARK  8 active torsions:
REMARK  status: ('A' for Active; 'I' for Inactive)
REMARK    1  A    between atoms: O1_2  and  C2_3 
REMARK    2  A    between atoms: C5_6  and  C6_7 
REMARK    3  A    between atoms: C6_7  and  O2_8 
REMARK    4  A    between atoms: C6_7  and  C7_9 
REMARK    5  A    between atoms: C7_9  and  C8_10 
REMARK    6  A    between atoms: C8_10  and  C9_11 
REMARK    7  A    between atoms: C10_12  and  C11_13 
REMARK    8  A    between atoms: C11_13  and  C12_14 
ROOT
HETATM    1  C9  UNL     1      25.707   0.127  53.388  1.00  0.00    -0.027 C 
HETATM    2  C10 UNL     1      26.406  -0.042  54.512  1.00  0.00     0.018 C 
HETATM    3  N2  UNL     1      25.575  -0.649  55.534  1.00  0.00    -0.384 N 
HETATM    4  C14 UNL     1      24.485  -1.288  54.820  1.00  0.00     0.116 C 
HETATM    5  C15 UNL     1      23.141  -1.117  55.483  1.00  0.00     0.034 C 
HETATM    6  C16 UNL     1      22.257  -1.282  54.226  1.00  0.00     0.037 C 
HETATM    7  C17 UNL     1      23.016  -0.383  53.294  1.00  0.00    -0.075 C 
HETATM    8  C18 UNL     1      22.480   0.397  52.158  1.00  0.00     0.044 C 
HETATM    9  C19 UNL     1      24.318  -0.361  53.625  1.00  0.00    -0.025 C 
HETATM   10  H16 UNL     1      25.626  -0.695  56.572  1.00  0.00     0.160 HD
ENDROOT
BRANCH   1  11
HETATM   11  C8  UNL     1      25.936   0.668  52.033  1.00  0.00     0.044 C 
BRANCH  11  12
HETATM   12  C7  UNL     1      26.713   1.958  51.984  1.00  0.00     0.041 C 
BRANCH  12  13
HETATM   13  C6  UNL     1      26.148   2.750  50.789  1.00  0.00     0.151 C 
BRANCH  13  14
HETATM   14  C5  UNL     1      24.787   3.220  51.060  1.00  0.00    -0.029 A 
HETATM   15  C4  UNL     1      23.945   3.120  49.952  1.00  0.00     0.012 A 
HETATM   16  C3  UNL     1      22.617   3.529  50.053  1.00  0.00     0.037 A 
HETATM   17  C2  UNL     1      22.184   4.024  51.263  1.00  0.00     0.068 A 
HETATM   18  C21 UNL     1      23.019   4.122  52.358  1.00  0.00     0.037 A 
HETATM   19  C20 UNL     1      24.352   3.714  52.263  1.00  0.00     0.012 A 
BRANCH  17  20
HETATM   20  O1  UNL     1      20.904   4.476  51.548  1.00  0.00    -0.356 OA
HETATM   21  C1  UNL     1      19.764   3.664  51.361  1.00  0.00     0.210 C 
ENDBRANCH  17  20
ENDBRANCH  13  14
BRANCH  13  22
HETATM   22  O2  UNL     1      26.985   3.823  50.491  1.00  0.00    -0.391 OA
HETATM   23  H7  UNL     1      26.473   4.650  50.312  1.00  0.00     0.210 HD
ENDBRANCH  13  22
ENDBRANCH  12  13
ENDBRANCH  11  12
ENDBRANCH   1  11
BRANCH   2  24
HETATM   24  C11 UNL     1      27.792   0.239  54.956  1.00  0.00     0.113 C 
BRANCH  24  25
HETATM   25  C12 UNL     1      28.754  -0.569  54.145  1.00  0.00     0.032 A 
HETATM   26  N1  UNL     1      28.987  -1.696  53.465  1.00  0.00    -0.291 NA
HETATM   27  C13 UNL     1      30.048  -0.858  53.468  1.00  0.00     0.203 A 
ENDBRANCH  24  25
ENDBRANCH   2  24
TORSDOF 8
ENDMDL
MODEL 2
REMARK VINA RESULT:      -7.7      2.745      3.984
REMARK  8 active torsions:
REMARK  status: ('A' for Active; 'I' for Inactive)
REMARK    1  A    between atoms: O1_2  and  C2_3 
REMARK    2  A    between atoms: C5_6  and  C6_7 
REMARK    3  A    between atoms: C6_7  and  O2_8 
REMARK    4  A    between atoms: C6_7  and  C7_9 
REMARK    5  A    between atoms: C7_9  and  C8_10 
REMARK    6  A    between atoms: C8_10  and  C9_11 
REMARK    7  A    between atoms: C10_12  and  C11_13 
REMARK    8  A    between atoms: C11_13  and  C12_14 
ROOT
HETATM    1  C9  UNL     1      24.057   1.087  52.037  1.00  0.00    -0.027 C 
HETATM    2  C10 UNL     1      24.962   0.304  52.629  1.00  0.00     0.018 C 
HETATM    3  N2  UNL     1      24.330  -0.513  53.647  1.00  0.00    -0.384 N 
HETATM    4  C14 UNL     1      22.920  -0.539  53.305  1.00  0.00     0.116 C 
HETATM    5  C15 UNL     1      22.002  -0.414  54.495  1.00  0.00     0.034 C 
HETATM    6  C16 UNL     1      20.775   0.172  53.762  1.00  0.00     0.037 C 
HETATM    7  C17 UNL     1      21.476   1.218  52.946  1.00  0.00    -0.075 C 
HETATM    8  C18 UNL     1      20.929   2.508  52.474  1.00  0.00     0.044 C 
HETATM    9  C19 UNL     1      22.733   0.832  52.672  1.00  0.00    -0.025 C 
HETATM   10  H16 UNL     1      24.681  -1.020  54.484  1.00  0.00     0.160 HD
ENDROOT
BRANCH   1  11
HETATM   11  C8  UNL     1      24.032   2.112  50.974  1.00  0.00     0.044 C 
BRANCH  11  12
HETATM   12  C7  UNL     1      24.784   3.379  51.291  1.00  0.00     0.041 C 
BRANCH  12  13
HETATM   13  C6  UNL     1      26.049   3.354  50.410  1.00  0.00     0.151 C 
BRANCH  13  14
HETATM   14  C5  UNL     1      26.179   4.591  49.635  1.00  0.00    -0.029 A 
HETATM   15  C4  UNL     1      27.418   4.711  49.004  1.00  0.00     0.012 A 
HETATM   16  C3  UNL     1      27.694   5.834  48.229  1.00  0.00     0.037 A 
HETATM   17  C2  UNL     1      26.715   6.796  48.115  1.00  0.00     0.068 A 
HETATM   18  C21 UNL     1      25.489   6.676  48.739  1.00  0.00     0.037 A 
HETATM   19  C20 UNL     1      25.207   5.552  49.519  1.00  0.00     0.012 A 
BRANCH  17  20
HETATM   20  O1  UNL     1      26.810   7.975  47.389  1.00  0.00    -0.356 OA
HETATM   21  C1  UNL     1      27.956   8.295  46.627  1.00  0.00     0.210 C 
ENDBRANCH  17  20
ENDBRANCH  13  14
BRANCH  13  22
HETATM   22  O2  UNL     1      27.177   3.155  51.203  1.00  0.00    -0.391 OA
HETATM   23  H7  UNL     1      28.009   3.397  50.727  1.00  0.00     0.210 HD
ENDBRANCH  13  22
ENDBRANCH  12  13
ENDBRANCH  11  12
ENDBRANCH   1  11
BRANCH   2  24
HETATM   24  C11 UNL     1      26.421   0.079  52.500  1.00  0.00     0.113 C 
BRANCH  24  25
HETATM   25  C12 UNL     1      27.072   0.224  53.838  1.00  0.00     0.032 A 
HETATM   26  N1  UNL     1      26.943   0.561  55.125  1.00  0.00    -0.291 NA
HETATM   27  C13 UNL     1      28.196   0.159  54.813  1.00  0.00     0.203 A 
ENDBRANCH  24  25
ENDBRANCH   2  24
TORSDOF 8
ENDMDL
MODEL 3
REMARK VINA RESULT:      -7.6      1.624      2.058
REMARK  8 active torsions:
REMARK  status: ('A' for Active; 'I' for Inactive)
REMARK    1  A    between atoms: O1_2  and  C2_3 
REMARK    2  A    between atoms: C5_6  and  C6_7 
REMARK    3  A    between atoms: C6_7  and  O2_8 
REMARK    4  A    between atoms: C6_7  and  C7_9 
REMARK    5  A    between atoms: C7_9  and  C8_10 
REMARK    6  A    between atoms: C8_10  and  C9_11 
REMARK    7  A    between atoms: C10_12  and  C11_13 
REMARK    8  A    between atoms: C11_13  and  C12_14 
ROOT
HETATM    1  C9  UNL     1      25.533   0.231  53.376  1.00  0.00    -0.027 C 
HETATM    2  C10 UNL     1      26.322   0.055  54.438  1.00  0.00     0.018 C 
HETATM    3  N2  UNL     1      25.605  -0.644  55.486  1.00  0.00    -0.384 N 
HETATM    4  C14 UNL     1      24.502  -1.315  54.822  1.00  0.00     0.116 C 
HETATM    5  C15 UNL     1      23.203  -1.253  55.586  1.00  0.00     0.034 C 
HETATM    6  C16 UNL     1      22.239  -1.415  54.390  1.00  0.00     0.037 C 
HETATM    7  C17 UNL     1      22.876  -0.433  53.450  1.00  0.00    -0.075 C 
HETATM    8  C18 UNL     1      22.215   0.363  52.394  1.00  0.00     0.044 C 
HETATM    9  C19 UNL     1      24.196  -0.348  53.687  1.00  0.00    -0.025 C 
HETATM   10  H16 UNL     1      25.734  -0.732  56.514  1.00  0.00     0.160 HD
ENDROOT
BRANCH   1  11
HETATM   11  C8  UNL     1      25.632   0.844  52.036  1.00  0.00     0.044 C 
BRANCH  11  12
HETATM   12  C7  UNL     1      25.551   2.348  52.013  1.00  0.00     0.041 C 
BRANCH  12  13
HETATM   13  C6  UNL     1      26.176   2.788  50.675  1.00  0.00     0.151 C 
BRANCH  13  14
HETATM   14  C5  UNL     1      25.235   3.588  49.887  1.00  0.00    -0.029 A 
HETATM   15  C4  UNL     1      25.730   4.853  49.568  1.00  0.00     0.012 A 
HETATM   16  C3  UNL     1      24.949   5.733  48.821  1.00  0.00     0.037 A 
HETATM   17  C2  UNL     1      23.701   5.310  48.423  1.00  0.00     0.068 A 
HETATM   18  C21 UNL     1      23.213   4.058  48.740  1.00  0.00     0.037 A 
HETATM   19  C20 UNL     1      23.990   3.171  49.489  1.00  0.00     0.012 A 
BRANCH  17  20
HETATM   20  O1  UNL     1      22.790   6.045  47.678  1.00  0.00    -0.356 OA
HETATM   21  C1  UNL     1      21.933   5.439  46.733  1.00  0.00     0.210 C 
ENDBRANCH  17  20
ENDBRANCH  13  14
BRANCH  13  22
HETATM   22  O2  UNL     1      27.348   3.505  50.911  1.00  0.00    -0.391 OA
HETATM   23  H7  UNL     1      28.047   3.296  50.245  1.00  0.00     0.210 HD
ENDBRANCH  13  22
ENDBRANCH  12  13
ENDBRANCH  11  12
ENDBRANCH   1  11
BRANCH   2  24
HETATM   24  C11 UNL     1      27.719   0.398  54.795  1.00  0.00     0.113 C 
BRANCH  24  25
HETATM   25  C12 UNL     1      28.659  -0.546  54.115  1.00  0.00     0.032 A 
HETATM   26  N1  UNL     1      28.822  -1.703  53.467  1.00  0.00    -0.291 NA
HETATM   27  C13 UNL     1      29.979  -1.020  53.616  1.00  0.00     0.203 A 
ENDBRANCH  24  25
ENDBRANCH   2  24
TORSDOF 8
ENDMDL
MODEL 4
REMARK VINA RESULT:      -7.5      2.431      3.981
REMARK  8 active torsions:
REMARK  status: ('A' for Active; 'I' for Inactive)
REMARK    1  A    between atoms: O1_2  and  C2_3 
REMARK    2  A    between atoms: C5_6  and  C6_7 
REMARK    3  A    between atoms: C6_7  and  O2_8 
REMARK    4  A    between atoms: C6_7  and  C7_9 
REMARK    5  A    between atoms: C7_9  and  C8_10 
REMARK    6  A    between atoms: C8_10  and  C9_11 
REMARK    7  A    between atoms: C10_12  and  C11_13 
REMARK    8  A    between atoms: C11_13  and  C12_14 
ROOT
HETATM    1  C9  UNL     1      23.957   1.077  52.362  1.00  0.00    -0.027 C 
HETATM    2  C10 UNL     1      25.151   0.704  52.829  1.00  0.00     0.018 C 
HETATM    3  N2  UNL     1      24.992  -0.272  53.890  1.00  0.00    -0.384 N 
HETATM    4  C14 UNL     1      23.667  -0.836  53.704  1.00  0.00     0.116 C 
HETATM    5  C15 UNL     1      22.910  -1.045  54.991  1.00  0.00     0.034 C 
HETATM    6  C16 UNL     1      21.478  -0.980  54.414  1.00  0.00     0.037 C 
HETATM    7  C17 UNL     1      21.636   0.239  53.552  1.00  0.00    -0.075 C 
HETATM    8  C18 UNL     1      20.594   1.219  53.177  1.00  0.00     0.044 C 
HETATM    9  C19 UNL     1      22.908   0.352  53.132  1.00  0.00    -0.025 C 
HETATM   10  H16 UNL     1      25.599  -0.595  54.670  1.00  0.00     0.160 HD
ENDROOT
BRANCH   1  11
HETATM   11  C8  UNL     1      23.429   1.997  51.335  1.00  0.00     0.044 C 
BRANCH  11  12
HETATM   12  C7  UNL     1      24.115   3.337  51.265  1.00  0.00     0.041 C 
BRANCH  12  13
HETATM   13  C6  UNL     1      23.899   3.851  49.828  1.00  0.00     0.151 C 
BRANCH  13  14
HETATM   14  C5  UNL     1      25.062   4.607  49.355  1.00  0.00    -0.029 A 
HETATM   15  C4  UNL     1      26.244   3.865  49.384  1.00  0.00     0.012 A 
HETATM   16  C3  UNL     1      27.437   4.448  48.964  1.00  0.00     0.037 A 
HETATM   17  C2  UNL     1      27.400   5.755  48.531  1.00  0.00     0.068 A 
HETATM   18  C21 UNL     1      26.230   6.487  48.503  1.00  0.00     0.037 A 
HETATM   19  C20 UNL     1      25.030   5.908  48.923  1.00  0.00     0.012 A 
BRANCH  17  20
HETATM   20  O1  UNL     1      28.483   6.494  48.079  1.00  0.00    -0.356 OA
HETATM   21  C1  UNL     1      29.768   5.928  47.931  1.00  0.00     0.210 C 
ENDBRANCH  17  20
ENDBRANCH  13  14
BRANCH  13  22
HETATM   22  O2  UNL     1      23.634   2.781  48.975  1.00  0.00    -0.391 OA
HETATM   23  H7  UNL     1      24.331   2.083  49.033  1.00  0.00     0.210 HD
ENDBRANCH  13  22
ENDBRANCH  12  13
ENDBRANCH  11  12
ENDBRANCH   1  11
BRANCH   2  24
HETATM   24  C11 UNL     1      26.563   1.044  52.535  1.00  0.00     0.113 C 
BRANCH  24  25
HETATM   25  C12 UNL     1      27.461   0.357  53.513  1.00  0.00     0.032 A 
HETATM   26  N1  UNL     1      27.858  -0.795  54.062  1.00  0.00    -0.291 NA
HETATM   27  C13 UNL     1      28.514   0.277  54.562  1.00  0.00     0.203 A 
ENDBRANCH  24  25
ENDBRANCH   2  24
TORSDOF 8
ENDMDL
MODEL 5
REMARK VINA RESULT:      -7.4      2.787      6.179
REMARK  8 active torsions:
REMARK  status: ('A' for Active; 'I' for Inactive)
REMARK    1  A    between atoms: O1_2  and  C2_3 
REMARK    2  A    between atoms: C5_6  and  C6_7 
REMARK    3  A    between atoms: C6_7  and  O2_8 
REMARK    4  A    between atoms: C6_7  and  C7_9 
REMARK    5  A    between atoms: C7_9  and  C8_10 
REMARK    6  A    between atoms: C8_10  and  C9_11 
REMARK    7  A    between atoms: C10_12  and  C11_13 
REMARK    8  A    between atoms: C11_13  and  C12_14 
ROOT
HETATM    1  C9  UNL     1      21.387   0.648  51.867  1.00  0.00    -0.027 C 
HETATM    2  C10 UNL     1      20.067   0.448  51.866  1.00  0.00     0.018 C 
HETATM    3  N2  UNL     1      19.685  -0.388  52.987  1.00  0.00    -0.384 N 
HETATM    4  C14 UNL     1      20.771  -0.277  53.943  1.00  0.00     0.116 C 
HETATM    5  C15 UNL     1      21.138  -1.583  54.601  1.00  0.00     0.034 C 
HETATM    6  C16 UNL     1      22.604  -1.245  54.953  1.00  0.00     0.037 C 
HETATM    7  C17 UNL     1      23.023  -0.654  53.638  1.00  0.00    -0.075 C 
HETATM    8  C18 UNL     1      24.375  -0.652  53.041  1.00  0.00     0.044 C 
HETATM    9  C19 UNL     1      21.969  -0.090  53.024  1.00  0.00    -0.025 C 
HETATM   10  H16 UNL     1      18.858  -0.985  53.193  1.00  0.00     0.160 HD
ENDROOT
BRANCH   1  11
HETATM   11  C8  UNL     1      22.381   1.365  51.043  1.00  0.00     0.044 C 
BRANCH  11  12
HETATM   12  C7  UNL     1      22.425   2.857  51.250  1.00  0.00     0.041 C 
BRANCH  12  13
HETATM   13  C6  UNL     1      23.846   3.300  50.850  1.00  0.00     0.151 C 
BRANCH  13  14
HETATM   14  C5  UNL     1      24.837   2.857  51.835  1.00  0.00    -0.029 A 
HETATM   15  C4  UNL     1      25.991   2.335  51.250  1.00  0.00     0.012 A 
HETATM   16  C3  UNL     1      27.027   1.871  52.057  1.00  0.00     0.037 A 
HETATM   17  C2  UNL     1      26.865   1.948  53.423  1.00  0.00     0.068 A 
HETATM   18  C21 UNL     1      25.723   2.466  54.000  1.00  0.00     0.037 A 
HETATM   19  C20 UNL     1      24.680   2.932  53.195  1.00  0.00     0.012 A 
BRANCH  17  20
HETATM   20  O1  UNL     1      27.785   1.538  54.377  1.00  0.00    -0.356 OA
HETATM   21  C1  UNL     1      28.272   0.213  54.427  1.00  0.00     0.210 C 
ENDBRANCH  17  20
ENDBRANCH  13  14
BRANCH  13  22
HETATM   22  O2  UNL     1      24.160   2.805  49.586  1.00  0.00    -0.391 OA
HETATM   23  H7  UNL     1      23.502   3.089  48.905  1.00  0.00     0.210 HD
ENDBRANCH  13  22
ENDBRANCH  12  13
ENDBRANCH  11  12
ENDBRANCH   1  11
BRANCH   2  24
HETATM   24  C11 UNL     1      18.929   0.862  51.011  1.00  0.00     0.113 C 
BRANCH  24  25
HETATM   25  C12 UNL     1      18.484   2.236  51.396  1.00  0.00     0.032 A 
HETATM   26  N1  UNL     1      18.790   3.397  51.983  1.00  0.00    -0.291 NA
HETATM   27  C13 UNL     1      17.529   3.375  51.492  1.00  0.00     0.203 A 
ENDBRANCH  24  25
ENDBRANCH   2  24
TORSDOF 8
ENDMDL
MODEL 6
REMARK VINA RESULT:      -7.1      2.964      5.162
REMARK  8 active torsions:
REMARK  status: ('A' for Active; 'I' for Inactive)
REMARK    1  A    between atoms: O1_2  and  C2_3 
REMARK    2  A    between atoms: C5_6  and  C6_7 
REMARK    3  A    between atoms: C6_7  and  O2_8 
REMARK    4  A    between atoms: C6_7  and  C7_9 
REMARK    5  A    between atoms: C7_9  and  C8_10 
REMARK    6  A    between atoms: C8_10  and  C9_11 
REMARK    7  A    between atoms: C10_12  and  C11_13 
REMARK    8  A    between atoms: C11_13  and  C12_14 
ROOT
HETATM    1  C9  UNL     1      24.698   1.103  52.459  1.00  0.00    -0.027 C 
HETATM    2  C10 UNL     1      25.900   0.534  52.571  1.00  0.00     0.018 C 
HETATM    3  N2  UNL     1      26.828   1.130  51.630  1.00  0.00    -0.384 N 
HETATM    4  C14 UNL     1      26.258   2.420  51.287  1.00  0.00     0.116 C 
HETATM    5  C15 UNL     1      26.372   2.766  49.823  1.00  0.00     0.034 C 
HETATM    6  C16 UNL     1      25.175   3.738  49.736  1.00  0.00     0.037 C 
HETATM    7  C17 UNL     1      24.160   2.917  50.477  1.00  0.00    -0.075 C 
HETATM    8  C18 UNL     1      22.693   2.916  50.294  1.00  0.00     0.044 C 
HETATM    9  C19 UNL     1      24.767   2.131  51.383  1.00  0.00    -0.025 C 
HETATM   10  H16 UNL     1      27.727   0.820  51.208  1.00  0.00     0.160 HD
ENDROOT
BRANCH   1  11
HETATM   11  C8  UNL     1      23.367   0.970  53.085  1.00  0.00     0.044 C 
BRANCH  11  12
HETATM   12  C7  UNL     1      22.813  -0.431  53.117  1.00  0.00     0.041 C 
BRANCH  12  13
HETATM   13  C6  UNL     1      21.595  -0.386  54.060  1.00  0.00     0.151 C 
BRANCH  13  14
HETATM   14  C5  UNL     1      20.339  -0.462  53.309  1.00  0.00    -0.029 A 
HETATM   15  C4  UNL     1      20.384   0.240  52.103  1.00  0.00     0.012 A 
HETATM   16  C3  UNL     1      19.264   0.262  51.275  1.00  0.00     0.037 A 
HETATM   17  C2  UNL     1      18.141  -0.419  51.688  1.00  0.00     0.068 A 
HETATM   18  C21 UNL     1      18.099  -1.112  52.881  1.00  0.00     0.037 A 
HETATM   19  C20 UNL     1      19.219  -1.138  53.717  1.00  0.00     0.012 A 
BRANCH  17  20
HETATM   20  O1  UNL     1      16.940  -0.507  50.998  1.00  0.00    -0.356 OA
HETATM   21  C1  UNL     1      16.786   0.013  49.694  1.00  0.00     0.210 C 
ENDBRANCH  17  20
ENDBRANCH  13  14
BRANCH  13  22
HETATM   22  O2  UNL     1      21.672  -1.425  54.987  1.00  0.00    -0.391 OA
HETATM   23  H7  UNL     1      20.918  -2.057  54.893  1.00  0.00     0.210 HD
ENDBRANCH  13  22
ENDBRANCH  12  13
ENDBRANCH  11  12
ENDBRANCH   1  11
BRANCH   2  24
HETATM   24  C11 UNL     1      26.496  -0.538  53.403  1.00  0.00     0.113 C 
BRANCH  24  25
HETATM   25  C12 UNL     1      27.769  -0.049  54.017  1.00  0.00     0.032 A 
HETATM   26  N1  UNL     1      28.356   0.621  55.013  1.00  0.00    -0.291 NA
HETATM   27  C13 UNL     1      29.244   0.137  54.114  1.00  0.00     0.203 A 
ENDBRANCH  24  25
ENDBRANCH   2  24
TORSDOF 8
ENDMDL
MODEL 7
REMARK VINA RESULT:      -7.1      2.206      4.493
REMARK  8 active torsions:
REMARK  status: ('A' for Active; 'I' for Inactive)
REMARK    1  A    between atoms: O1_2  and  C2_3 
REMARK    2  A    between atoms: C5_6  and  C6_7 
REMARK    3  A    between atoms: C6_7  and  O2_8 
REMARK    4  A    between atoms: C6_7  and  C7_9 
REMARK    5  A    between atoms: C7_9  and  C8_10 
REMARK    6  A    between atoms: C8_10  and  C9_11 
REMARK    7  A    between atoms: C10_12  and  C11_13 
REMARK    8  A    between atoms: C11_13  and  C12_14 
ROOT
HETATM    1  C9  UNL     1      24.038   1.389  51.647  1.00  0.00    -0.027 C 
HETATM    2  C10 UNL     1      25.123   0.952  52.290  1.00  0.00     0.018 C 
HETATM    3  N2  UNL     1      26.298   1.673  51.842  1.00  0.00    -0.384 N 
HETATM    4  C14 UNL     1      25.799   2.904  51.256  1.00  0.00     0.116 C 
HETATM    5  C15 UNL     1      26.506   3.304  49.986  1.00  0.00     0.034 C 
HETATM    6  C16 UNL     1      25.370   4.142  49.359  1.00  0.00     0.037 C 
HETATM    7  C17 UNL     1      24.231   3.193  49.594  1.00  0.00    -0.075 C 
HETATM    8  C18 UNL     1      23.005   3.039  48.783  1.00  0.00     0.044 C 
HETATM    9  C19 UNL     1      24.460   2.452  50.691  1.00  0.00    -0.025 C 
HETATM   10  H16 UNL     1      27.319   1.476  51.867  1.00  0.00     0.160 HD
ENDROOT
BRANCH   1  11
HETATM   11  C8  UNL     1      22.592   1.094  51.626  1.00  0.00     0.044 C 
BRANCH  11  12
HETATM   12  C7  UNL     1      21.836   1.512  52.861  1.00  0.00     0.041 C 
BRANCH  12  13
HETATM   13  C6  UNL     1      20.635   2.340  52.364  1.00  0.00     0.151 C 
BRANCH  13  14
HETATM   14  C5  UNL     1      21.058   3.667  51.908  1.00  0.00    -0.029 A 
HETATM   15  C4  UNL     1      20.273   4.160  50.865  1.00  0.00     0.012 A 
HETATM   16  C3  UNL     1      20.551   5.412  50.322  1.00  0.00     0.037 A 
HETATM   17  C2  UNL     1      21.608   6.122  50.845  1.00  0.00     0.068 A 
HETATM   18  C21 UNL     1      22.384   5.633  51.877  1.00  0.00     0.037 A 
HETATM   19  C20 UNL     1      22.110   4.378  52.426  1.00  0.00     0.012 A 
BRANCH  17  20
HETATM   20  O1  UNL     1      22.031   7.378  50.433  1.00  0.00    -0.356 OA
HETATM   21  C1  UNL     1      23.368   7.806  50.584  1.00  0.00     0.210 C 
ENDBRANCH  17  20
ENDBRANCH  13  14
BRANCH  13  22
HETATM   22  O2  UNL     1      19.977   1.659  51.342  1.00  0.00    -0.391 OA
HETATM   23  H7  UNL     1      19.073   1.370  51.615  1.00  0.00     0.210 HD
ENDBRANCH  13  22
ENDBRANCH  12  13
ENDBRANCH  11  12
ENDBRANCH   1  11
BRANCH   2  24
HETATM   24  C11 UNL     1      25.407  -0.073  53.322  1.00  0.00     0.113 C 
BRANCH  24  25
HETATM   25  C12 UNL     1      26.624   0.318  54.098  1.00  0.00     0.032 A 
HETATM   26  N1  UNL     1      27.290   1.282  54.742  1.00  0.00    -0.291 NA
HETATM   27  C13 UNL     1      27.944   0.098  54.751  1.00  0.00     0.203 A 
ENDBRANCH  24  25
ENDBRANCH   2  24
TORSDOF 8
ENDMDL
MODEL 8
REMARK VINA RESULT:      -7.0      3.094      5.832
REMARK  8 active torsions:
REMARK  status: ('A' for Active; 'I' for Inactive)
REMARK    1  A    between atoms: O1_2  and  C2_3 
REMARK    2  A    between atoms: C5_6  and  C6_7 
REMARK    3  A    between atoms: C6_7  and  O2_8 
REMARK    4  A    between atoms: C6_7  and  C7_9 
REMARK    5  A    between atoms: C7_9  and  C8_10 
REMARK    6  A    between atoms: C8_10  and  C9_11 
REMARK    7  A    between atoms: C10_12  and  C11_13 
REMARK    8  A    between atoms: C11_13  and  C12_14 
ROOT
HETATM    1  C9  UNL     1      21.768   0.665  52.020  1.00  0.00    -0.027 C 
HETATM    2  C10 UNL     1      20.452   0.446  52.070  1.00  0.00     0.018 C 
HETATM    3  N2  UNL     1      20.124  -0.380  53.215  1.00  0.00    -0.384 N 
HETATM    4  C14 UNL     1      21.243  -0.240  54.129  1.00  0.00     0.116 C 
HETATM    5  C15 UNL     1      21.653  -1.532  54.791  1.00  0.00     0.034 C 
HETATM    6  C16 UNL     1      23.125  -1.168  55.084  1.00  0.00     0.037 C 
HETATM    7  C17 UNL     1      23.487  -0.589  53.747  1.00  0.00    -0.075 C 
HETATM    8  C18 UNL     1      24.816  -0.576  53.100  1.00  0.00     0.044 C 
HETATM    9  C19 UNL     1      22.403  -0.048  53.164  1.00  0.00    -0.025 C 
HETATM   10  H16 UNL     1      19.314  -0.986  53.459  1.00  0.00     0.160 HD
ENDROOT
BRANCH   1  11
HETATM   11  C8  UNL     1      22.720   1.385  51.151  1.00  0.00     0.044 C 
BRANCH  11  12
HETATM   12  C7  UNL     1      23.091   2.768  51.619  1.00  0.00     0.041 C 
BRANCH  12  13
HETATM   13  C6  UNL     1      24.616   2.747  51.845  1.00  0.00     0.151 C 
BRANCH  13  14
HETATM   14  C5  UNL     1      25.310   3.585  50.863  1.00  0.00    -0.029 A 
HETATM   15  C4  UNL     1      24.730   4.846  50.717  1.00  0.00     0.012 A 
HETATM   16  C3  UNL     1      25.277   5.758  49.818  1.00  0.00     0.037 A 
HETATM   17  C2  UNL     1      26.386   5.370  49.098  1.00  0.00     0.068 A 
HETATM   18  C21 UNL     1      26.957   4.122  49.244  1.00  0.00     0.037 A 
HETATM   19  C20 UNL     1      26.413   3.202  50.144  1.00  0.00     0.012 A 
BRANCH  17  20
HETATM   20  O1  UNL     1      27.062   6.141  48.164  1.00  0.00    -0.356 OA
HETATM   21  C1  UNL     1      26.629   7.438  47.808  1.00  0.00     0.210 C 
ENDBRANCH  17  20
ENDBRANCH  13  14
BRANCH  13  22
HETATM   22  O2  UNL     1      24.911   3.168  53.140  1.00  0.00    -0.391 OA
HETATM   23  H7  UNL     1      25.764   3.665  53.180  1.00  0.00     0.210 HD
ENDBRANCH  13  22
ENDBRANCH  12  13
ENDBRANCH  11  12
ENDBRANCH   1  11
BRANCH   2  24
HETATM   24  C11 UNL     1      19.278   0.831  51.252  1.00  0.00     0.113 C 
BRANCH  24  25
HETATM   25  C12 UNL     1      18.942   2.268  51.499  1.00  0.00     0.032 A 
HETATM   26  N1  UNL     1      19.229   3.396  52.156  1.00  0.00    -0.291 NA
HETATM   27  C13 UNL     1      18.174   3.531  51.319  1.00  0.00     0.203 A 
ENDBRANCH  24  25
ENDBRANCH   2  24
TORSDOF 8
ENDMDL
MODEL 9
REMARK VINA RESULT:      -7.0      4.370      7.037
REMARK  8 active torsions:
REMARK  status: ('A' for Active; 'I' for Inactive)
REMARK    1  A    between atoms: O1_2  and  C2_3 
REMARK    2  A    between atoms: C5_6  and  C6_7 
REMARK    3  A    between atoms: C6_7  and  O2_8 
REMARK    4  A    between atoms: C6_7  and  C7_9 
REMARK    5  A    between atoms: C7_9  and  C8_10 
REMARK    6  A    between atoms: C8_10  and  C9_11 
REMARK    7  A    between atoms: C10_12  and  C11_13 
REMARK    8  A    between atoms: C11_13  and  C12_14 
ROOT
HETATM    1  C9  UNL     1      25.995   5.082  49.311  1.00  0.00    -0.027 C 
HETATM    2  C10 UNL     1      27.101   5.740  48.957  1.00  0.00     0.018 C 
HETATM    3  N2  UNL     1      26.960   7.153  49.249  1.00  0.00    -0.384 N 
HETATM    4  C14 UNL     1      25.910   7.241  50.247  1.00  0.00     0.116 C 
HETATM    5  C15 UNL     1      24.955   8.388  50.026  1.00  0.00     0.034 C 
HETATM    6  C16 UNL     1      23.732   7.796  50.762  1.00  0.00     0.037 C 
HETATM    7  C17 UNL     1      23.763   6.414  50.177  1.00  0.00    -0.075 C 
HETATM    8  C18 UNL     1      22.618   5.505  49.953  1.00  0.00     0.044 C 
HETATM    9  C19 UNL     1      25.022   6.069  49.860  1.00  0.00    -0.025 C 
HETATM   10  H16 UNL     1      27.432   8.012  48.900  1.00  0.00     0.160 HD
ENDROOT
BRANCH   1  11
HETATM   11  C8  UNL     1      25.499   3.692  49.284  1.00  0.00     0.044 C 
BRANCH  11  12
HETATM   12  C7  UNL     1      26.444   2.665  49.852  1.00  0.00     0.041 C 
BRANCH  12  13
HETATM   13  C6  UNL     1      26.450   2.890  51.377  1.00  0.00     0.151 C 
BRANCH  13  14
HETATM   14  C5  UNL     1      25.646   1.876  52.066  1.00  0.00    -0.029 A 
HETATM   15  C4  UNL     1      24.391   2.348  52.452  1.00  0.00     0.012 A 
HETATM   16  C3  UNL     1      23.509   1.500  53.119  1.00  0.00     0.037 A 
HETATM   17  C2  UNL     1      23.921   0.211  53.374  1.00  0.00     0.068 A 
HETATM   18  C21 UNL     1      25.163  -0.253  52.991  1.00  0.00     0.037 A 
HETATM   19  C20 UNL     1      26.052   0.592  52.322  1.00  0.00     0.012 A 
BRANCH  17  20
HETATM   20  O1  UNL     1      23.182  -0.768  54.023  1.00  0.00    -0.356 OA
HETATM   21  C1  UNL     1      22.004  -1.311  53.465  1.00  0.00     0.210 C 
ENDBRANCH  17  20
ENDBRANCH  13  14
BRANCH  13  22
HETATM   22  O2  UNL     1      27.760   2.881  51.854  1.00  0.00    -0.391 OA
HETATM   23  H7  UNL     1      27.795   3.014  52.833  1.00  0.00     0.210 HD
ENDBRANCH  13  22
ENDBRANCH  12  13
ENDBRANCH  11  12
ENDBRANCH   1  11
BRANCH   2  24
HETATM   24  C11 UNL     1      28.403   5.381  48.347  1.00  0.00     0.113 C 
BRANCH  24  25
HETATM   25  C12 UNL     1      29.151   6.625  47.988  1.00  0.00     0.032 A 
HETATM   26  N1  UNL     1      29.671   7.786  48.398  1.00  0.00    -0.291 NA
HETATM   27  C13 UNL     1      29.866   7.562  47.078  1.00  0.00     0.203 A 
ENDBRANCH  24  25
ENDBRANCH   2  24
TORSDOF 8
ENDMDL
