MODEL 1
REMARK VINA RESULT:      -7.8      0.000      0.000
REMARK  4 active torsions:
REMARK  status: ('A' for Active; 'I' for Inactive)
REMARK    1  A    between atoms: C2_2  and  C3_3 
REMARK       I    between atoms: C3_3  and  N1_5 
REMARK    2  A    between atoms: N1_5  and  C4_6 
REMARK    3  A    between atoms: C8_10  and  N2_11 
REMARK    4  A    between atoms: C9_12  and  C10_13 
ROOT
HETATM    1  C4  UNL     1      25.101   0.952  52.715  1.00  0.00     0.037 A 
HETATM    2  C5  UNL     1      25.233   2.344  52.777  1.00  0.00     0.029 A 
HETATM    3  C6  UNL     1      24.133   3.199  52.810  1.00  0.00     0.004 A 
HETATM    4  C7  UNL     1      22.897   2.604  52.780  1.00  0.00     0.030 A 
HETATM    5  C8  UNL     1      22.685   1.242  52.719  1.00  0.00     0.043 A 
HETATM    6  C17 UNL     1      23.815   0.448  52.689  1.00  0.00     0.059 A 
ENDROOT
BRANCH   5   7
HETATM    7  N2  UNL     1      21.397   0.637  52.688  1.00  0.00    -0.293 N 
HETATM    8  C9  UNL     1      21.010  -0.142  53.739  1.00  0.00     0.152 A 
HETATM    9  N4  UNL     1      19.759  -0.615  53.507  1.00  0.00    -0.227 NA
HETATM   10  C11 UNL     1      19.339  -0.146  52.312  1.00  0.00     0.086 A 
HETATM   11  C12 UNL     1      18.217  -0.240  51.515  1.00  0.00     0.034 A 
HETATM   12  C16 UNL     1      20.378   0.630  51.827  1.00  0.00     0.070 A 
HETATM   13  C13 UNL     1      18.124   0.405  50.291  1.00  0.00     0.002 A 
HETATM   14  C14 UNL     1      19.192   1.176  49.839  1.00  0.00     0.002 A 
HETATM   15  C15 UNL     1      20.320   1.285  50.614  1.00  0.00     0.032 A 
BRANCH   8  16
HETATM   16  C10 UNL     1      21.636  -0.554  55.008  1.00  0.00     0.158 C 
HETATM   17  N3  UNL     1      21.945  -1.812  55.101  1.00  0.00    -0.308 NA
HETATM   18  H9  UNL     1      21.754  -2.481  54.314  1.00  0.00     0.186 HD
ENDBRANCH   8  16
ENDBRANCH   5   7
BRANCH   1  19
HETATM   19  N1  UNL     1      26.266   0.133  52.683  1.00  0.00    -0.324 N 
HETATM   20  C3  UNL     1      27.075  -0.531  53.622  1.00  0.00     0.244 C 
HETATM   21  O1  UNL     1      26.616  -0.324  54.773  1.00  0.00    -0.268 OA
HETATM   22  H4  UNL     1      26.353   0.179  51.632  1.00  0.00     0.169 HD
BRANCH  20  23
HETATM   23  C2  UNL     1      28.204  -1.271  53.077  1.00  0.00     0.064 C 
HETATM   24  C1  UNL     1      29.467  -1.244  53.453  1.00  0.00     0.017 C 
ENDBRANCH  20  23
ENDBRANCH   1  19
TORSDOF 4
ENDMDL
MODEL 2
REMARK VINA RESULT:      -7.7      2.569      3.759
REMARK  4 active torsions:
REMARK  status: ('A' for Active; 'I' for Inactive)
REMARK    1  A    between atoms: C2_2  and  C3_3 
REMARK       I    between atoms: C3_3  and  N1_5 
REMARK    2  A    between atoms: N1_5  and  C4_6 
REMARK    3  A    between atoms: C8_10  and  N2_11 
REMARK    4  A    between atoms: C9_12  and  C10_13 
ROOT
HETATM    1  C4  UNL     1      25.374   0.036  53.217  1.00  0.00     0.037 A 
HETATM    2  C5  UNL     1      24.480  -0.701  54.004  1.00  0.00     0.029 A 
HETATM    3  C6  UNL     1      23.105  -0.473  53.986  1.00  0.00     0.004 A 
HETATM    4  C7  UNL     1      22.662   0.522  53.152  1.00  0.00     0.030 A 
HETATM    5  C8  UNL     1      23.479   1.291  52.348  1.00  0.00     0.043 A 
HETATM    6  C17 UNL     1      24.831   1.017  52.409  1.00  0.00     0.059 A 
ENDROOT
BRANCH   5   7
HETATM    7  N2  UNL     1      23.007   2.321  51.486  1.00  0.00    -0.293 N 
HETATM    8  C9  UNL     1      23.188   3.622  51.853  1.00  0.00     0.152 A 
HETATM    9  N4  UNL     1      22.668   4.432  50.896  1.00  0.00    -0.227 NA
HETATM   10  C11 UNL     1      22.154   3.660  49.915  1.00  0.00     0.086 A 
HETATM   11  C12 UNL     1      21.508   3.837  48.708  1.00  0.00     0.034 A 
HETATM   12  C16 UNL     1      22.380   2.352  50.309  1.00  0.00     0.070 A 
HETATM   13  C13 UNL     1      21.102   2.768  47.924  1.00  0.00     0.002 A 
HETATM   14  C14 UNL     1      21.348   1.467  48.356  1.00  0.00     0.002 A 
HETATM   15  C15 UNL     1      21.990   1.266  49.553  1.00  0.00     0.032 A 
BRANCH   8  16
HETATM   16  C10 UNL     1      23.798   4.294  53.014  1.00  0.00     0.158 C 
HETATM   17  N3  UNL     1      23.848   5.589  52.953  1.00  0.00    -0.308 NA
HETATM   18  H9  UNL     1      23.472   6.112  52.122  1.00  0.00     0.186 HD
ENDBRANCH   8  16
ENDBRANCH   5   7
BRANCH   1  19
HETATM   19  N1  UNL     1      26.768  -0.247  53.281  1.00  0.00    -0.324 N 
HETATM   20  C3  UNL     1      27.863   0.180  54.052  1.00  0.00     0.244 C 
HETATM   21  O1  UNL     1      27.466   1.028  54.889  1.00  0.00    -0.268 OA
HETATM   22  H4  UNL     1      26.732  -0.946  52.491  1.00  0.00     0.169 HD
BRANCH  20  23
HETATM   23  C2  UNL     1      29.146  -0.426  53.724  1.00  0.00     0.064 C 
HETATM   24  C1  UNL     1      29.402  -1.666  53.355  1.00  0.00     0.017 C 
ENDBRANCH  20  23
ENDBRANCH   1  19
TORSDOF 4
ENDMDL
MODEL 3
REMARK VINA RESULT:      -7.2      1.618      2.892
REMARK  4 active torsions:
REMARK  status: ('A' for Active; 'I' for Inactive)
REMARK    1  A    between atoms: C2_2  and  C3_3 
REMARK       I    between atoms: C3_3  and  N1_5 
REMARK    2  A    between atoms: N1_5  and  C4_6 
REMARK    3  A    between atoms: C8_10  and  N2_11 
REMARK    4  A    between atoms: C9_12  and  C10_13 
ROOT
HETATM    1  C4  UNL     1      25.461   1.214  52.686  1.00  0.00     0.037 A 
HETATM    2  C5  UNL     1      25.563   2.463  53.310  1.00  0.00     0.029 A 
HETATM    3  C6  UNL     1      24.508   3.373  53.340  1.00  0.00     0.004 A 
HETATM    4  C7  UNL     1      23.348   2.983  52.720  1.00  0.00     0.030 A 
HETATM    5  C8  UNL     1      23.169   1.771  52.084  1.00  0.00     0.043 A 
HETATM    6  C17 UNL     1      24.251   0.912  52.089  1.00  0.00     0.059 A 
ENDROOT
BRANCH   5   7
HETATM    7  N2  UNL     1      21.961   1.378  51.444  1.00  0.00    -0.293 N 
HETATM    8  C9  UNL     1      21.794   1.661  50.120  1.00  0.00     0.152 A 
HETATM    9  N4  UNL     1      20.583   1.201  49.714  1.00  0.00    -0.227 NA
HETATM   10  C11 UNL     1      19.969   0.625  50.770  1.00  0.00     0.086 A 
HETATM   11  C12 UNL     1      18.772  -0.009  51.034  1.00  0.00     0.034 A 
HETATM   12  C16 UNL     1      20.849   0.749  51.831  1.00  0.00     0.070 A 
HETATM   13  C13 UNL     1      18.458  -0.500  52.293  1.00  0.00     0.002 A 
HETATM   14  C14 UNL     1      19.371  -0.355  53.333  1.00  0.00     0.002 A 
HETATM   15  C15 UNL     1      20.569   0.272  53.095  1.00  0.00     0.032 A 
BRANCH   8  16
HETATM   16  C10 UNL     1      22.615   2.327  49.093  1.00  0.00     0.158 C 
HETATM   17  N3  UNL     1      22.357   1.997  47.865  1.00  0.00    -0.308 NA
HETATM   18  H9  UNL     1      21.607   1.298  47.632  1.00  0.00     0.186 HD
ENDBRANCH   8  16
ENDBRANCH   5   7
BRANCH   1  19
HETATM   19  N1  UNL     1      26.577   0.329  52.691  1.00  0.00    -0.324 N 
HETATM   20  C3  UNL     1      27.025  -0.746  53.477  1.00  0.00     0.244 C 
HETATM   21  O1  UNL     1      26.199  -0.945  54.403  1.00  0.00    -0.268 OA
HETATM   22  H4  UNL     1      27.015   0.769  51.837  1.00  0.00     0.169 HD
BRANCH  20  23
HETATM   23  C2  UNL     1      28.281  -1.356  53.064  1.00  0.00     0.064 C 
HETATM   24  C1  UNL     1      29.507  -1.057  53.442  1.00  0.00     0.017 C 
ENDBRANCH  20  23
ENDBRANCH   1  19
TORSDOF 4
ENDMDL
MODEL 4
REMARK VINA RESULT:      -7.2      2.379      4.390
REMARK  4 active torsions:
REMARK  status: ('A' for Active; 'I' for Inactive)
REMARK    1  A    between atoms: C2_2  and  C3_3 
REMARK       I    between atoms: C3_3  and  N1_5 
REMARK    2  A    between atoms: N1_5  and  C4_6 
REMARK    3  A    between atoms: C8_10  and  N2_11 
REMARK    4  A    between atoms: C9_12  and  C10_13 
ROOT
HETATM    1  C4  UNL     1      24.916   0.040  53.058  1.00  0.00     0.037 A 
HETATM    2  C5  UNL     1      23.975  -0.539  53.919  1.00  0.00     0.029 A 
HETATM    3  C6  UNL     1      22.639  -0.146  53.939  1.00  0.00     0.004 A 
HETATM    4  C7  UNL     1      22.282   0.849  53.064  1.00  0.00     0.030 A 
HETATM    5  C8  UNL     1      23.148   1.468  52.187  1.00  0.00     0.043 A 
HETATM    6  C17 UNL     1      24.460   1.034  52.214  1.00  0.00     0.059 A 
ENDROOT
BRANCH   5   7
HETATM    7  N2  UNL     1      22.766   2.499  51.284  1.00  0.00    -0.293 N 
HETATM    8  C9  UNL     1      22.039   2.170  50.177  1.00  0.00     0.152 A 
HETATM    9  N4  UNL     1      21.783   3.294  49.460  1.00  0.00    -0.227 NA
HETATM   10  C11 UNL     1      22.343   4.344  50.098  1.00  0.00     0.086 A 
HETATM   11  C12 UNL     1      22.454   5.708  49.917  1.00  0.00     0.034 A 
HETATM   12  C16 UNL     1      22.946   3.820  51.229  1.00  0.00     0.070 A 
HETATM   13  C13 UNL     1      23.132   6.519  50.815  1.00  0.00     0.002 A 
HETATM   14  C14 UNL     1      23.725   5.953  51.940  1.00  0.00     0.002 A 
HETATM   15  C15 UNL     1      23.627   4.598  52.142  1.00  0.00     0.032 A 
BRANCH   8  16
HETATM   16  C10 UNL     1      21.502   0.912  49.629  1.00  0.00     0.158 C 
HETATM   17  N3  UNL     1      21.330   0.886  48.343  1.00  0.00    -0.308 NA
HETATM   18  H9  UNL     1      21.563   1.717  47.744  1.00  0.00     0.186 HD
ENDBRANCH   8  16
ENDBRANCH   5   7
BRANCH   1  19
HETATM   19  N1  UNL     1      26.268  -0.408  53.086  1.00  0.00    -0.324 N 
HETATM   20  C3  UNL     1      27.428  -0.107  53.820  1.00  0.00     0.244 C 
HETATM   21  O1  UNL     1      27.160   0.791  54.656  1.00  0.00    -0.268 OA
HETATM   22  H4  UNL     1      26.125  -1.106  52.308  1.00  0.00     0.169 HD
BRANCH  20  23
HETATM   23  C2  UNL     1      28.619  -0.866  53.465  1.00  0.00     0.064 C 
HETATM   24  C1  UNL     1      29.883  -0.576  53.700  1.00  0.00     0.017 C 
ENDBRANCH  20  23
ENDBRANCH   1  19
TORSDOF 4
ENDMDL
MODEL 5
REMARK VINA RESULT:      -7.1      3.015      6.829
REMARK  4 active torsions:
REMARK  status: ('A' for Active; 'I' for Inactive)
REMARK    1  A    between atoms: C2_2  and  C3_3 
REMARK       I    between atoms: C3_3  and  N1_5 
REMARK    2  A    between atoms: N1_5  and  C4_6 
REMARK    3  A    between atoms: C8_10  and  N2_11 
REMARK    4  A    between atoms: C9_12  and  C10_13 
ROOT
HETATM    1  C4  UNL     1      23.438   3.757  52.265  1.00  0.00     0.037 A 
HETATM    2  C5  UNL     1      22.223   3.137  51.949  1.00  0.00     0.029 A 
HETATM    3  C6  UNL     1      21.978   1.792  52.217  1.00  0.00     0.004 A 
HETATM    4  C7  UNL     1      22.997   1.092  52.813  1.00  0.00     0.030 A 
HETATM    5  C8  UNL     1      24.221   1.631  53.154  1.00  0.00     0.043 A 
HETATM    6  C17 UNL     1      24.403   2.969  52.863  1.00  0.00     0.059 A 
ENDROOT
BRANCH   5   7
HETATM    7  N2  UNL     1      25.271   0.896  53.772  1.00  0.00    -0.293 N 
HETATM    8  C9  UNL     1      24.970  -0.273  54.409  1.00  0.00     0.152 A 
HETATM    9  N4  UNL     1      26.108  -0.807  54.922  1.00  0.00    -0.227 NA
HETATM   10  C11 UNL     1      27.138   0.011  54.620  1.00  0.00     0.086 A 
HETATM   11  C12 UNL     1      28.501   0.058  54.831  1.00  0.00     0.034 A 
HETATM   12  C16 UNL     1      26.588   1.061  53.904  1.00  0.00     0.070 A 
HETATM   13  C13 UNL     1      29.287   1.097  54.355  1.00  0.00     0.002 A 
HETATM   14  C14 UNL     1      28.695   2.134  53.639  1.00  0.00     0.002 A 
HETATM   15  C15 UNL     1      27.340   2.109  53.416  1.00  0.00     0.032 A 
BRANCH   8  16
HETATM   16  C10 UNL     1      23.730  -1.035  54.642  1.00  0.00     0.158 C 
HETATM   17  N3  UNL     1      23.584  -1.520  55.836  1.00  0.00    -0.308 NA
HETATM   18  H9  UNL     1      24.312  -1.371  56.580  1.00  0.00     0.186 HD
ENDBRANCH   8  16
ENDBRANCH   5   7
BRANCH   1  19
HETATM   19  N1  UNL     1      23.625   5.136  51.964  1.00  0.00    -0.324 N 
HETATM   20  C3  UNL     1      24.196   5.887  50.922  1.00  0.00     0.244 C 
HETATM   21  O1  UNL     1      24.643   5.100  50.051  1.00  0.00    -0.268 OA
HETATM   22  H4  UNL     1      23.159   5.463  52.853  1.00  0.00     0.169 HD
BRANCH  20  23
HETATM   23  C2  UNL     1      24.142   7.334  51.078  1.00  0.00     0.064 C 
HETATM   24  C1  UNL     1      23.811   8.248  50.187  1.00  0.00     0.017 C 
ENDBRANCH  20  23
ENDBRANCH   1  19
TORSDOF 4
ENDMDL
MODEL 6
REMARK VINA RESULT:      -7.1      3.829      6.057
REMARK  4 active torsions:
REMARK  status: ('A' for Active; 'I' for Inactive)
REMARK    1  A    between atoms: C2_2  and  C3_3 
REMARK       I    between atoms: C3_3  and  N1_5 
REMARK    2  A    between atoms: N1_5  and  C4_6 
REMARK    3  A    between atoms: C8_10  and  N2_11 
REMARK    4  A    between atoms: C9_12  and  C10_13 
ROOT
HETATM    1  C4  UNL     1      24.209   4.895  49.960  1.00  0.00     0.037 A 
HETATM    2  C5  UNL     1      23.455   4.591  48.820  1.00  0.00     0.029 A 
HETATM    3  C6  UNL     1      22.891   3.334  48.609  1.00  0.00     0.004 A 
HETATM    4  C7  UNL     1      23.113   2.395  49.584  1.00  0.00     0.030 A 
HETATM    5  C8  UNL     1      23.844   2.617  50.734  1.00  0.00     0.043 A 
HETATM    6  C17 UNL     1      24.376   3.883  50.885  1.00  0.00     0.059 A 
ENDROOT
BRANCH   5   7
HETATM    7  N2  UNL     1      24.067   1.634  51.738  1.00  0.00    -0.293 N 
HETATM    8  C9  UNL     1      25.344   1.224  51.987  1.00  0.00     0.152 A 
HETATM    9  N4  UNL     1      25.330   0.292  52.973  1.00  0.00    -0.227 NA
HETATM   10  C11 UNL     1      24.051   0.099  53.360  1.00  0.00     0.086 A 
HETATM   11  C12 UNL     1      23.366  -0.675  54.275  1.00  0.00     0.034 A 
HETATM   12  C16 UNL     1      23.288   0.947  52.576  1.00  0.00     0.070 A 
HETATM   13  C13 UNL     1      21.987  -0.614  54.409  1.00  0.00     0.002 A 
HETATM   14  C14 UNL     1      21.257   0.252  53.601  1.00  0.00     0.002 A 
HETATM   15  C15 UNL     1      21.916   1.033  52.683  1.00  0.00     0.032 A 
BRANCH   8  16
HETATM   16  C10 UNL     1      26.667   1.567  51.434  1.00  0.00     0.158 C 
HETATM   17  N3  UNL     1      27.320   2.491  52.069  1.00  0.00    -0.308 NA
HETATM   18  H9  UNL     1      26.918   2.956  52.922  1.00  0.00     0.186 HD
ENDBRANCH   8  16
ENDBRANCH   5   7
BRANCH   1  19
HETATM   19  N1  UNL     1      24.758   6.200  50.115  1.00  0.00    -0.324 N 
HETATM   20  C3  UNL     1      25.923   6.873  49.711  1.00  0.00     0.244 C 
HETATM   21  O1  UNL     1      26.636   6.086  49.041  1.00  0.00    -0.268 OA
HETATM   22  H4  UNL     1      23.942   6.549  50.688  1.00  0.00     0.169 HD
BRANCH  20  23
HETATM   23  C2  UNL     1      26.036   8.261  50.136  1.00  0.00     0.064 C 
HETATM   24  C1  UNL     1      27.105   9.031  50.167  1.00  0.00     0.017 C 
ENDBRANCH  20  23
ENDBRANCH   1  19
TORSDOF 4
ENDMDL
MODEL 7
REMARK VINA RESULT:      -7.1      3.762      6.268
REMARK  4 active torsions:
REMARK  status: ('A' for Active; 'I' for Inactive)
REMARK    1  A    between atoms: C2_2  and  C3_3 
REMARK       I    between atoms: C3_3  and  N1_5 
REMARK    2  A    between atoms: N1_5  and  C4_6 
REMARK    3  A    between atoms: C8_10  and  N2_11 
REMARK    4  A    between atoms: C9_12  and  C10_13 
ROOT
HETATM    1  C4  UNL     1      25.616   1.298  52.505  1.00  0.00     0.037 A 
HETATM    2  C5  UNL     1      24.359   0.682  52.515  1.00  0.00     0.029 A 
HETATM    3  C6  UNL     1      23.239   1.257  51.918  1.00  0.00     0.004 A 
HETATM    4  C7  UNL     1      23.428   2.473  51.311  1.00  0.00     0.030 A 
HETATM    5  C8  UNL     1      24.633   3.143  51.259  1.00  0.00     0.043 A 
HETATM    6  C17 UNL     1      25.705   2.522  51.869  1.00  0.00     0.059 A 
ENDROOT
BRANCH   5   7
HETATM    7  N2  UNL     1      24.816   4.405  50.626  1.00  0.00    -0.293 N 
HETATM    8  C9  UNL     1      23.882   5.380  50.819  1.00  0.00     0.152 A 
HETATM    9  N4  UNL     1      24.250   6.492  50.132  1.00  0.00    -0.227 NA
HETATM   10  C11 UNL     1      25.414   6.237  49.498  1.00  0.00     0.086 A 
HETATM   11  C12 UNL     1      26.293   6.904  48.668  1.00  0.00     0.034 A 
HETATM   12  C16 UNL     1      25.743   4.932  49.824  1.00  0.00     0.070 A 
HETATM   13  C13 UNL     1      27.446   6.307  48.181  1.00  0.00     0.002 A 
HETATM   14  C14 UNL     1      27.740   4.992  48.532  1.00  0.00     0.002 A 
HETATM   15  C15 UNL     1      26.881   4.308  49.358  1.00  0.00     0.032 A 
BRANCH   8  16
HETATM   16  C10 UNL     1      22.624   5.471  51.579  1.00  0.00     0.158 C 
HETATM   17  N3  UNL     1      21.989   6.599  51.485  1.00  0.00    -0.308 NA
HETATM   18  H9  UNL     1      22.361   7.388  50.899  1.00  0.00     0.186 HD
ENDBRANCH   8  16
ENDBRANCH   5   7
BRANCH   1  19
HETATM   19  N1  UNL     1      26.721   0.657  53.134  1.00  0.00    -0.324 N 
HETATM   20  C3  UNL     1      27.491  -0.499  52.917  1.00  0.00     0.244 C 
HETATM   21  O1  UNL     1      27.061  -1.088  51.894  1.00  0.00    -0.268 OA
HETATM   22  H4  UNL     1      26.798   1.385  53.894  1.00  0.00     0.169 HD
BRANCH  20  23
HETATM   23  C2  UNL     1      28.559  -0.740  53.876  1.00  0.00     0.064 C 
HETATM   24  C1  UNL     1      29.665  -1.441  53.721  1.00  0.00     0.017 C 
ENDBRANCH  20  23
ENDBRANCH   1  19
TORSDOF 4
ENDMDL
MODEL 8
REMARK VINA RESULT:      -7.0      2.368      7.177
REMARK  4 active torsions:
REMARK  status: ('A' for Active; 'I' for Inactive)
REMARK    1  A    between atoms: C2_2  and  C3_3 
REMARK       I    between atoms: C3_3  and  N1_5 
REMARK    2  A    between atoms: N1_5  and  C4_6 
REMARK    3  A    between atoms: C8_10  and  N2_11 
REMARK    4  A    between atoms: C9_12  and  C10_13 
ROOT
HETATM    1  C4  UNL     1      20.928  -0.071  52.512  1.00  0.00     0.037 A 
HETATM    2  C5  UNL     1      20.642  -0.825  53.657  1.00  0.00     0.029 A 
HETATM    3  C6  UNL     1      21.591  -1.068  54.647  1.00  0.00     0.004 A 
HETATM    4  C7  UNL     1      22.837  -0.527  54.446  1.00  0.00     0.030 A 
HETATM    5  C8  UNL     1      23.194   0.225  53.346  1.00  0.00     0.043 A 
HETATM    6  C17 UNL     1      22.210   0.431  52.399  1.00  0.00     0.059 A 
ENDROOT
BRANCH   5   7
HETATM    7  N2  UNL     1      24.490   0.781  53.148  1.00  0.00    -0.293 N 
HETATM    8  C9  UNL     1      24.605   2.124  52.935  1.00  0.00     0.152 A 
HETATM    9  N4  UNL     1      25.915   2.439  52.774  1.00  0.00    -0.227 NA
HETATM   10  C11 UNL     1      26.644   1.307  52.881  1.00  0.00     0.086 A 
HETATM   11  C12 UNL     1      27.972   0.938  52.820  1.00  0.00     0.034 A 
HETATM   12  C16 UNL     1      25.731   0.293  53.115  1.00  0.00     0.070 A 
HETATM   13  C13 UNL     1      28.381  -0.378  52.983  1.00  0.00     0.002 A 
HETATM   14  C14 UNL     1      27.431  -1.368  53.217  1.00  0.00     0.002 A 
HETATM   15  C15 UNL     1      26.103  -1.025  53.282  1.00  0.00     0.032 A 
BRANCH   8  16
HETATM   16  C10 UNL     1      23.651   3.243  52.849  1.00  0.00     0.158 C 
HETATM   17  N3  UNL     1      24.110   4.403  53.205  1.00  0.00    -0.308 NA
HETATM   18  H9  UNL     1      25.102   4.522  53.531  1.00  0.00     0.186 HD
ENDBRANCH   8  16
ENDBRANCH   5   7
BRANCH   1  19
HETATM   19  N1  UNL     1      19.912   0.141  51.536  1.00  0.00    -0.324 N 
HETATM   20  C3  UNL     1      19.026   1.176  51.191  1.00  0.00     0.244 C 
HETATM   21  O1  UNL     1      19.211   2.145  51.968  1.00  0.00    -0.268 OA
HETATM   22  H4  UNL     1      20.035  -0.814  51.101  1.00  0.00     0.169 HD
BRANCH  20  23
HETATM   23  C2  UNL     1      18.139   0.906  50.068  1.00  0.00     0.064 C 
HETATM   24  C1  UNL     1      17.243  -0.051  49.936  1.00  0.00     0.017 C 
ENDBRANCH  20  23
ENDBRANCH   1  19
TORSDOF 4
ENDMDL
MODEL 9
REMARK VINA RESULT:      -7.0     10.150     13.464
REMARK  4 active torsions:
REMARK  status: ('A' for Active; 'I' for Inactive)
REMARK    1  A    between atoms: C2_2  and  C3_3 
REMARK       I    between atoms: C3_3  and  N1_5 
REMARK    2  A    between atoms: N1_5  and  C4_6 
REMARK    3  A    between atoms: C8_10  and  N2_11 
REMARK    4  A    between atoms: C9_12  and  C10_13 
ROOT
HETATM    1  C4  UNL     1      30.542   6.231  48.493  1.00  0.00     0.037 A 
HETATM    2  C5  UNL     1      31.098   7.274  49.244  1.00  0.00     0.029 A 
HETATM    3  C6  UNL     1      32.390   7.748  49.024  1.00  0.00     0.004 A 
HETATM    4  C7  UNL     1      33.102   7.136  48.024  1.00  0.00     0.030 A 
HETATM    5  C8  UNL     1      32.625   6.104  47.242  1.00  0.00     0.043 A 
HETATM    6  C17 UNL     1      31.338   5.679  47.508  1.00  0.00     0.059 A 
ENDROOT
BRANCH   5   7
HETATM    7  N2  UNL     1      33.374   5.477  46.207  1.00  0.00    -0.293 N 
HETATM    8  C9  UNL     1      34.320   4.554  46.545  1.00  0.00     0.152 A 
HETATM    9  N4  UNL     1      34.909   4.084  45.415  1.00  0.00    -0.227 NA
HETATM   10  C11 UNL     1      34.349   4.701  44.353  1.00  0.00     0.086 A 
HETATM   11  C12 UNL     1      34.478   4.688  42.979  1.00  0.00     0.034 A 
HETATM   12  C16 UNL     1      33.397   5.560  44.875  1.00  0.00     0.070 A 
HETATM   13  C13 UNL     1      33.701   5.490  42.156  1.00  0.00     0.002 A 
HETATM   14  C14 UNL     1      32.755   6.341  42.721  1.00  0.00     0.002 A 
HETATM   15  C15 UNL     1      32.608   6.371  44.086  1.00  0.00     0.032 A 
BRANCH   8  16
HETATM   16  C10 UNL     1      34.808   3.990  47.816  1.00  0.00     0.158 C 
HETATM   17  N3  UNL     1      34.193   2.926  48.233  1.00  0.00    -0.308 NA
HETATM   18  H9  UNL     1      33.400   2.504  47.688  1.00  0.00     0.186 HD
ENDBRANCH   8  16
ENDBRANCH   5   7
BRANCH   1  19
HETATM   19  N1  UNL     1      29.215   5.794  48.768  1.00  0.00    -0.324 N 
HETATM   20  C3  UNL     1      27.919   6.125  48.335  1.00  0.00     0.244 C 
HETATM   21  O1  UNL     1      27.997   7.048  47.486  1.00  0.00    -0.268 OA
HETATM   22  H4  UNL     1      29.526   5.070  49.470  1.00  0.00     0.169 HD
BRANCH  20  23
HETATM   23  C2  UNL     1      26.834   5.362  48.935  1.00  0.00     0.064 C 
HETATM   24  C1  UNL     1      26.816   4.093  49.290  1.00  0.00     0.017 C 
ENDBRANCH  20  23
ENDBRANCH   1  19
TORSDOF 4
ENDMDL
