MODEL 1
REMARK VINA RESULT:      -6.5      0.000      0.000
REMARK  11 active torsions:
REMARK  status: ('A' for Active; 'I' for Inactive)
REMARK    1  A    between atoms: C2_2  and  C3_3 
REMARK    2  A    between atoms: C4_4  and  C5_5 
REMARK    3  A    between atoms: C5_5  and  N1_6 
REMARK    4  A    between atoms: N1_6  and  C6_7 
REMARK    5  A    between atoms: C6_7  and  N2_9 
REMARK    6  A    between atoms: N2_9  and  C7_10 
REMARK    7  A    between atoms: N2_9  and  C11_14 
REMARK    8  A    between atoms: C7_10  and  C8_11 
REMARK    9  A    between atoms: C8_11  and  C9_12 
REMARK   10  A    between atoms: C11_14  and  C12_15 
REMARK   11  A    between atoms: C17_21  and  O1_22 
ROOT
HETATM    1  N2  UNL     1      23.613   2.966  51.839  1.00  0.00    -0.354 N 
ENDROOT
BRANCH   1   2
HETATM    2  C6  UNL     1      22.382   2.608  51.233  1.00  0.00     0.170 C 
HETATM    3  S1  UNL     1      21.128   3.431  50.629  1.00  0.00    -0.041 SA
BRANCH   2   4
HETATM    4  N1  UNL     1      22.031   1.248  51.054  1.00  0.00    -0.364 N 
HETATM    5  H8  UNL     1      22.409   0.561  50.366  1.00  0.00     0.162 HD
BRANCH   4   6
HETATM    6  C5  UNL     1      21.074   0.440  51.758  1.00  0.00     0.149 C 
BRANCH   6   7
HETATM    7  C4  UNL     1      21.026   0.809  53.180  1.00  0.00    -0.007 C 
HETATM    8  C3  UNL     1      21.340   0.222  54.315  1.00  0.00    -0.003 C 
BRANCH   8   9
HETATM    9  C2  UNL     1      21.881  -1.079  54.639  1.00  0.00    -0.011 C 
HETATM   10  C1  UNL     1      22.929  -1.445  55.359  1.00  0.00     0.011 C 
ENDBRANCH   8   9
ENDBRANCH   6   7
ENDBRANCH   4   6
ENDBRANCH   2   4
ENDBRANCH   1   2
BRANCH   1  11
HETATM   11  C7  UNL     1      24.477   3.826  51.031  1.00  0.00     0.125 C 
BRANCH  11  12
HETATM   12  C8  UNL     1      24.949   3.217  49.755  1.00  0.00     0.020 C 
BRANCH  12  13
HETATM   13  C9  UNL     1      26.482   3.152  49.865  1.00  0.00    -0.003 C 
HETATM   14  C10 UNL     1      27.042   4.312  49.109  1.00  0.00     0.005 C 
ENDBRANCH  12  13
ENDBRANCH  11  12
ENDBRANCH   1  11
BRANCH   1  15
HETATM   15  C11 UNL     1      24.225   2.671  53.103  1.00  0.00     0.166 C 
BRANCH  15  16
HETATM   16  C12 UNL     1      25.248   1.612  53.136  1.00  0.00    -0.006 A 
HETATM   17  C13 UNL     1      24.862   0.343  52.736  1.00  0.00     0.012 A 
HETATM   18  C14 UNL     1      25.719  -0.768  52.753  1.00  0.00     0.002 A 
HETATM   19  C15 UNL     1      27.035  -0.611  53.190  1.00  0.00     0.022 A 
HETATM   20  C16 UNL     1      27.465   0.634  53.597  1.00  0.00     0.044 A 
HETATM   21 BR1  UNL     1      29.240   0.887  54.192  1.00  0.00    -0.048 Br
HETATM   22  C17 UNL     1      26.557   1.665  53.547  1.00  0.00     0.090 A 
BRANCH  22  23
HETATM   23  O1  UNL     1      27.047   2.893  53.958  1.00  0.00    -0.359 OA
HETATM   24  H23 UNL     1      26.414   3.646  54.132  1.00  0.00     0.217 HD
ENDBRANCH  22  23
ENDBRANCH  15  16
ENDBRANCH   1  15
TORSDOF 11
ENDMDL
MODEL 2
REMARK VINA RESULT:      -6.0      2.907      6.161
REMARK  11 active torsions:
REMARK  status: ('A' for Active; 'I' for Inactive)
REMARK    1  A    between atoms: C2_2  and  C3_3 
REMARK    2  A    between atoms: C4_4  and  C5_5 
REMARK    3  A    between atoms: C5_5  and  N1_6 
REMARK    4  A    between atoms: N1_6  and  C6_7 
REMARK    5  A    between atoms: C6_7  and  N2_9 
REMARK    6  A    between atoms: N2_9  and  C7_10 
REMARK    7  A    between atoms: N2_9  and  C11_14 
REMARK    8  A    between atoms: C7_10  and  C8_11 
REMARK    9  A    between atoms: C8_11  and  C9_12 
REMARK   10  A    between atoms: C11_14  and  C12_15 
REMARK   11  A    between atoms: C17_21  and  O1_22 
ROOT
HETATM    1  N2  UNL     1      25.295   1.893  52.684  1.00  0.00    -0.354 N 
ENDROOT
BRANCH   1   2
HETATM    2  C6  UNL     1      24.769   3.123  52.211  1.00  0.00     0.170 C 
HETATM    3  S1  UNL     1      23.486   4.032  52.584  1.00  0.00    -0.041 SA
BRANCH   2   4
HETATM    4  N1  UNL     1      25.411   3.830  51.164  1.00  0.00    -0.364 N 
HETATM    5  H8  UNL     1      25.951   4.720  51.214  1.00  0.00     0.162 HD
BRANCH   4   6
HETATM    6  C5  UNL     1      25.502   3.525  49.763  1.00  0.00     0.149 C 
BRANCH   6   7
HETATM    7  C4  UNL     1      26.860   3.784  49.261  1.00  0.00    -0.007 C 
HETATM    8  C3  UNL     1      27.491   4.818  48.747  1.00  0.00    -0.003 C 
BRANCH   8   9
HETATM    9  C2  UNL     1      27.089   6.176  48.454  1.00  0.00    -0.011 C 
HETATM   10  C1  UNL     1      26.565   7.125  49.212  1.00  0.00     0.011 C 
ENDBRANCH   8   9
ENDBRANCH   6   7
ENDBRANCH   4   6
ENDBRANCH   2   4
ENDBRANCH   1   2
BRANCH   1  11
HETATM   11  C7  UNL     1      26.462   2.011  53.557  1.00  0.00     0.125 C 
BRANCH  11  12
HETATM   12  C8  UNL     1      27.653   1.229  53.119  1.00  0.00     0.020 C 
BRANCH  12  13
HETATM   13  C9  UNL     1      28.194   0.547  54.386  1.00  0.00    -0.003 C 
HETATM   14  C10 UNL     1      29.185  -0.485  53.960  1.00  0.00     0.005 C 
ENDBRANCH  12  13
ENDBRANCH  11  12
ENDBRANCH   1  11
BRANCH   1  15
HETATM   15  C11 UNL     1      24.932   0.517  52.500  1.00  0.00     0.166 C 
BRANCH  15  16
HETATM   16  C12 UNL     1      23.686   0.049  53.130  1.00  0.00    -0.006 A 
HETATM   17  C13 UNL     1      23.799  -0.651  54.320  1.00  0.00     0.012 A 
HETATM   18  C14 UNL     1      22.702  -1.188  55.010  1.00  0.00     0.002 A 
HETATM   19  C15 UNL     1      21.418  -1.021  54.491  1.00  0.00     0.022 A 
HETATM   20  C16 UNL     1      21.256  -0.329  53.309  1.00  0.00     0.044 A 
HETATM   21 BR1  UNL     1      19.533  -0.077  52.575  1.00  0.00    -0.048 Br
HETATM   22  C17 UNL     1      22.386   0.162  52.702  1.00  0.00     0.090 A 
BRANCH  22  23
HETATM   23  O1  UNL     1      22.162   0.855  51.524  1.00  0.00    -0.359 OA
HETATM   24  H23 UNL     1      22.416   0.444  50.651  1.00  0.00     0.217 HD
ENDBRANCH  22  23
ENDBRANCH  15  16
ENDBRANCH   1  15
TORSDOF 11
ENDMDL
MODEL 3
REMARK VINA RESULT:      -6.0      1.461      5.401
REMARK  11 active torsions:
REMARK  status: ('A' for Active; 'I' for Inactive)
REMARK    1  A    between atoms: C2_2  and  C3_3 
REMARK    2  A    between atoms: C4_4  and  C5_5 
REMARK    3  A    between atoms: C5_5  and  N1_6 
REMARK    4  A    between atoms: N1_6  and  C6_7 
REMARK    5  A    between atoms: C6_7  and  N2_9 
REMARK    6  A    between atoms: N2_9  and  C7_10 
REMARK    7  A    between atoms: N2_9  and  C11_14 
REMARK    8  A    between atoms: C7_10  and  C8_11 
REMARK    9  A    between atoms: C8_11  and  C9_12 
REMARK   10  A    between atoms: C11_14  and  C12_15 
REMARK   11  A    between atoms: C17_21  and  O1_22 
ROOT
HETATM    1  N2  UNL     1      23.367   2.495  51.821  1.00  0.00    -0.354 N 
ENDROOT
BRANCH   1   2
HETATM    2  C6  UNL     1      23.425   3.905  51.681  1.00  0.00     0.170 C 
HETATM    3  S1  UNL     1      22.338   5.100  51.737  1.00  0.00    -0.041 SA
BRANCH   2   4
HETATM    4  N1  UNL     1      24.655   4.558  51.423  1.00  0.00    -0.364 N 
HETATM    5  H8  UNL     1      25.479   4.669  52.052  1.00  0.00     0.162 HD
BRANCH   4   6
HETATM    6  C5  UNL     1      25.111   5.238  50.243  1.00  0.00     0.149 C 
BRANCH   6   7
HETATM    7  C4  UNL     1      26.037   4.389  49.477  1.00  0.00    -0.007 C 
HETATM    8  C3  UNL     1      27.145   4.585  48.794  1.00  0.00    -0.003 C 
BRANCH   8   9
HETATM    9  C2  UNL     1      27.934   5.761  48.507  1.00  0.00    -0.011 C 
HETATM   10  C1  UNL     1      27.622   6.920  47.950  1.00  0.00     0.011 C 
ENDBRANCH   8   9
ENDBRANCH   6   7
ENDBRANCH   4   6
ENDBRANCH   2   4
ENDBRANCH   1   2
BRANCH   1  11
HETATM   11  C7  UNL     1      22.122   1.976  52.384  1.00  0.00     0.125 C 
BRANCH  11  12
HETATM   12  C8  UNL     1      21.539   0.816  51.651  1.00  0.00     0.020 C 
BRANCH  12  13
HETATM   13  C9  UNL     1      21.135  -0.201  52.732  1.00  0.00    -0.003 C 
HETATM   14  C10 UNL     1      21.201   0.489  54.054  1.00  0.00     0.005 C 
ENDBRANCH  12  13
ENDBRANCH  11  12
ENDBRANCH   1  11
BRANCH   1  15
HETATM   15  C11 UNL     1      24.278   1.425  51.525  1.00  0.00     0.166 C 
BRANCH  15  16
HETATM   16  C12 UNL     1      25.250   1.049  52.566  1.00  0.00    -0.006 A 
HETATM   17  C13 UNL     1      24.889   0.033  53.435  1.00  0.00     0.012 A 
HETATM   18  C14 UNL     1      25.697  -0.402  54.496  1.00  0.00     0.002 A 
HETATM   19  C15 UNL     1      26.936   0.205  54.707  1.00  0.00     0.022 A 
HETATM   20  C16 UNL     1      27.338   1.220  53.867  1.00  0.00     0.044 A 
HETATM   21 BR1  UNL     1      29.010   2.066  54.117  1.00  0.00    -0.048 Br
HETATM   22  C17 UNL     1      26.482   1.581  52.854  1.00  0.00     0.090 A 
BRANCH  22  23
HETATM   23  O1  UNL     1      26.943   2.600  52.036  1.00  0.00    -0.359 OA
HETATM   24  H23 UNL     1      26.374   3.405  51.879  1.00  0.00     0.217 HD
ENDBRANCH  22  23
ENDBRANCH  15  16
ENDBRANCH   1  15
TORSDOF 11
ENDMDL
MODEL 4
REMARK VINA RESULT:      -5.9      2.814      4.839
REMARK  11 active torsions:
REMARK  status: ('A' for Active; 'I' for Inactive)
REMARK    1  A    between atoms: C2_2  and  C3_3 
REMARK    2  A    between atoms: C4_4  and  C5_5 
REMARK    3  A    between atoms: C5_5  and  N1_6 
REMARK    4  A    between atoms: N1_6  and  C6_7 
REMARK    5  A    between atoms: C6_7  and  N2_9 
REMARK    6  A    between atoms: N2_9  and  C7_10 
REMARK    7  A    between atoms: N2_9  and  C11_14 
REMARK    8  A    between atoms: C7_10  and  C8_11 
REMARK    9  A    between atoms: C8_11  and  C9_12 
REMARK   10  A    between atoms: C11_14  and  C12_15 
REMARK   11  A    between atoms: C17_21  and  O1_22 
ROOT
HETATM    1  N2  UNL     1      22.833   1.753  52.783  1.00  0.00    -0.354 N 
ENDROOT
BRANCH   1   2
HETATM    2  C6  UNL     1      22.741   0.492  53.427  1.00  0.00     0.170 C 
HETATM    3  S1  UNL     1      21.621  -0.247  54.329  1.00  0.00    -0.041 SA
BRANCH   2   4
HETATM    4  N1  UNL     1      23.807  -0.438  53.353  1.00  0.00    -0.364 N 
HETATM    5  H8  UNL     1      23.823  -1.377  52.901  1.00  0.00     0.162 HD
BRANCH   4   6
HETATM    6  C5  UNL     1      25.145  -0.353  53.869  1.00  0.00     0.149 C 
BRANCH   6   7
HETATM    7  C4  UNL     1      26.110  -0.907  52.907  1.00  0.00    -0.007 C 
HETATM    8  C3  UNL     1      27.421  -0.993  52.836  1.00  0.00    -0.003 C 
BRANCH   8   9
HETATM    9  C2  UNL     1      28.490  -0.562  53.709  1.00  0.00    -0.011 C 
HETATM   10  C1  UNL     1      29.347   0.443  53.625  1.00  0.00     0.011 C 
ENDBRANCH   8   9
ENDBRANCH   6   7
ENDBRANCH   4   6
ENDBRANCH   2   4
ENDBRANCH   1   2
BRANCH   1  11
HETATM   11  C7  UNL     1      21.830   1.996  51.747  1.00  0.00     0.125 C 
BRANCH  11  12
HETATM   12  C8  UNL     1      22.050   1.250  50.475  1.00  0.00     0.020 C 
BRANCH  12  13
HETATM   13  C9  UNL     1      21.623   2.207  49.350  1.00  0.00    -0.003 C 
HETATM   14  C10 UNL     1      22.776   2.352  48.413  1.00  0.00     0.005 C 
ENDBRANCH  12  13
ENDBRANCH  11  12
ENDBRANCH   1  11
BRANCH   1  15
HETATM   15  C11 UNL     1      23.710   2.881  52.919  1.00  0.00     0.166 C 
BRANCH  15  16
HETATM   16  C12 UNL     1      24.574   3.216  51.775  1.00  0.00    -0.006 A 
HETATM   17  C13 UNL     1      25.613   2.346  51.487  1.00  0.00     0.012 A 
HETATM   18  C14 UNL     1      26.536   2.559  50.452  1.00  0.00     0.002 A 
HETATM   19  C15 UNL     1      26.423   3.700  49.657  1.00  0.00     0.022 A 
HETATM   20  C16 UNL     1      25.405   4.594  49.906  1.00  0.00     0.044 A 
HETATM   21 BR1  UNL     1      25.215   6.150  48.849  1.00  0.00    -0.048 Br
HETATM   22  C17 UNL     1      24.546   4.306  50.939  1.00  0.00     0.090 A 
BRANCH  22  23
HETATM   23  O1  UNL     1      23.538   5.234  51.137  1.00  0.00    -0.359 OA
HETATM   24  H23 UNL     1      23.158   5.728  50.357  1.00  0.00     0.217 HD
ENDBRANCH  22  23
ENDBRANCH  15  16
ENDBRANCH   1  15
TORSDOF 11
ENDMDL
MODEL 5
REMARK VINA RESULT:      -5.8      2.171      5.797
REMARK  11 active torsions:
REMARK  status: ('A' for Active; 'I' for Inactive)
REMARK    1  A    between atoms: C2_2  and  C3_3 
REMARK    2  A    between atoms: C4_4  and  C5_5 
REMARK    3  A    between atoms: C5_5  and  N1_6 
REMARK    4  A    between atoms: N1_6  and  C6_7 
REMARK    5  A    between atoms: C6_7  and  N2_9 
REMARK    6  A    between atoms: N2_9  and  C7_10 
REMARK    7  A    between atoms: N2_9  and  C11_14 
REMARK    8  A    between atoms: C7_10  and  C8_11 
REMARK    9  A    between atoms: C8_11  and  C9_12 
REMARK   10  A    between atoms: C11_14  and  C12_15 
REMARK   11  A    between atoms: C17_21  and  O1_22 
ROOT
HETATM    1  N2  UNL     1      24.288   3.814  51.671  1.00  0.00    -0.354 N 
ENDROOT
BRANCH   1   2
HETATM    2  C6  UNL     1      25.330   4.056  50.740  1.00  0.00     0.170 C 
HETATM    3  S1  UNL     1      26.367   3.123  49.922  1.00  0.00    -0.041 SA
BRANCH   2   4
HETATM    4  N1  UNL     1      25.654   5.377  50.343  1.00  0.00    -0.364 N 
HETATM    5  H8  UNL     1      26.132   6.124  50.891  1.00  0.00     0.162 HD
BRANCH   4   6
HETATM    6  C5  UNL     1      25.423   6.050  49.095  1.00  0.00     0.149 C 
BRANCH   6   7
HETATM    7  C4  UNL     1      26.314   7.212  48.957  1.00  0.00    -0.007 C 
HETATM    8  C3  UNL     1      27.521   7.418  48.476  1.00  0.00    -0.003 C 
BRANCH   8   9
HETATM    9  C2  UNL     1      28.503   6.552  47.863  1.00  0.00    -0.011 C 
HETATM   10  C1  UNL     1      29.119   5.467  48.302  1.00  0.00     0.011 C 
ENDBRANCH   8   9
ENDBRANCH   6   7
ENDBRANCH   4   6
ENDBRANCH   2   4
ENDBRANCH   1   2
BRANCH   1  11
HETATM   11  C7  UNL     1      22.941   4.115  51.190  1.00  0.00     0.125 C 
BRANCH  11  12
HETATM   12  C8  UNL     1      21.956   4.452  52.256  1.00  0.00     0.020 C 
BRANCH  12  13
HETATM   13  C9  UNL     1      20.630   3.807  51.820  1.00  0.00    -0.003 C 
HETATM   14  C10 UNL     1      20.819   2.326  51.828  1.00  0.00     0.005 C 
ENDBRANCH  12  13
ENDBRANCH  11  12
ENDBRANCH   1  11
BRANCH   1  15
HETATM   15  C11 UNL     1      24.250   3.323  53.020  1.00  0.00     0.166 C 
BRANCH  15  16
HETATM   16  C12 UNL     1      24.860   2.009  53.285  1.00  0.00    -0.006 A 
HETATM   17  C13 UNL     1      24.066   0.890  53.096  1.00  0.00     0.012 A 
HETATM   18  C14 UNL     1      24.501  -0.420  53.346  1.00  0.00     0.002 A 
HETATM   19  C15 UNL     1      25.800  -0.633  53.811  1.00  0.00     0.022 A 
HETATM   20  C16 UNL     1      26.627   0.451  54.013  1.00  0.00     0.044 A 
HETATM   21 BR1  UNL     1      28.394   0.204  54.638  1.00  0.00    -0.048 Br
HETATM   22  C17 UNL     1      26.117   1.697  53.741  1.00  0.00     0.090 A 
BRANCH  22  23
HETATM   23  O1  UNL     1      26.995   2.747  53.954  1.00  0.00    -0.359 OA
HETATM   24  H23 UNL     1      27.956   2.558  54.146  1.00  0.00     0.217 HD
ENDBRANCH  22  23
ENDBRANCH  15  16
ENDBRANCH   1  15
TORSDOF 11
ENDMDL
MODEL 6
REMARK VINA RESULT:      -5.7      2.987      4.894
REMARK  11 active torsions:
REMARK  status: ('A' for Active; 'I' for Inactive)
REMARK    1  A    between atoms: C2_2  and  C3_3 
REMARK    2  A    between atoms: C4_4  and  C5_5 
REMARK    3  A    between atoms: C5_5  and  N1_6 
REMARK    4  A    between atoms: N1_6  and  C6_7 
REMARK    5  A    between atoms: C6_7  and  N2_9 
REMARK    6  A    between atoms: N2_9  and  C7_10 
REMARK    7  A    between atoms: N2_9  and  C11_14 
REMARK    8  A    between atoms: C7_10  and  C8_11 
REMARK    9  A    between atoms: C8_11  and  C9_12 
REMARK   10  A    between atoms: C11_14  and  C12_15 
REMARK   11  A    between atoms: C17_21  and  O1_22 
ROOT
HETATM    1  N2  UNL     1      26.064   1.536  52.512  1.00  0.00    -0.354 N 
ENDROOT
BRANCH   1   2
HETATM    2  C6  UNL     1      25.714   2.547  51.582  1.00  0.00     0.170 C 
HETATM    3  S1  UNL     1      26.444   3.227  50.310  1.00  0.00    -0.041 SA
BRANCH   2   4
HETATM    4  N1  UNL     1      24.465   3.210  51.669  1.00  0.00    -0.364 N 
HETATM    5  H8  UNL     1      23.761   3.377  50.918  1.00  0.00     0.162 HD
BRANCH   4   6
HETATM    6  C5  UNL     1      23.823   3.828  52.796  1.00  0.00     0.149 C 
BRANCH   6   7
HETATM    7  C4  UNL     1      22.764   4.747  52.352  1.00  0.00    -0.007 C 
HETATM    8  C3  UNL     1      21.516   4.620  51.954  1.00  0.00    -0.003 C 
BRANCH   8   9
HETATM    9  C2  UNL     1      20.643   3.480  51.783  1.00  0.00    -0.011 C 
HETATM   10  C1  UNL     1      20.343   2.750  50.721  1.00  0.00     0.011 C 
ENDBRANCH   8   9
ENDBRANCH   6   7
ENDBRANCH   4   6
ENDBRANCH   2   4
ENDBRANCH   1   2
BRANCH   1  11
HETATM   11  C7  UNL     1      26.932   1.970  53.605  1.00  0.00     0.125 C 
BRANCH  11  12
HETATM   12  C8  UNL     1      28.392   1.858  53.327  1.00  0.00     0.020 C 
BRANCH  12  13
HETATM   13  C9  UNL     1      28.949   0.898  54.393  1.00  0.00    -0.003 C 
HETATM   14  C10 UNL     1      29.432  -0.329  53.693  1.00  0.00     0.005 C 
ENDBRANCH  12  13
ENDBRANCH  11  12
ENDBRANCH   1  11
BRANCH   1  15
HETATM   15  C11 UNL     1      25.750   0.140  52.634  1.00  0.00     0.166 C 
BRANCH  15  16
HETATM   16  C12 UNL     1      24.560  -0.226  53.420  1.00  0.00    -0.006 A 
HETATM   17  C13 UNL     1      24.770  -0.865  54.631  1.00  0.00     0.012 A 
HETATM   18  C14 UNL     1      23.731  -1.305  55.465  1.00  0.00     0.002 A 
HETATM   19  C15 UNL     1      22.407  -1.098  55.076  1.00  0.00     0.022 A 
HETATM   20  C16 UNL     1      22.149  -0.465  53.880  1.00  0.00     0.044 A 
HETATM   21 BR1  UNL     1      20.369  -0.163  53.319  1.00  0.00    -0.048 Br
HETATM   22  C17 UNL     1      23.228  -0.068  53.127  1.00  0.00     0.090 A 
BRANCH  22  23
HETATM   23  O1  UNL     1      22.909   0.570  51.940  1.00  0.00    -0.359 OA
HETATM   24  H23 UNL     1      22.843   1.566  51.915  1.00  0.00     0.217 HD
ENDBRANCH  22  23
ENDBRANCH  15  16
ENDBRANCH   1  15
TORSDOF 11
ENDMDL
MODEL 7
REMARK VINA RESULT:      -5.7      3.342      5.252
REMARK  11 active torsions:
REMARK  status: ('A' for Active; 'I' for Inactive)
REMARK    1  A    between atoms: C2_2  and  C3_3 
REMARK    2  A    between atoms: C4_4  and  C5_5 
REMARK    3  A    between atoms: C5_5  and  N1_6 
REMARK    4  A    between atoms: N1_6  and  C6_7 
REMARK    5  A    between atoms: C6_7  and  N2_9 
REMARK    6  A    between atoms: N2_9  and  C7_10 
REMARK    7  A    between atoms: N2_9  and  C11_14 
REMARK    8  A    between atoms: C7_10  and  C8_11 
REMARK    9  A    between atoms: C8_11  and  C9_12 
REMARK   10  A    between atoms: C11_14  and  C12_15 
REMARK   11  A    between atoms: C17_21  and  O1_22 
ROOT
HETATM    1  N2  UNL     1      23.351   3.531  51.156  1.00  0.00    -0.354 N 
ENDROOT
BRANCH   1   2
HETATM    2  C6  UNL     1      24.727   3.827  50.980  1.00  0.00     0.170 C 
HETATM    3  S1  UNL     1      25.571   4.761  49.965  1.00  0.00    -0.041 SA
BRANCH   2   4
HETATM    4  N1  UNL     1      25.708   3.234  51.813  1.00  0.00    -0.364 N 
HETATM    5  H8  UNL     1      25.802   3.287  52.849  1.00  0.00     0.162 HD
BRANCH   4   6
HETATM    6  C5  UNL     1      26.829   2.402  51.472  1.00  0.00     0.149 C 
BRANCH   6   7
HETATM    7  C4  UNL     1      26.437   0.985  51.444  1.00  0.00    -0.007 C 
HETATM    8  C3  UNL     1      26.701  -0.078  52.173  1.00  0.00    -0.003 C 
BRANCH   8   9
HETATM    9  C2  UNL     1      27.517  -0.294  53.347  1.00  0.00    -0.011 C 
HETATM   10  C1  UNL     1      28.813  -0.137  53.562  1.00  0.00     0.011 C 
ENDBRANCH   8   9
ENDBRANCH   6   7
ENDBRANCH   4   6
ENDBRANCH   2   4
ENDBRANCH   1   2
BRANCH   1  11
HETATM   11  C7  UNL     1      22.581   3.400  49.921  1.00  0.00     0.125 C 
BRANCH  11  12
HETATM   12  C8  UNL     1      23.132   2.422  48.940  1.00  0.00     0.020 C 
BRANCH  12  13
HETATM   13  C9  UNL     1      21.913   1.817  48.223  1.00  0.00    -0.003 C 
HETATM   14  C10 UNL     1      21.288   0.825  49.147  1.00  0.00     0.005 C 
ENDBRANCH  12  13
ENDBRANCH  11  12
ENDBRANCH   1  11
BRANCH   1  15
HETATM   15  C11 UNL     1      22.515   3.321  52.304  1.00  0.00     0.166 C 
BRANCH  15  16
HETATM   16  C12 UNL     1      22.141   1.935  52.631  1.00  0.00    -0.006 A 
HETATM   17  C13 UNL     1      23.169   1.047  52.904  1.00  0.00     0.012 A 
HETATM   18  C14 UNL     1      22.964  -0.310  53.193  1.00  0.00     0.002 A 
HETATM   19  C15 UNL     1      21.663  -0.817  53.213  1.00  0.00     0.022 A 
HETATM   20  C16 UNL     1      20.608   0.029  52.948  1.00  0.00     0.044 A 
HETATM   21 BR1  UNL     1      18.832  -0.617  52.969  1.00  0.00    -0.048 Br
HETATM   22  C17 UNL     1      20.903   1.344  52.676  1.00  0.00     0.090 A 
BRANCH  22  23
HETATM   23  O1  UNL     1      19.804   2.149  52.427  1.00  0.00    -0.359 OA
HETATM   24  H23 UNL     1      19.003   2.092  53.021  1.00  0.00     0.217 HD
ENDBRANCH  22  23
ENDBRANCH  15  16
ENDBRANCH   1  15
TORSDOF 11
ENDMDL
MODEL 8
REMARK VINA RESULT:      -5.7      3.109      5.440
REMARK  11 active torsions:
REMARK  status: ('A' for Active; 'I' for Inactive)
REMARK    1  A    between atoms: C2_2  and  C3_3 
REMARK    2  A    between atoms: C4_4  and  C5_5 
REMARK    3  A    between atoms: C5_5  and  N1_6 
REMARK    4  A    between atoms: N1_6  and  C6_7 
REMARK    5  A    between atoms: C6_7  and  N2_9 
REMARK    6  A    between atoms: N2_9  and  C7_10 
REMARK    7  A    between atoms: N2_9  and  C11_14 
REMARK    8  A    between atoms: C7_10  and  C8_11 
REMARK    9  A    between atoms: C8_11  and  C9_12 
REMARK   10  A    between atoms: C11_14  and  C12_15 
REMARK   11  A    between atoms: C17_21  and  O1_22 
ROOT
HETATM    1  N2  UNL     1      25.669   2.162  51.986  1.00  0.00    -0.354 N 
ENDROOT
BRANCH   1   2
HETATM    2  C6  UNL     1      25.714   3.176  50.996  1.00  0.00     0.170 C 
HETATM    3  S1  UNL     1      26.525   3.383  49.613  1.00  0.00    -0.041 SA
BRANCH   2   4
HETATM    4  N1  UNL     1      24.919   4.343  51.117  1.00  0.00    -0.364 N 
HETATM    5  H8  UNL     1      24.315   4.641  51.914  1.00  0.00     0.162 HD
BRANCH   4   6
HETATM    6  C5  UNL     1      24.724   5.428  50.197  1.00  0.00     0.149 C 
BRANCH   6   7
HETATM    7  C4  UNL     1      23.352   5.422  49.667  1.00  0.00    -0.007 C 
HETATM    8  C3  UNL     1      22.606   4.567  49.000  1.00  0.00    -0.003 C 
BRANCH   8   9
HETATM    9  C2  UNL     1      22.842   3.233  48.495  1.00  0.00    -0.011 C 
HETATM   10  C1  UNL     1      22.406   2.049  48.893  1.00  0.00     0.011 C 
ENDBRANCH   8   9
ENDBRANCH   6   7
ENDBRANCH   4   6
ENDBRANCH   2   4
ENDBRANCH   1   2
BRANCH   1  11
HETATM   11  C7  UNL     1      26.650   1.091  51.823  1.00  0.00     0.125 C 
BRANCH  11  12
HETATM   12  C8  UNL     1      27.631   0.966  52.939  1.00  0.00     0.020 C 
BRANCH  12  13
HETATM   13  C9  UNL     1      27.814  -0.544  53.168  1.00  0.00    -0.003 C 
HETATM   14  C10 UNL     1      26.724  -1.251  52.432  1.00  0.00     0.005 C 
ENDBRANCH  12  13
ENDBRANCH  11  12
ENDBRANCH   1  11
BRANCH   1  15
HETATM   15  C11 UNL     1      24.858   1.938  53.149  1.00  0.00     0.166 C 
BRANCH  15  16
HETATM   16  C12 UNL     1      23.510   1.383  52.945  1.00  0.00    -0.006 A 
HETATM   17  C13 UNL     1      23.350   0.019  53.124  1.00  0.00     0.012 A 
HETATM   18  C14 UNL     1      22.134  -0.652  52.926  1.00  0.00     0.002 A 
HETATM   19  C15 UNL     1      21.010   0.073  52.528  1.00  0.00     0.022 A 
HETATM   20  C16 UNL     1      21.120   1.434  52.338  1.00  0.00     0.044 A 
HETATM   21 BR1  UNL     1      19.620   2.451  51.803  1.00  0.00    -0.048 Br
HETATM   22  C17 UNL     1      22.350   2.007  52.556  1.00  0.00     0.090 A 
BRANCH  22  23
HETATM   23  O1  UNL     1      22.399   3.376  52.358  1.00  0.00    -0.359 OA
HETATM   24  H23 UNL     1      22.997   3.755  51.654  1.00  0.00     0.217 HD
ENDBRANCH  22  23
ENDBRANCH  15  16
ENDBRANCH   1  15
TORSDOF 11
ENDMDL
MODEL 9
REMARK VINA RESULT:      -5.6      2.824      5.114
REMARK  11 active torsions:
REMARK  status: ('A' for Active; 'I' for Inactive)
REMARK    1  A    between atoms: C2_2  and  C3_3 
REMARK    2  A    between atoms: C4_4  and  C5_5 
REMARK    3  A    between atoms: C5_5  and  N1_6 
REMARK    4  A    between atoms: N1_6  and  C6_7 
REMARK    5  A    between atoms: C6_7  and  N2_9 
REMARK    6  A    between atoms: N2_9  and  C7_10 
REMARK    7  A    between atoms: N2_9  and  C11_14 
REMARK    8  A    between atoms: C7_10  and  C8_11 
REMARK    9  A    between atoms: C8_11  and  C9_12 
REMARK   10  A    between atoms: C11_14  and  C12_15 
REMARK   11  A    between atoms: C17_21  and  O1_22 
ROOT
HETATM    1  N2  UNL     1      24.707   0.836  53.266  1.00  0.00    -0.354 N 
ENDROOT
BRANCH   1   2
HETATM    2  C6  UNL     1      23.336   0.496  53.140  1.00  0.00     0.170 C 
HETATM    3  S1  UNL     1      22.482  -0.868  53.293  1.00  0.00    -0.041 SA
BRANCH   2   4
HETATM    4  N1  UNL     1      22.374   1.479  52.799  1.00  0.00    -0.364 N 
HETATM    5  H8  UNL     1      22.074   2.315  53.345  1.00  0.00     0.162 HD
BRANCH   4   6
HETATM    6  C5  UNL     1      21.557   1.604  51.624  1.00  0.00     0.149 C 
BRANCH   6   7
HETATM    7  C4  UNL     1      22.338   1.315  50.412  1.00  0.00    -0.007 C 
HETATM    8  C3  UNL     1      22.409   1.816  49.198  1.00  0.00    -0.003 C 
BRANCH   8   9
HETATM    9  C2  UNL     1      21.719   2.900  48.533  1.00  0.00    -0.011 C 
HETATM   10  C1  UNL     1      22.104   3.746  47.592  1.00  0.00     0.011 C 
ENDBRANCH   8   9
ENDBRANCH   6   7
ENDBRANCH   4   6
ENDBRANCH   2   4
ENDBRANCH   1   2
BRANCH   1  11
HETATM   11  C7  UNL     1      25.604  -0.287  53.532  1.00  0.00     0.125 C 
BRANCH  11  12
HETATM   12  C8  UNL     1      26.487  -0.667  52.392  1.00  0.00     0.020 C 
BRANCH  12  13
HETATM   13  C9  UNL     1      27.794  -1.173  53.026  1.00  0.00    -0.003 C 
HETATM   14  C10 UNL     1      28.345  -0.073  53.872  1.00  0.00     0.005 C 
ENDBRANCH  12  13
ENDBRANCH  11  12
ENDBRANCH   1  11
BRANCH   1  15
HETATM   15  C11 UNL     1      25.441   2.067  53.187  1.00  0.00     0.166 C 
BRANCH  15  16
HETATM   16  C12 UNL     1      25.311   2.861  51.954  1.00  0.00    -0.006 A 
HETATM   17  C13 UNL     1      26.149   2.539  50.899  1.00  0.00     0.012 A 
HETATM   18  C14 UNL     1      26.163   3.234  49.680  1.00  0.00     0.002 A 
HETATM   19  C15 UNL     1      25.294   4.311  49.496  1.00  0.00     0.022 A 
HETATM   20  C16 UNL     1      24.440   4.668  50.518  1.00  0.00     0.044 A 
HETATM   21 BR1  UNL     1      23.245   6.117  50.307  1.00  0.00    -0.048 Br
HETATM   22  C17 UNL     1      24.495   3.931  51.677  1.00  0.00     0.090 A 
BRANCH  22  23
HETATM   23  O1  UNL     1      23.609   4.328  52.664  1.00  0.00    -0.359 OA
HETATM   24  H23 UNL     1      23.102   5.182  52.560  1.00  0.00     0.217 HD
ENDBRANCH  22  23
ENDBRANCH  15  16
ENDBRANCH   1  15
TORSDOF 11
ENDMDL
