MODEL 1
REMARK VINA RESULT:      -8.3      0.000      0.000
REMARK  6 active torsions:
REMARK  status: ('A' for Active; 'I' for Inactive)
REMARK    1  A    between atoms: C2_2  and  N1_3 
REMARK    2  A    between atoms: C2_2  and  C14_19 
REMARK    3  A    between atoms: N1_3  and  C3_4 
REMARK    4  A    between atoms: C3_4  and  C4_5 
REMARK    5  A    between atoms: C7_10  and  N4_11 
REMARK    6  A    between atoms: C11_15  and  O1_16 
ROOT
HETATM    1  C4  UNL     1      22.814   0.777  51.932  1.00  0.00    -0.040 A 
HETATM    2  C5  UNL     1      23.318   0.210  52.959  1.00  0.00     0.092 A 
HETATM    3  N2  UNL     1      23.867  -0.686  53.959  1.00  0.00    -0.266 NA
HETATM    4  C6  UNL     1      25.032  -0.542  54.549  1.00  0.00     0.230 C 
HETATM    5  N3  UNL     1      26.315   0.038  54.885  1.00  0.00    -0.229 NA
HETATM    6  C7  UNL     1      27.141   0.511  53.965  1.00  0.00     0.102 C 
HETATM    7  C8  UNL     1      27.442   0.781  52.466  1.00  0.00     0.102 A 
HETATM    8  C9  UNL     1      26.818  -0.405  51.839  1.00  0.00    -0.037 A 
HETATM    9  C10 UNL     1      25.930   0.363  52.389  1.00  0.00     0.053 A 
HETATM   10  C11 UNL     1      24.993   1.273  53.025  1.00  0.00     0.109 C 
HETATM   11  C12 UNL     1      23.763   1.555  53.432  1.00  0.00     0.045 A 
HETATM   12  C13 UNL     1      22.482   0.954  53.415  1.00  0.00     0.082 A 
ENDROOT
BRANCH   1  13
HETATM   13  C3  UNL     1      22.240   1.351  50.730  1.00  0.00     0.303 C 
BRANCH  13  14
HETATM   14  N1  UNL     1      23.279   2.107  50.066  1.00  0.00     0.095 N 
HETATM   15  H5  UNL     1      24.203   1.671  50.080  1.00  0.00     0.317 HD
BRANCH  14  16
HETATM   16  C2  UNL     1      23.241   3.487  50.407  1.00  0.00     0.249 C 
HETATM   17  C1  UNL     1      21.995   4.191  49.985  1.00  0.00     0.048 C 
BRANCH  16  18
HETATM   18  C14 UNL     1      24.455   4.159  49.865  1.00  0.00    -0.026 A 
HETATM   19  C15 UNL     1      25.544   3.288  49.895  1.00  0.00     0.011 A 
HETATM   20  C16 UNL     1      26.794   3.698  49.439  1.00  0.00     0.019 A 
HETATM   21  C17 UNL     1      26.975   4.980  48.946  1.00  0.00     0.011 A 
HETATM   22 BR1  UNL     1      28.663   5.589  48.313  1.00  0.00    -0.051 Br
HETATM   23  C18 UNL     1      25.877   5.814  48.932  1.00  0.00     0.019 A 
HETATM   24  C19 UNL     1      24.628   5.436  49.377  1.00  0.00     0.011 A 
ENDBRANCH  16  18
ENDBRANCH  14  16
ENDBRANCH  13  14
ENDBRANCH   1  13
BRANCH  10  25
HETATM   25  O1  UNL     1      25.337   2.510  53.511  1.00  0.00    -0.385 OA
HETATM   26  H15 UNL     1      26.035   2.608  54.236  1.00  0.00     0.210 HD
ENDBRANCH  10  25
BRANCH   6  27
HETATM   27  N4  UNL     1      28.060   0.864  54.997  1.00  0.00    -0.387 N 
HETATM   28  H9  UNL     1      28.872   0.565  55.550  1.00  0.00     0.157 HD
HETATM   29  H10 UNL     1      28.003   1.799  55.492  1.00  0.00     0.157 HD
ENDBRANCH   6  27
TORSDOF 6
ENDMDL
MODEL 2
REMARK VINA RESULT:      -8.3      1.808      2.722
REMARK  6 active torsions:
REMARK  status: ('A' for Active; 'I' for Inactive)
REMARK    1  A    between atoms: C2_2  and  N1_3 
REMARK    2  A    between atoms: C2_2  and  C14_19 
REMARK    3  A    between atoms: N1_3  and  C3_4 
REMARK    4  A    between atoms: C3_4  and  C4_5 
REMARK    5  A    between atoms: C7_10  and  N4_11 
REMARK    6  A    between atoms: C11_15  and  O1_16 
ROOT
HETATM    1  C4  UNL     1      24.083  -0.696  53.567  1.00  0.00    -0.040 A 
HETATM    2  C5  UNL     1      25.335  -0.875  53.734  1.00  0.00     0.092 A 
HETATM    3  N2  UNL     1      26.737  -1.245  53.672  1.00  0.00    -0.266 NA
HETATM    4  C6  UNL     1      27.744  -0.402  53.667  1.00  0.00     0.230 C 
HETATM    5  N3  UNL     1      28.451   0.861  53.689  1.00  0.00    -0.229 NA
HETATM    6  C7  UNL     1      28.060   1.903  52.974  1.00  0.00     0.102 C 
HETATM    7  C8  UNL     1      27.052   2.515  51.963  1.00  0.00     0.102 A 
HETATM    8  C9  UNL     1      26.770   1.342  51.106  1.00  0.00    -0.037 A 
HETATM    9  C10 UNL     1      26.330   1.165  52.312  1.00  0.00     0.053 A 
HETATM   10  C11 UNL     1      25.862   1.038  53.682  1.00  0.00     0.109 C 
HETATM   11  C12 UNL     1      25.339   0.303  54.653  1.00  0.00     0.045 A 
HETATM   12  C13 UNL     1      24.868  -1.019  54.839  1.00  0.00     0.082 A 
ENDROOT
BRANCH   1  13
HETATM   13  C3  UNL     1      22.663  -0.538  53.312  1.00  0.00     0.303 C 
BRANCH  13  14
HETATM   14  N1  UNL     1      22.514   0.426  52.244  1.00  0.00     0.095 N 
HETATM   15  H5  UNL     1      23.255   0.407  51.541  1.00  0.00     0.317 HD
BRANCH  14  16
HETATM   16  C2  UNL     1      22.156   1.714  52.729  1.00  0.00     0.249 C 
HETATM   17  C1  UNL     1      20.692   2.000  52.693  1.00  0.00     0.048 C 
BRANCH  16  18
HETATM   18  C14 UNL     1      22.931   2.749  51.989  1.00  0.00    -0.026 A 
HETATM   19  C15 UNL     1      23.150   2.340  50.674  1.00  0.00     0.011 A 
HETATM   20  C16 UNL     1      23.858   3.148  49.788  1.00  0.00     0.019 A 
HETATM   21  C17 UNL     1      24.356   4.373  50.200  1.00  0.00     0.011 A 
HETATM   22 BR1  UNL     1      25.332   5.513  49.030  1.00  0.00    -0.051 Br
HETATM   23  C18 UNL     1      24.121   4.744  51.508  1.00  0.00     0.019 A 
HETATM   24  C19 UNL     1      23.424   3.967  52.407  1.00  0.00     0.011 A 
ENDBRANCH  16  18
ENDBRANCH  14  16
ENDBRANCH  13  14
ENDBRANCH   1  13
BRANCH  10  25
HETATM   25  O1  UNL     1      25.865   2.067  54.591  1.00  0.00    -0.385 OA
HETATM   26  H15 UNL     1      25.701   3.021  54.297  1.00  0.00     0.210 HD
ENDBRANCH  10  25
BRANCH   6  27
HETATM   27  N4  UNL     1      29.151   2.654  53.501  1.00  0.00    -0.387 N 
HETATM   28  H9  UNL     1      29.619   2.989  54.352  1.00  0.00     0.157 HD
HETATM   29  H10 UNL     1      29.861   3.119  52.866  1.00  0.00     0.157 HD
ENDBRANCH   6  27
TORSDOF 6
ENDMDL
MODEL 3
REMARK VINA RESULT:      -7.9      1.432      2.019
REMARK  6 active torsions:
REMARK  status: ('A' for Active; 'I' for Inactive)
REMARK    1  A    between atoms: C2_2  and  N1_3 
REMARK    2  A    between atoms: C2_2  and  C14_19 
REMARK    3  A    between atoms: N1_3  and  C3_4 
REMARK    4  A    between atoms: C3_4  and  C4_5 
REMARK    5  A    between atoms: C7_10  and  N4_11 
REMARK    6  A    between atoms: C11_15  and  O1_16 
ROOT
HETATM    1  C4  UNL     1      23.513   1.830  51.300  1.00  0.00    -0.040 A 
HETATM    2  C5  UNL     1      23.544   1.002  52.269  1.00  0.00     0.092 A 
HETATM    3  N2  UNL     1      23.531  -0.147  53.156  1.00  0.00    -0.266 NA
HETATM    4  C6  UNL     1      24.487  -0.465  53.999  1.00  0.00     0.230 C 
HETATM    5  N3  UNL     1      25.742  -0.380  54.716  1.00  0.00    -0.229 NA
HETATM    6  C7  UNL     1      26.882  -0.081  54.114  1.00  0.00     0.102 C 
HETATM    7  C8  UNL     1      27.637   0.272  52.804  1.00  0.00     0.102 A 
HETATM    8  C9  UNL     1      26.899  -0.556  51.825  1.00  0.00    -0.037 A 
HETATM    9  C10 UNL     1      26.148   0.378  52.319  1.00  0.00     0.053 A 
HETATM   10  C11 UNL     1      25.367   1.450  52.914  1.00  0.00     0.109 C 
HETATM   11  C12 UNL     1      24.203   2.057  53.096  1.00  0.00     0.045 A 
HETATM   12  C13 UNL     1      22.859   1.909  52.680  1.00  0.00     0.082 A 
ENDROOT
BRANCH   1  13
HETATM   13  C3  UNL     1      23.467   2.712  50.148  1.00  0.00     0.303 C 
BRANCH  13  14
HETATM   14  N1  UNL     1      24.299   3.859  50.440  1.00  0.00     0.095 N 
HETATM   15  H5  UNL     1      23.788   4.716  50.658  1.00  0.00     0.317 HD
BRANCH  14  16
HETATM   16  C2  UNL     1      25.369   3.995  49.514  1.00  0.00     0.249 C 
HETATM   17  C1  UNL     1      26.492   3.034  49.725  1.00  0.00     0.048 C 
BRANCH  16  18
HETATM   18  C14 UNL     1      25.851   5.405  49.527  1.00  0.00    -0.026 A 
HETATM   19  C15 UNL     1      26.943   5.550  48.671  1.00  0.00     0.011 A 
HETATM   20  C16 UNL     1      27.567   6.785  48.520  1.00  0.00     0.019 A 
HETATM   21  C17 UNL     1      27.112   7.892  49.218  1.00  0.00     0.011 A 
HETATM   22 BR1  UNL     1      27.931   9.601  49.049  1.00  0.00    -0.051 Br
HETATM   23  C18 UNL     1      26.031   7.711  50.056  1.00  0.00     0.019 A 
HETATM   24  C19 UNL     1      25.393   6.501  50.226  1.00  0.00     0.011 A 
ENDBRANCH  16  18
ENDBRANCH  14  16
ENDBRANCH  13  14
ENDBRANCH   1  13
BRANCH  10  25
HETATM   25  O1  UNL     1      25.899   2.434  53.709  1.00  0.00    -0.385 OA
HETATM   26  H15 UNL     1      25.352   3.243  53.971  1.00  0.00     0.210 HD
ENDBRANCH  10  25
BRANCH   6  27
HETATM   27  N4  UNL     1      27.551  -0.182  55.369  1.00  0.00    -0.387 N 
HETATM   28  H9  UNL     1      28.193   0.274  56.028  1.00  0.00     0.157 HD
HETATM   29  H10 UNL     1      27.429  -1.029  55.995  1.00  0.00     0.157 HD
ENDBRANCH   6  27
TORSDOF 6
ENDMDL
MODEL 4
REMARK VINA RESULT:      -7.9      3.392      6.578
REMARK  6 active torsions:
REMARK  status: ('A' for Active; 'I' for Inactive)
REMARK    1  A    between atoms: C2_2  and  N1_3 
REMARK    2  A    between atoms: C2_2  and  C14_19 
REMARK    3  A    between atoms: N1_3  and  C3_4 
REMARK    4  A    between atoms: C3_4  and  C4_5 
REMARK    5  A    between atoms: C7_10  and  N4_11 
REMARK    6  A    between atoms: C11_15  and  O1_16 
ROOT
HETATM    1  C4  UNL     1      26.316   0.551  52.422  1.00  0.00    -0.040 A 
HETATM    2  C5  UNL     1      26.553   1.557  51.674  1.00  0.00     0.092 A 
HETATM    3  N2  UNL     1      26.808   2.498  50.599  1.00  0.00    -0.266 NA
HETATM    4  C6  UNL     1      26.126   3.600  50.380  1.00  0.00     0.230 C 
HETATM    5  N3  UNL     1      25.126   4.631  50.561  1.00  0.00    -0.229 NA
HETATM    6  C7  UNL     1      23.865   4.351  50.846  1.00  0.00     0.102 C 
HETATM    7  C8  UNL     1      22.773   3.281  51.119  1.00  0.00     0.102 A 
HETATM    8  C9  UNL     1      23.198   2.207  50.193  1.00  0.00    -0.037 A 
HETATM    9  C10 UNL     1      24.065   2.389  51.139  1.00  0.00     0.053 A 
HETATM   10  C11 UNL     1      24.991   2.647  52.229  1.00  0.00     0.109 C 
HETATM   11  C12 UNL     1      26.164   2.443  52.812  1.00  0.00     0.045 A 
HETATM   12  C13 UNL     1      27.334   1.680  52.589  1.00  0.00     0.082 A 
ENDROOT
BRANCH   1  13
HETATM   13  C3  UNL     1      26.041  -0.637  53.208  1.00  0.00     0.303 C 
BRANCH  13  14
HETATM   14  N1  UNL     1      24.632  -0.934  53.077  1.00  0.00     0.095 N 
HETATM   15  H5  UNL     1      24.234  -0.733  52.158  1.00  0.00     0.317 HD
BRANCH  14  16
HETATM   16  C2  UNL     1      23.880  -0.471  54.192  1.00  0.00     0.249 C 
HETATM   17  C1  UNL     1      24.143  -1.210  55.461  1.00  0.00     0.048 C 
BRANCH  16  18
HETATM   18  C14 UNL     1      22.431  -0.486  53.845  1.00  0.00    -0.026 A 
HETATM   19  C15 UNL     1      21.805  -1.586  54.430  1.00  0.00     0.011 A 
HETATM   20  C16 UNL     1      20.443  -1.811  54.243  1.00  0.00     0.019 A 
HETATM   21  C17 UNL     1      19.689  -0.943  53.471  1.00  0.00     0.011 A 
HETATM   22 BR1  UNL     1      17.826  -1.207  53.182  1.00  0.00    -0.051 Br
HETATM   23  C18 UNL     1      20.341   0.133  52.907  1.00  0.00     0.019 A 
HETATM   24  C19 UNL     1      21.686   0.382  53.074  1.00  0.00     0.011 A 
ENDBRANCH  16  18
ENDBRANCH  14  16
ENDBRANCH  13  14
ENDBRANCH   1  13
BRANCH  10  25
HETATM   25  O1  UNL     1      24.713   3.473  53.290  1.00  0.00    -0.385 OA
HETATM   26  H15 UNL     1      24.739   4.479  53.187  1.00  0.00     0.210 HD
ENDBRANCH  10  25
BRANCH   6  27
HETATM   27  N4  UNL     1      23.577   5.747  50.866  1.00  0.00    -0.387 N 
HETATM   28  H9  UNL     1      23.896   6.684  50.591  1.00  0.00     0.157 HD
HETATM   29  H10 UNL     1      22.698   6.124  51.322  1.00  0.00     0.157 HD
ENDBRANCH   6  27
TORSDOF 6
ENDMDL
MODEL 5
REMARK VINA RESULT:      -7.8      2.868      5.598
REMARK  6 active torsions:
REMARK  status: ('A' for Active; 'I' for Inactive)
REMARK    1  A    between atoms: C2_2  and  N1_3 
REMARK    2  A    between atoms: C2_2  and  C14_19 
REMARK    3  A    between atoms: N1_3  and  C3_4 
REMARK    4  A    between atoms: C3_4  and  C4_5 
REMARK    5  A    between atoms: C7_10  and  N4_11 
REMARK    6  A    between atoms: C11_15  and  O1_16 
ROOT
HETATM    1  C4  UNL     1      25.258   0.512  52.825  1.00  0.00    -0.040 A 
HETATM    2  C5  UNL     1      25.949   1.301  52.098  1.00  0.00     0.092 A 
HETATM    3  N2  UNL     1      26.718   1.974  51.068  1.00  0.00    -0.266 NA
HETATM    4  C6  UNL     1      26.453   3.166  50.582  1.00  0.00     0.230 C 
HETATM    5  N3  UNL     1      25.774   4.431  50.396  1.00  0.00    -0.229 NA
HETATM    6  C7  UNL     1      24.455   4.524  50.338  1.00  0.00     0.102 C 
HETATM    7  C8  UNL     1      23.073   3.817  50.376  1.00  0.00     0.102 A 
HETATM    8  C9  UNL     1      23.392   2.545  49.692  1.00  0.00    -0.037 A 
HETATM    9  C10 UNL     1      24.012   2.643  50.826  1.00  0.00     0.053 A 
HETATM   10  C11 UNL     1      24.673   2.821  52.108  1.00  0.00     0.109 C 
HETATM   11  C12 UNL     1      25.557   2.418  53.009  1.00  0.00     0.045 A 
HETATM   12  C13 UNL     1      26.480   1.359  53.182  1.00  0.00     0.082 A 
ENDROOT
BRANCH   1  13
HETATM   13  C3  UNL     1      24.473  -0.436  53.592  1.00  0.00     0.303 C 
BRANCH  13  14
HETATM   14  N1  UNL     1      23.152  -0.488  53.005  1.00  0.00     0.095 N 
HETATM   15  H5  UNL     1      23.130  -0.396  51.988  1.00  0.00     0.317 HD
BRANCH  14  16
HETATM   16  C2  UNL     1      22.216   0.310  53.719  1.00  0.00     0.249 C 
HETATM   17  C1  UNL     1      21.446  -0.428  54.762  1.00  0.00     0.048 C 
BRANCH  16  18
HETATM   18  C14 UNL     1      21.308   0.985  52.749  1.00  0.00    -0.026 A 
HETATM   19  C15 UNL     1      21.203   0.231  51.580  1.00  0.00     0.011 A 
HETATM   20  C16 UNL     1      20.407   0.666  50.524  1.00  0.00     0.019 A 
HETATM   21  C17 UNL     1      19.705   1.857  50.619  1.00  0.00     0.011 A 
HETATM   22 BR1  UNL     1      18.606   2.497  49.203  1.00  0.00    -0.051 Br
HETATM   23  C18 UNL     1      19.833   2.576  51.788  1.00  0.00     0.019 A 
HETATM   24  C19 UNL     1      20.613   2.171  52.850  1.00  0.00     0.011 A 
ENDBRANCH  16  18
ENDBRANCH  14  16
ENDBRANCH  13  14
ENDBRANCH   1  13
BRANCH  10  25
HETATM   25  O1  UNL     1      24.387   3.840  52.982  1.00  0.00    -0.385 OA
HETATM   26  H15 UNL     1      25.097   4.506  53.255  1.00  0.00     0.210 HD
ENDBRANCH  10  25
BRANCH   6  27
HETATM   27  N4  UNL     1      24.580   5.934  50.169  1.00  0.00    -0.387 N 
HETATM   28  H9  UNL     1      25.046   6.690  49.653  1.00  0.00     0.157 HD
HETATM   29  H10 UNL     1      24.013   6.614  50.753  1.00  0.00     0.157 HD
ENDBRANCH   6  27
TORSDOF 6
ENDMDL
MODEL 6
REMARK VINA RESULT:      -7.4      6.961      9.964
REMARK  6 active torsions:
REMARK  status: ('A' for Active; 'I' for Inactive)
REMARK    1  A    between atoms: C2_2  and  N1_3 
REMARK    2  A    between atoms: C2_2  and  C14_19 
REMARK    3  A    between atoms: N1_3  and  C3_4 
REMARK    4  A    between atoms: C3_4  and  C4_5 
REMARK    5  A    between atoms: C7_10  and  N4_11 
REMARK    6  A    between atoms: C11_15  and  O1_16 
ROOT
HETATM    1  C4  UNL     1      32.341   7.788  48.146  1.00  0.00    -0.040 A 
HETATM    2  C5  UNL     1      33.226   6.937  48.491  1.00  0.00     0.092 A 
HETATM    3  N2  UNL     1      34.017   5.867  49.072  1.00  0.00    -0.266 NA
HETATM    4  C6  UNL     1      34.626   4.922  48.394  1.00  0.00     0.230 C 
HETATM    5  N3  UNL     1      35.080   4.151  47.255  1.00  0.00    -0.229 NA
HETATM    6  C7  UNL     1      34.282   3.846  46.245  1.00  0.00     0.102 C 
HETATM    7  C8  UNL     1      32.874   3.927  45.595  1.00  0.00     0.102 A 
HETATM    8  C9  UNL     1      32.010   3.852  46.794  1.00  0.00    -0.037 A 
HETATM    9  C10 UNL     1      32.707   4.944  46.779  1.00  0.00     0.053 A 
HETATM   10  C11 UNL     1      33.518   6.147  46.694  1.00  0.00     0.109 C 
HETATM   11  C12 UNL     1      33.973   7.266  47.240  1.00  0.00     0.045 A 
HETATM   12  C13 UNL     1      33.827   7.984  48.451  1.00  0.00     0.082 A 
ENDROOT
BRANCH   1  13
HETATM   13  C3  UNL     1      31.285   8.723  47.803  1.00  0.00     0.303 C 
BRANCH  13  14
HETATM   14  N1  UNL     1      30.407   8.066  46.860  1.00  0.00     0.095 N 
HETATM   15  H5  UNL     1      30.677   8.164  45.880  1.00  0.00     0.317 HD
BRANCH  14  16
HETATM   16  C2  UNL     1      29.035   8.302  47.150  1.00  0.00     0.249 C 
HETATM   17  C1  UNL     1      28.785   9.495  48.012  1.00  0.00     0.048 C 
BRANCH  16  18
HETATM   18  C14 UNL     1      28.439   7.071  47.740  1.00  0.00    -0.026 A 
HETATM   19  C15 UNL     1      27.081   7.263  47.992  1.00  0.00     0.011 A 
HETATM   20  C16 UNL     1      26.311   6.246  48.548  1.00  0.00     0.019 A 
HETATM   21  C17 UNL     1      26.884   5.023  48.861  1.00  0.00     0.011 A 
HETATM   22 BR1  UNL     1      25.876   3.601  49.625  1.00  0.00    -0.051 Br
HETATM   23  C18 UNL     1      28.229   4.869  48.599  1.00  0.00     0.019 A 
HETATM   24  C19 UNL     1      29.017   5.857  48.049  1.00  0.00     0.011 A 
ENDBRANCH  16  18
ENDBRANCH  14  16
ENDBRANCH  13  14
ENDBRANCH   1  13
BRANCH  10  25
HETATM   25  O1  UNL     1      34.255   6.497  45.590  1.00  0.00    -0.385 OA
HETATM   26  H15 UNL     1      34.596   7.442  45.471  1.00  0.00     0.210 HD
ENDBRANCH  10  25
BRANCH   6  27
HETATM   27  N4  UNL     1      35.367   3.167  45.616  1.00  0.00    -0.387 N 
HETATM   28  H9  UNL     1      35.881   3.015  44.740  1.00  0.00     0.157 HD
HETATM   29  H10 UNL     1      35.995   2.507  46.158  1.00  0.00     0.157 HD
ENDBRANCH   6  27
TORSDOF 6
ENDMDL
MODEL 7
REMARK VINA RESULT:      -7.4      3.361      6.952
REMARK  6 active torsions:
REMARK  status: ('A' for Active; 'I' for Inactive)
REMARK    1  A    between atoms: C2_2  and  N1_3 
REMARK    2  A    between atoms: C2_2  and  C14_19 
REMARK    3  A    between atoms: N1_3  and  C3_4 
REMARK    4  A    between atoms: C3_4  and  C4_5 
REMARK    5  A    between atoms: C7_10  and  N4_11 
REMARK    6  A    between atoms: C11_15  and  O1_16 
ROOT
HETATM    1  C4  UNL     1      25.782   3.747  50.056  1.00  0.00    -0.040 A 
HETATM    2  C5  UNL     1      25.028   4.503  49.358  1.00  0.00     0.092 A 
HETATM    3  N2  UNL     1      24.059   5.101  48.459  1.00  0.00    -0.266 NA
HETATM    4  C6  UNL     1      23.141   5.975  48.806  1.00  0.00     0.230 C 
HETATM    5  N3  UNL     1      22.364   6.857  49.650  1.00  0.00    -0.229 NA
HETATM    6  C7  UNL     1      21.946   6.498  50.853  1.00  0.00     0.102 C 
HETATM    7  C8  UNL     1      21.873   5.415  51.964  1.00  0.00     0.102 A 
HETATM    8  C9  UNL     1      21.776   4.185  51.148  1.00  0.00    -0.037 A 
HETATM    9  C10 UNL     1      22.924   4.767  50.994  1.00  0.00     0.053 A 
HETATM   10  C11 UNL     1      24.188   5.473  50.872  1.00  0.00     0.109 C 
HETATM   11  C12 UNL     1      25.366   5.626  50.284  1.00  0.00     0.045 A 
HETATM   12  C13 UNL     1      26.121   5.007  49.260  1.00  0.00     0.082 A 
ENDROOT
BRANCH   1  13
HETATM   13  C3  UNL     1      26.604   2.825  50.818  1.00  0.00     0.303 C 
BRANCH  13  14
HETATM   14  N1  UNL     1      26.063   2.761  52.158  1.00  0.00     0.095 N 
HETATM   15  H5  UNL     1      26.358   3.518  52.778  1.00  0.00     0.317 HD
BRANCH  14  16
HETATM   16  C2  UNL     1      26.140   1.450  52.705  1.00  0.00     0.249 C 
HETATM   17  C1  UNL     1      26.940   0.489  51.891  1.00  0.00     0.048 C 
BRANCH  16  18
HETATM   18  C14 UNL     1      24.761   0.940  52.948  1.00  0.00    -0.026 A 
HETATM   19  C15 UNL     1      24.798  -0.168  53.794  1.00  0.00     0.011 A 
HETATM   20  C16 UNL     1      23.624  -0.820  54.163  1.00  0.00     0.019 A 
HETATM   21  C17 UNL     1      22.398  -0.375  53.694  1.00  0.00     0.011 A 
HETATM   22 BR1  UNL     1      20.765  -1.231  54.166  1.00  0.00    -0.051 Br
HETATM   23  C18 UNL     1      22.400   0.722  52.859  1.00  0.00     0.019 A 
HETATM   24  C19 UNL     1      23.545   1.388  52.477  1.00  0.00     0.011 A 
ENDBRANCH  16  18
ENDBRANCH  14  16
ENDBRANCH  13  14
ENDBRANCH   1  13
BRANCH  10  25
HETATM   25  O1  UNL     1      24.553   6.532  51.666  1.00  0.00    -0.385 OA
HETATM   26  H15 UNL     1      24.931   7.379  51.262  1.00  0.00     0.210 HD
ENDBRANCH  10  25
BRANCH   6  27
HETATM   27  N4  UNL     1      21.337   7.779  51.005  1.00  0.00    -0.387 N 
HETATM   28  H9  UNL     1      20.523   8.295  51.358  1.00  0.00     0.157 HD
HETATM   29  H10 UNL     1      21.808   8.661  50.654  1.00  0.00     0.157 HD
ENDBRANCH   6  27
TORSDOF 6
ENDMDL
MODEL 8
REMARK VINA RESULT:      -7.3      1.688      2.643
REMARK  6 active torsions:
REMARK  status: ('A' for Active; 'I' for Inactive)
REMARK    1  A    between atoms: C2_2  and  N1_3 
REMARK    2  A    between atoms: C2_2  and  C14_19 
REMARK    3  A    between atoms: N1_3  and  C3_4 
REMARK    4  A    between atoms: C3_4  and  C4_5 
REMARK    5  A    between atoms: C7_10  and  N4_11 
REMARK    6  A    between atoms: C11_15  and  O1_16 
ROOT
HETATM    1  C4  UNL     1      23.442   3.098  50.691  1.00  0.00    -0.040 A 
HETATM    2  C5  UNL     1      23.306   2.067  51.431  1.00  0.00     0.092 A 
HETATM    3  N2  UNL     1      23.179   0.743  52.011  1.00  0.00    -0.266 NA
HETATM    4  C6  UNL     1      23.915   0.273  52.993  1.00  0.00     0.230 C 
HETATM    5  N3  UNL     1      24.931   0.234  54.023  1.00  0.00    -0.229 NA
HETATM    6  C7  UNL     1      26.152   0.706  53.830  1.00  0.00     0.102 C 
HETATM    7  C8  UNL     1      27.178   1.383  52.881  1.00  0.00     0.102 A 
HETATM    8  C9  UNL     1      26.798   0.780  51.585  1.00  0.00    -0.037 A 
HETATM    9  C10 UNL     1      25.859   1.545  52.046  1.00  0.00     0.053 A 
HETATM   10  C11 UNL     1      24.852   2.418  52.624  1.00  0.00     0.109 C 
HETATM   11  C12 UNL     1      23.626   2.923  52.612  1.00  0.00     0.045 A 
HETATM   12  C13 UNL     1      22.453   2.827  51.826  1.00  0.00     0.082 A 
ENDROOT
BRANCH   1  13
HETATM   13  C3  UNL     1      23.605   4.222  49.788  1.00  0.00     0.303 C 
BRANCH  13  14
HETATM   14  N1  UNL     1      25.021   4.494  49.678  1.00  0.00     0.095 N 
HETATM   15  H5  UNL     1      25.584   4.168  50.466  1.00  0.00     0.317 HD
BRANCH  14  16
HETATM   16  C2  UNL     1      25.280   5.823  49.241  1.00  0.00     0.249 C 
HETATM   17  C1  UNL     1      24.341   6.320  48.193  1.00  0.00     0.048 C 
BRANCH  16  18
HETATM   18  C14 UNL     1      26.697   5.923  48.793  1.00  0.00    -0.026 A 
HETATM   19  C15 UNL     1      27.018   7.248  48.499  1.00  0.00     0.011 A 
HETATM   20  C16 UNL     1      28.293   7.589  48.056  1.00  0.00     0.019 A 
HETATM   21  C17 UNL     1      29.265   6.613  47.900  1.00  0.00     0.011 A 
HETATM   22 BR1  UNL     1      31.022   7.026  47.295  1.00  0.00    -0.051 Br
HETATM   23  C18 UNL     1      28.912   5.314  48.198  1.00  0.00     0.019 A 
HETATM   24  C19 UNL     1      27.659   4.947  48.639  1.00  0.00     0.011 A 
ENDBRANCH  16  18
ENDBRANCH  14  16
ENDBRANCH  13  14
ENDBRANCH   1  13
BRANCH  10  25
HETATM   25  O1  UNL     1      25.065   3.209  53.726  1.00  0.00    -0.385 OA
HETATM   26  H15 UNL     1      25.393   2.811  54.596  1.00  0.00     0.210 HD
ENDBRANCH  10  25
BRANCH   6  27
HETATM   27  N4  UNL     1      26.486   0.339  55.167  1.00  0.00    -0.387 N 
HETATM   28  H9  UNL     1      26.428   0.600  56.159  1.00  0.00     0.157 HD
HETATM   29  H10 UNL     1      27.016  -0.554  55.380  1.00  0.00     0.157 HD
ENDBRANCH   6  27
TORSDOF 6
ENDMDL
MODEL 9
REMARK VINA RESULT:      -7.2      6.487      9.411
REMARK  6 active torsions:
REMARK  status: ('A' for Active; 'I' for Inactive)
REMARK    1  A    between atoms: C2_2  and  N1_3 
REMARK    2  A    between atoms: C2_2  and  C14_19 
REMARK    3  A    between atoms: N1_3  and  C3_4 
REMARK    4  A    between atoms: C3_4  and  C4_5 
REMARK    5  A    between atoms: C7_10  and  N4_11 
REMARK    6  A    between atoms: C11_15  and  O1_16 
ROOT
HETATM    1  C4  UNL     1      31.306   7.336  48.578  1.00  0.00    -0.040 A 
HETATM    2  C5  UNL     1      32.414   6.732  48.771  1.00  0.00     0.092 A 
HETATM    3  N2  UNL     1      33.506   5.861  49.163  1.00  0.00    -0.266 NA
HETATM    4  C6  UNL     1      34.313   5.237  48.335  1.00  0.00     0.230 C 
HETATM    5  N3  UNL     1      34.893   4.802  47.082  1.00  0.00    -0.229 NA
HETATM    6  C7  UNL     1      34.151   4.431  46.050  1.00  0.00     0.102 C 
HETATM    7  C8  UNL     1      32.739   4.198  45.447  1.00  0.00     0.102 A 
HETATM    8  C9  UNL     1      32.006   3.707  46.635  1.00  0.00    -0.037 A 
HETATM    9  C10 UNL     1      32.368   4.944  46.778  1.00  0.00     0.053 A 
HETATM   10  C11 UNL     1      32.804   6.327  46.867  1.00  0.00     0.109 C 
HETATM   11  C12 UNL     1      32.960   7.438  47.573  1.00  0.00     0.045 A 
HETATM   12  C13 UNL     1      32.694   7.902  48.883  1.00  0.00     0.082 A 
ENDROOT
BRANCH   1  13
HETATM   13  C3  UNL     1      30.012   7.969  48.405  1.00  0.00     0.303 C 
BRANCH  13  14
HETATM   14  N1  UNL     1      29.013   7.083  48.958  1.00  0.00     0.095 N 
HETATM   15  H5  UNL     1      29.382   6.331  49.544  1.00  0.00     0.317 HD
BRANCH  14  16
HETATM   16  C2  UNL     1      28.044   6.695  47.992  1.00  0.00     0.249 C 
HETATM   17  C1  UNL     1      27.245   7.825  47.434  1.00  0.00     0.048 C 
BRANCH  16  18
HETATM   18  C14 UNL     1      27.165   5.643  48.574  1.00  0.00    -0.026 A 
HETATM   19  C15 UNL     1      25.871   6.134  48.742  1.00  0.00     0.011 A 
HETATM   20  C16 UNL     1      24.869   5.327  49.276  1.00  0.00     0.019 A 
HETATM   21  C17 UNL     1      25.144   4.021  49.648  1.00  0.00     0.011 A 
HETATM   22 BR1  UNL     1      23.812   2.878  50.384  1.00  0.00    -0.051 Br
HETATM   23  C18 UNL     1      26.435   3.570  49.468  1.00  0.00     0.019 A 
HETATM   24  C19 UNL     1      27.447   4.345  48.943  1.00  0.00     0.011 A 
ENDBRANCH  16  18
ENDBRANCH  14  16
ENDBRANCH  13  14
ENDBRANCH   1  13
BRANCH  10  25
HETATM   25  O1  UNL     1      33.343   7.029  45.818  1.00  0.00    -0.385 OA
HETATM   26  H15 UNL     1      33.296   6.670  44.874  1.00  0.00     0.210 HD
ENDBRANCH  10  25
BRANCH   6  27
HETATM   27  N4  UNL     1      35.342   4.188  45.304  1.00  0.00    -0.387 N 
HETATM   28  H9  UNL     1      36.267   4.547  45.041  1.00  0.00     0.157 HD
HETATM   29  H10 UNL     1      35.465   3.304  44.732  1.00  0.00     0.157 HD
ENDBRANCH   6  27
TORSDOF 6
ENDMDL
