MODEL 1
REMARK VINA RESULT:      -8.2      0.000      0.000
REMARK  3 active torsions:
REMARK  status: ('A' for Active; 'I' for Inactive)
REMARK    1  A    between atoms: C4_4  and  C5_5 
REMARK    2  A    between atoms: C9_13  and  N5_14 
REMARK    3  A    between atoms: N5_14  and  C10_15 
ROOT
HETATM    1  C1  UNL     1      21.190  -1.055  54.259  1.00  0.00     0.050 C 
HETATM    2  C2  UNL     1      22.549  -0.595  53.861  1.00  0.00    -0.029 A 
HETATM    3  C3  UNL     1      23.804  -0.900  54.358  1.00  0.00     0.041 A 
HETATM    4  C4  UNL     1      24.743  -0.201  53.630  1.00  0.00     0.073 A 
HETATM    5  N3  UNL     1      24.085   0.520  52.703  1.00  0.00    -0.215 N 
HETATM    6  N4  UNL     1      24.577   1.336  51.786  1.00  0.00     0.027 NA
HETATM    7  C9  UNL     1      23.801   2.001  50.912  1.00  0.00     0.744 A 
HETATM    8  N6  UNL     1      22.474   1.807  50.999  1.00  0.00    -0.071 NA
HETATM    9  C15 UNL     1      21.948   0.971  51.936  1.00  0.00     0.168 A 
HETATM   10  C16 UNL     1      22.759   0.294  52.826  1.00  0.00     0.083 A 
ENDROOT
BRANCH   7  11
HETATM   11  N5  UNL     1      24.360   2.873  49.936  1.00  0.00    -0.185 N 
HETATM   12  H10 UNL     1      24.586   2.482  48.996  1.00  0.00     0.184 HD
BRANCH  11  13
HETATM   13  C10 UNL     1      24.636   4.241  50.147  1.00  0.00     0.071 A 
HETATM   14  C11 UNL     1      24.028   4.933  51.090  1.00  0.00     0.164 A 
HETATM   15  O1  UNL     1      24.235   6.273  51.365  1.00  0.00    -0.357 OA
HETATM   16  C12 UNL     1      25.154   7.053  50.631  1.00  0.00     0.202 A 
HETATM   17  C13 UNL     1      25.777   6.190  49.606  1.00  0.00     0.002 A 
HETATM   18  C14 UNL     1      25.606   4.913  49.314  1.00  0.00     0.030 A 
ENDBRANCH  11  13
ENDBRANCH   7  11
BRANCH   4  19
HETATM   19  C5  UNL     1      26.178  -0.275  53.874  1.00  0.00     0.029 A 
HETATM   20  C6  UNL     1      26.788   0.215  55.011  1.00  0.00     0.154 A 
HETATM   21  N1  UNL     1      28.108  -0.034  54.877  1.00  0.00    -0.185 NA
HETATM   22  N2  UNL     1      28.345  -0.647  53.725  1.00  0.00    -0.285 N 
HETATM   23  C7  UNL     1      29.689  -1.036  53.321  1.00  0.00     0.179 C 
HETATM   24  C8  UNL     1      27.170  -0.809  53.085  1.00  0.00     0.127 A 
ENDBRANCH   4  19
TORSDOF 3
ENDMDL
MODEL 2
REMARK VINA RESULT:      -7.9      2.687      6.343
REMARK  3 active torsions:
REMARK  status: ('A' for Active; 'I' for Inactive)
REMARK    1  A    between atoms: C4_4  and  C5_5 
REMARK    2  A    between atoms: C9_13  and  N5_14 
REMARK    3  A    between atoms: N5_14  and  C10_15 
ROOT
HETATM    1  C1  UNL     1      23.583   3.940  48.481  1.00  0.00     0.050 C 
HETATM    2  C2  UNL     1      23.552   3.111  49.718  1.00  0.00    -0.029 A 
HETATM    3  C3  UNL     1      22.514   2.467  50.367  1.00  0.00     0.041 A 
HETATM    4  C4  UNL     1      23.023   1.832  51.479  1.00  0.00     0.073 A 
HETATM    5  N3  UNL     1      24.346   2.076  51.519  1.00  0.00    -0.215 N 
HETATM    6  N4  UNL     1      25.237   1.668  52.405  1.00  0.00     0.027 NA
HETATM    7  C9  UNL     1      26.542   1.987  52.327  1.00  0.00     0.744 A 
HETATM    8  N6  UNL     1      26.924   2.754  51.291  1.00  0.00    -0.071 NA
HETATM    9  C15 UNL     1      26.021   3.184  50.367  1.00  0.00     0.168 A 
HETATM   10  C16 UNL     1      24.685   2.847  50.462  1.00  0.00     0.083 A 
ENDROOT
BRANCH   7  11
HETATM   11  N5  UNL     1      27.478   1.532  53.297  1.00  0.00    -0.185 N 
HETATM   12  H10 UNL     1      27.758   2.188  54.059  1.00  0.00     0.184 HD
BRANCH  11  13
HETATM   13  C10 UNL     1      28.065   0.249  53.305  1.00  0.00     0.071 A 
HETATM   14  C11 UNL     1      27.365  -0.834  53.033  1.00  0.00     0.164 A 
HETATM   15  O1  UNL     1      27.857  -2.127  53.019  1.00  0.00    -0.357 OA
HETATM   16  C12 UNL     1      29.207  -2.416  53.307  1.00  0.00     0.202 A 
HETATM   17  C13 UNL     1      29.901  -1.144  53.596  1.00  0.00     0.002 A 
HETATM   18  C14 UNL     1      29.467   0.105  53.619  1.00  0.00     0.030 A 
ENDBRANCH  11  13
ENDBRANCH   7  11
BRANCH   4  19
HETATM   19  C5  UNL     1      22.215   1.050  52.408  1.00  0.00     0.029 A 
HETATM   20  C6  UNL     1      21.066   1.523  53.009  1.00  0.00     0.154 A 
HETATM   21  N1  UNL     1      20.603   0.525  53.790  1.00  0.00    -0.185 NA
HETATM   22  N2  UNL     1      21.398  -0.533  53.705  1.00  0.00    -0.285 N 
HETATM   23  C7  UNL     1      21.135  -1.758  54.447  1.00  0.00     0.179 C 
HETATM   24  C8  UNL     1      22.403  -0.236  52.856  1.00  0.00     0.127 A 
ENDBRANCH   4  19
TORSDOF 3
ENDMDL
MODEL 3
REMARK VINA RESULT:      -7.9      2.606      6.274
REMARK  3 active torsions:
REMARK  status: ('A' for Active; 'I' for Inactive)
REMARK    1  A    between atoms: C4_4  and  C5_5 
REMARK    2  A    between atoms: C9_13  and  N5_14 
REMARK    3  A    between atoms: N5_14  and  C10_15 
ROOT
HETATM    1  C1  UNL     1      21.017   1.701  49.286  1.00  0.00     0.050 C 
HETATM    2  C2  UNL     1      22.383   2.177  49.637  1.00  0.00    -0.029 A 
HETATM    3  C3  UNL     1      23.243   3.052  48.998  1.00  0.00     0.041 A 
HETATM    4  C4  UNL     1      24.397   3.154  49.745  1.00  0.00     0.073 A 
HETATM    5  N3  UNL     1      24.255   2.360  50.823  1.00  0.00    -0.215 N 
HETATM    6  N4  UNL     1      25.106   2.145  51.811  1.00  0.00     0.027 NA
HETATM    7  C9  UNL     1      24.837   1.319  52.838  1.00  0.00     0.744 A 
HETATM    8  N6  UNL     1      23.643   0.702  52.831  1.00  0.00    -0.071 NA
HETATM    9  C15 UNL     1      22.752   0.911  51.823  1.00  0.00     0.168 A 
HETATM   10  C16 UNL     1      23.044   1.762  50.776  1.00  0.00     0.083 A 
ENDROOT
BRANCH   7  11
HETATM   11  N5  UNL     1      25.774   1.108  53.888  1.00  0.00    -0.185 N 
HETATM   12  H10 UNL     1      25.589   1.554  54.813  1.00  0.00     0.184 HD
BRANCH  11  13
HETATM   13  C10 UNL     1      26.948   0.333  53.771  1.00  0.00     0.071 A 
HETATM   14  C11 UNL     1      26.919  -0.902  53.310  1.00  0.00     0.164 A 
HETATM   15  O1  UNL     1      28.017  -1.731  53.164  1.00  0.00    -0.357 OA
HETATM   16  C12 UNL     1      29.320  -1.314  53.508  1.00  0.00     0.202 A 
HETATM   17  C13 UNL     1      29.243   0.073  54.010  1.00  0.00     0.002 A 
HETATM   18  C14 UNL     1      28.219   0.894  54.164  1.00  0.00     0.030 A 
ENDBRANCH  11  13
ENDBRANCH   7  11
BRANCH   4  19
HETATM   19  C5  UNL     1      25.533   3.991  49.376  1.00  0.00     0.029 A 
HETATM   20  C6  UNL     1      26.828   3.525  49.284  1.00  0.00     0.154 A 
HETATM   21  N1  UNL     1      27.590   4.579  48.922  1.00  0.00    -0.185 NA
HETATM   22  N2  UNL     1      26.840   5.664  48.786  1.00  0.00    -0.285 N 
HETATM   23  C7  UNL     1      27.404   6.950  48.401  1.00  0.00     0.179 C 
HETATM   24  C8  UNL     1      25.563   5.328  49.061  1.00  0.00     0.127 A 
ENDBRANCH   4  19
TORSDOF 3
ENDMDL
MODEL 4
REMARK VINA RESULT:      -7.8      1.776      2.165
REMARK  3 active torsions:
REMARK  status: ('A' for Active; 'I' for Inactive)
REMARK    1  A    between atoms: C4_4  and  C5_5 
REMARK    2  A    between atoms: C9_13  and  N5_14 
REMARK    3  A    between atoms: N5_14  and  C10_15 
ROOT
HETATM    1  C1  UNL     1      21.033  -1.260  54.293  1.00  0.00     0.050 C 
HETATM    2  C2  UNL     1      22.380  -0.756  53.905  1.00  0.00    -0.029 A 
HETATM    3  C3  UNL     1      23.643  -1.047  54.387  1.00  0.00     0.041 A 
HETATM    4  C4  UNL     1      24.562  -0.304  53.678  1.00  0.00     0.073 A 
HETATM    5  N3  UNL     1      23.884   0.430  52.777  1.00  0.00    -0.215 N 
HETATM    6  N4  UNL     1      24.352   1.285  51.884  1.00  0.00     0.027 NA
HETATM    7  C9  UNL     1      23.557   1.960  51.035  1.00  0.00     0.744 A 
HETATM    8  N6  UNL     1      22.235   1.732  51.121  1.00  0.00    -0.071 NA
HETATM    9  C15 UNL     1      21.734   0.855  52.033  1.00  0.00     0.168 A 
HETATM   10  C16 UNL     1      22.563   0.170  52.898  1.00  0.00     0.083 A 
ENDROOT
BRANCH   7  11
HETATM   11  N5  UNL     1      24.091   2.875  50.085  1.00  0.00    -0.185 N 
HETATM   12  H10 UNL     1      25.067   3.218  50.223  1.00  0.00     0.184 HD
BRANCH  11  13
HETATM   13  C10 UNL     1      23.393   3.360  48.958  1.00  0.00     0.071 A 
HETATM   14  C11 UNL     1      23.343   4.646  48.675  1.00  0.00     0.164 A 
HETATM   15  O1  UNL     1      22.684   5.208  47.596  1.00  0.00    -0.357 OA
HETATM   16  C12 UNL     1      21.975   4.422  46.662  1.00  0.00     0.202 A 
HETATM   17  C13 UNL     1      22.091   3.006  47.067  1.00  0.00     0.002 A 
HETATM   18  C14 UNL     1      22.709   2.433  48.086  1.00  0.00     0.030 A 
ENDBRANCH  11  13
ENDBRANCH   7  11
BRANCH   4  19
HETATM   19  C5  UNL     1      26.000  -0.352  53.913  1.00  0.00     0.029 A 
HETATM   20  C6  UNL     1      26.611   0.181  55.030  1.00  0.00     0.154 A 
HETATM   21  N1  UNL     1      27.933  -0.056  54.894  1.00  0.00    -0.185 NA
HETATM   22  N2  UNL     1      28.171  -0.703  53.761  1.00  0.00    -0.285 N 
HETATM   23  C7  UNL     1      29.516  -1.088  53.359  1.00  0.00     0.179 C 
HETATM   24  C8  UNL     1      26.993  -0.900  53.135  1.00  0.00     0.127 A 
ENDBRANCH   4  19
TORSDOF 3
ENDMDL
MODEL 5
REMARK VINA RESULT:      -7.7      2.838      6.535
REMARK  3 active torsions:
REMARK  status: ('A' for Active; 'I' for Inactive)
REMARK    1  A    between atoms: C4_4  and  C5_5 
REMARK    2  A    between atoms: C9_13  and  N5_14 
REMARK    3  A    between atoms: N5_14  and  C10_15 
ROOT
HETATM    1  C1  UNL     1      21.751   2.093  48.436  1.00  0.00     0.050 C 
HETATM    2  C2  UNL     1      22.852   2.885  49.053  1.00  0.00    -0.029 A 
HETATM    3  C3  UNL     1      23.527   4.011  48.620  1.00  0.00     0.041 A 
HETATM    4  C4  UNL     1      24.465   4.350  49.572  1.00  0.00     0.073 A 
HETATM    5  N3  UNL     1      24.372   3.455  50.573  1.00  0.00    -0.215 N 
HETATM    6  N4  UNL     1      25.071   3.388  51.692  1.00  0.00     0.027 NA
HETATM    7  C9  UNL     1      24.875   2.432  52.618  1.00  0.00     0.744 A 
HETATM    8  N6  UNL     1      23.919   1.521  52.365  1.00  0.00    -0.071 NA
HETATM    9  C15 UNL     1      23.188   1.573  51.218  1.00  0.00     0.168 A 
HETATM   10  C16 UNL     1      23.402   2.561  50.278  1.00  0.00     0.083 A 
ENDROOT
BRANCH   7  11
HETATM   11  N5  UNL     1      25.645   2.386  53.814  1.00  0.00    -0.185 N 
HETATM   12  H10 UNL     1      25.346   2.983  54.616  1.00  0.00     0.184 HD
BRANCH  11  13
HETATM   13  C10 UNL     1      26.794   1.588  53.998  1.00  0.00     0.071 A 
HETATM   14  C11 UNL     1      26.739   0.432  54.629  1.00  0.00     0.164 A 
HETATM   15  O1  UNL     1      27.812  -0.412  54.856  1.00  0.00    -0.357 OA
HETATM   16  C12 UNL     1      29.115  -0.099  54.414  1.00  0.00     0.202 A 
HETATM   17  C13 UNL     1      29.068   1.206  53.724  1.00  0.00     0.002 A 
HETATM   18  C14 UNL     1      28.068   2.038  53.489  1.00  0.00     0.030 A 
ENDBRANCH  11  13
ENDBRANCH   7  11
BRANCH   4  19
HETATM   19  C5  UNL     1      25.366   5.490  49.453  1.00  0.00     0.029 A 
HETATM   20  C6  UNL     1      25.170   6.692  50.102  1.00  0.00     0.154 A 
HETATM   21  N1  UNL     1      26.200   7.490  49.752  1.00  0.00    -0.185 NA
HETATM   22  N2  UNL     1      27.018   6.851  48.926  1.00  0.00    -0.285 N 
HETATM   23  C7  UNL     1      28.217   7.477  48.388  1.00  0.00     0.179 C 
HETATM   24  C8  UNL     1      26.526   5.611  48.725  1.00  0.00     0.127 A 
ENDBRANCH   4  19
TORSDOF 3
ENDMDL
MODEL 6
REMARK VINA RESULT:      -7.7      1.773      4.311
REMARK  3 active torsions:
REMARK  status: ('A' for Active; 'I' for Inactive)
REMARK    1  A    between atoms: C4_4  and  C5_5 
REMARK    2  A    between atoms: C9_13  and  N5_14 
REMARK    3  A    between atoms: N5_14  and  C10_15 
ROOT
HETATM    1  C1  UNL     1      28.172   0.007  54.906  1.00  0.00     0.050 C 
HETATM    2  C2  UNL     1      26.883   0.248  54.200  1.00  0.00    -0.029 A 
HETATM    3  C3  UNL     1      25.616  -0.272  54.397  1.00  0.00     0.041 A 
HETATM    4  C4  UNL     1      24.766   0.284  53.466  1.00  0.00     0.073 A 
HETATM    5  N3  UNL     1      25.489   1.130  52.708  1.00  0.00    -0.215 N 
HETATM    6  N4  UNL     1      25.092   1.882  51.697  1.00  0.00     0.027 NA
HETATM    7  C9  UNL     1      25.926   2.691  51.019  1.00  0.00     0.744 A 
HETATM    8  N6  UNL     1      27.211   2.714  51.412  1.00  0.00    -0.071 NA
HETATM    9  C15 UNL     1      27.639   1.948  52.452  1.00  0.00     0.168 A 
HETATM   10  C16 UNL     1      26.771   1.122  53.137  1.00  0.00     0.083 A 
ENDROOT
BRANCH   7  11
HETATM   11  N5  UNL     1      25.468   3.489  49.933  1.00  0.00    -0.185 N 
HETATM   12  H10 UNL     1      24.751   3.086  49.291  1.00  0.00     0.184 HD
BRANCH  11  13
HETATM   13  C10 UNL     1      25.918   4.797  49.654  1.00  0.00     0.071 A 
HETATM   14  C11 UNL     1      25.369   5.853  50.223  1.00  0.00     0.164 A 
HETATM   15  O1  UNL     1      25.744   7.167  50.008  1.00  0.00    -0.357 OA
HETATM   16  C12 UNL     1      26.790   7.512  49.125  1.00  0.00     0.202 A 
HETATM   17  C13 UNL     1      27.333   6.266  48.545  1.00  0.00     0.002 A 
HETATM   18  C14 UNL     1      27.004   4.999  48.724  1.00  0.00     0.030 A 
ENDBRANCH  11  13
ENDBRANCH   7  11
BRANCH   4  19
HETATM   19  C5  UNL     1      23.346  -0.032  53.372  1.00  0.00     0.029 A 
HETATM   20  C6  UNL     1      22.709  -0.944  54.188  1.00  0.00     0.154 A 
HETATM   21  N1  UNL     1      21.415  -0.964  53.805  1.00  0.00    -0.185 NA
HETATM   22  N2  UNL     1      21.219  -0.119  52.802  1.00  0.00    -0.285 N 
HETATM   23  C7  UNL     1      19.910   0.063  52.190  1.00  0.00     0.179 C 
HETATM   24  C8  UNL     1      22.397   0.472  52.514  1.00  0.00     0.127 A 
ENDBRANCH   4  19
TORSDOF 3
ENDMDL
MODEL 7
REMARK VINA RESULT:      -7.7      1.912      2.525
REMARK  3 active torsions:
REMARK  status: ('A' for Active; 'I' for Inactive)
REMARK    1  A    between atoms: C4_4  and  C5_5 
REMARK    2  A    between atoms: C9_13  and  N5_14 
REMARK    3  A    between atoms: N5_14  and  C10_15 
ROOT
HETATM    1  C1  UNL     1      20.362   0.328  52.408  1.00  0.00     0.050 C 
HETATM    2  C2  UNL     1      21.759   0.824  52.548  1.00  0.00    -0.029 A 
HETATM    3  C3  UNL     1      22.949   0.162  52.791  1.00  0.00     0.041 A 
HETATM    4  C4  UNL     1      23.966   1.092  52.828  1.00  0.00     0.073 A 
HETATM    5  N3  UNL     1      23.419   2.303  52.613  1.00  0.00    -0.215 N 
HETATM    6  N4  UNL     1      24.012   3.483  52.561  1.00  0.00     0.027 NA
HETATM    7  C9  UNL     1      23.341   4.627  52.336  1.00  0.00     0.744 A 
HETATM    8  N6  UNL     1      22.012   4.533  52.160  1.00  0.00    -0.071 NA
HETATM    9  C15 UNL     1      21.382   3.327  52.209  1.00  0.00     0.168 A 
HETATM   10  C16 UNL     1      22.086   2.162  52.441  1.00  0.00     0.083 A 
ENDROOT
BRANCH   7  11
HETATM   11  N5  UNL     1      24.008   5.883  52.286  1.00  0.00    -0.185 N 
HETATM   12  H10 UNL     1      24.371   6.286  53.178  1.00  0.00     0.184 HD
BRANCH  11  13
HETATM   13  C10 UNL     1      24.217   6.634  51.109  1.00  0.00     0.071 A 
HETATM   14  C11 UNL     1      25.255   6.418  50.326  1.00  0.00     0.164 A 
HETATM   15  O1  UNL     1      25.538   7.105  49.158  1.00  0.00    -0.357 OA
HETATM   16  C12 UNL     1      24.706   8.140  48.680  1.00  0.00     0.202 A 
HETATM   17  C13 UNL     1      23.580   8.301  49.623  1.00  0.00     0.002 A 
HETATM   18  C14 UNL     1      23.277   7.668  50.743  1.00  0.00     0.030 A 
ENDBRANCH  11  13
ENDBRANCH   7  11
BRANCH   4  19
HETATM   19  C5  UNL     1      25.365   0.757  53.063  1.00  0.00     0.029 A 
HETATM   20  C6  UNL     1      26.249   0.411  52.061  1.00  0.00     0.154 A 
HETATM   21  N1  UNL     1      27.435   0.174  52.660  1.00  0.00    -0.185 NA
HETATM   22  N2  UNL     1      27.333   0.353  53.970  1.00  0.00    -0.285 N 
HETATM   23  C7  UNL     1      28.466   0.165  54.865  1.00  0.00     0.179 C 
HETATM   24  C8  UNL     1      26.064   0.715  54.247  1.00  0.00     0.127 A 
ENDBRANCH   4  19
TORSDOF 3
ENDMDL
MODEL 8
REMARK VINA RESULT:      -7.5      2.475      5.878
REMARK  3 active torsions:
REMARK  status: ('A' for Active; 'I' for Inactive)
REMARK    1  A    between atoms: C4_4  and  C5_5 
REMARK    2  A    between atoms: C9_13  and  N5_14 
REMARK    3  A    between atoms: N5_14  and  C10_15 
ROOT
HETATM    1  C1  UNL     1      21.623   6.279  51.038  1.00  0.00     0.050 C 
HETATM    2  C2  UNL     1      21.943   4.878  51.431  1.00  0.00    -0.029 A 
HETATM    3  C3  UNL     1      21.163   3.878  51.981  1.00  0.00     0.041 A 
HETATM    4  C4  UNL     1      21.947   2.757  52.153  1.00  0.00     0.073 A 
HETATM    5  N3  UNL     1      23.186   3.057  51.718  1.00  0.00    -0.215 N 
HETATM    6  N4  UNL     1      24.262   2.290  51.690  1.00  0.00     0.027 NA
HETATM    7  C9  UNL     1      25.449   2.718  51.226  1.00  0.00     0.744 A 
HETATM    8  N6  UNL     1      25.512   3.983  50.777  1.00  0.00    -0.071 NA
HETATM    9  C15 UNL     1      24.415   4.789  50.797  1.00  0.00     0.168 A 
HETATM   10  C16 UNL     1      23.203   4.334  51.277  1.00  0.00     0.083 A 
ENDROOT
BRANCH   7  11
HETATM   11  N5  UNL     1      26.591   1.868  51.208  1.00  0.00    -0.185 N 
HETATM   12  H10 UNL     1      27.018   1.634  50.286  1.00  0.00     0.184 HD
BRANCH  11  13
HETATM   13  C10 UNL     1      27.194   1.311  52.356  1.00  0.00     0.071 A 
HETATM   14  C11 UNL     1      27.787   2.064  53.261  1.00  0.00     0.164 A 
HETATM   15  O1  UNL     1      28.403   1.605  54.412  1.00  0.00    -0.357 OA
HETATM   16  C12 UNL     1      28.453   0.232  54.735  1.00  0.00     0.202 A 
HETATM   17  C13 UNL     1      27.765  -0.520  53.665  1.00  0.00     0.002 A 
HETATM   18  C14 UNL     1      27.168  -0.119  52.556  1.00  0.00     0.030 A 
ENDBRANCH  11  13
ENDBRANCH   7  11
BRANCH   4  19
HETATM   19  C5  UNL     1      21.460   1.502  52.712  1.00  0.00     0.029 A 
HETATM   20  C6  UNL     1      20.172   1.037  52.540  1.00  0.00     0.154 A 
HETATM   21  N1  UNL     1      20.099  -0.141  53.196  1.00  0.00    -0.185 NA
HETATM   22  N2  UNL     1      21.264  -0.426  53.761  1.00  0.00    -0.285 N 
HETATM   23  C7  UNL     1      21.470  -1.642  54.535  1.00  0.00     0.179 C 
HETATM   24  C8  UNL     1      22.124   0.573  53.477  1.00  0.00     0.127 A 
ENDBRANCH   4  19
TORSDOF 3
ENDMDL
MODEL 9
REMARK VINA RESULT:      -7.5      2.370      4.661
REMARK  3 active torsions:
REMARK  status: ('A' for Active; 'I' for Inactive)
REMARK    1  A    between atoms: C4_4  and  C5_5 
REMARK    2  A    between atoms: C9_13  and  N5_14 
REMARK    3  A    between atoms: N5_14  and  C10_15 
ROOT
HETATM    1  C1  UNL     1      28.028  -0.751  53.048  1.00  0.00     0.050 C 
HETATM    2  C2  UNL     1      26.588  -0.374  53.019  1.00  0.00    -0.029 A 
HETATM    3  C3  UNL     1      25.469  -0.977  53.566  1.00  0.00     0.041 A 
HETATM    4  C4  UNL     1      24.364  -0.217  53.246  1.00  0.00     0.073 A 
HETATM    5  N3  UNL     1      24.789   0.833  52.518  1.00  0.00    -0.215 N 
HETATM    6  N4  UNL     1      24.081   1.820  51.997  1.00  0.00     0.027 NA
HETATM    7  C9  UNL     1      24.635   2.817  51.284  1.00  0.00     0.744 A 
HETATM    8  N6  UNL     1      25.968   2.780  51.112  1.00  0.00    -0.071 NA
HETATM    9  C15 UNL     1      26.714   1.772  51.641  1.00  0.00     0.168 A 
HETATM   10  C16 UNL     1      26.130   0.756  52.371  1.00  0.00     0.083 A 
ENDROOT
BRANCH   7  11
HETATM   11  N5  UNL     1      23.846   3.867  50.735  1.00  0.00    -0.185 N 
HETATM   12  H10 UNL     1      23.871   4.799  51.203  1.00  0.00     0.184 HD
BRANCH  11  13
HETATM   13  C10 UNL     1      23.024   3.740  49.596  1.00  0.00     0.071 A 
HETATM   14  C11 UNL     1      22.115   4.646  49.294  1.00  0.00     0.164 A 
HETATM   15  O1  UNL     1      21.267   4.602  48.202  1.00  0.00    -0.357 OA
HETATM   16  C12 UNL     1      21.300   3.541  47.273  1.00  0.00     0.202 A 
HETATM   17  C13 UNL     1      22.344   2.586  47.698  1.00  0.00     0.002 A 
HETATM   18  C14 UNL     1      23.170   2.593  48.731  1.00  0.00     0.030 A 
ENDBRANCH  11  13
ENDBRANCH   7  11
BRANCH   4  19
HETATM   19  C5  UNL     1      23.005  -0.548  53.655  1.00  0.00     0.029 A 
HETATM   20  C6  UNL     1      22.687  -1.106  54.876  1.00  0.00     0.154 A 
HETATM   21  N1  UNL     1      21.347  -1.265  54.889  1.00  0.00    -0.185 NA
HETATM   22  N2  UNL     1      20.822  -0.839  53.748  1.00  0.00    -0.285 N 
HETATM   23  C7  UNL     1      19.390  -0.894  53.489  1.00  0.00     0.179 C 
HETATM   24  C8  UNL     1      21.825  -0.390  52.967  1.00  0.00     0.127 A 
ENDBRANCH   4  19
TORSDOF 3
ENDMDL
