MODEL 1
REMARK VINA RESULT:      -7.7      0.000      0.000
REMARK  7 active torsions:
REMARK  status: ('A' for Active; 'I' for Inactive)
REMARK    1  A    between atoms: C2_2  and  C3_3 
REMARK    2  A    between atoms: C3_3  and  C4_4 
REMARK    3  A    between atoms: C4_4  and  N1_5 
REMARK    4  A    between atoms: N1_5  and  C5_6 
REMARK       I    between atoms: N1_5  and  C12_16 
REMARK    5  A    between atoms: C5_6  and  C6_7 
REMARK    6  A    between atoms: C11_14  and  O1_15 
REMARK       I    between atoms: C12_16  and  N2_18 
REMARK    7  A    between atoms: N2_18  and  C13_19 
ROOT
HETATM    1  N1  UNL     1      23.971   1.592  51.925  1.00  0.00    -0.330 N 
HETATM    2  C12 UNL     1      24.551   2.586  51.088  1.00  0.00     0.323 C 
HETATM    3  O2  UNL     1      23.739   2.700  50.103  1.00  0.00    -0.247 OA
HETATM    4  N2  UNL     1      25.701   3.377  51.121  1.00  0.00    -0.309 N 
HETATM    5  H15 UNL     1      26.244   3.172  51.987  1.00  0.00     0.170 HD
ENDROOT
BRANCH   1   6
HETATM    6  C4  UNL     1      22.701   1.160  51.333  1.00  0.00     0.128 C 
BRANCH   6   7
HETATM    7  C3  UNL     1      22.029   0.068  52.118  1.00  0.00     0.020 C 
BRANCH   7   8
HETATM    8  C2  UNL     1      20.794   0.674  52.781  1.00  0.00    -0.003 C 
HETATM    9  C1  UNL     1      20.735   0.353  54.244  1.00  0.00     0.005 C 
ENDBRANCH   7   8
ENDBRANCH   6   7
ENDBRANCH   1   6
BRANCH   1  10
HETATM   10  C5  UNL     1      24.354   0.960  53.165  1.00  0.00     0.169 C 
BRANCH  10  11
HETATM   11  C6  UNL     1      25.784   0.638  53.305  1.00  0.00    -0.004 A 
HETATM   12  C7  UNL     1      26.164  -0.674  52.986  1.00  0.00     0.035 A 
HETATM   13  C8  UNL     1      27.442  -1.170  53.061  1.00  0.00     0.036 A 
HETATM   14 CL1  UNL     1      27.826  -2.815  52.645  1.00  0.00    -0.084 Cl
HETATM   15  C9  UNL     1      28.444  -0.312  53.485  1.00  0.00     0.050 A 
HETATM   16  C10 UNL     1      28.127   0.983  53.810  1.00  0.00     0.069 A 
HETATM   17 CL2  UNL     1      29.359   2.115  54.353  1.00  0.00    -0.081 Cl
HETATM   18  C11 UNL     1      26.829   1.424  53.715  1.00  0.00     0.095 A 
BRANCH  18  19
HETATM   19  O1  UNL     1      26.530   2.715  54.043  1.00  0.00    -0.358 OA
HETATM   20  H14 UNL     1      27.288   3.288  54.436  1.00  0.00     0.217 HD
ENDBRANCH  18  19
ENDBRANCH  10  11
ENDBRANCH   1  10
BRANCH   4  21
HETATM   21  C13 UNL     1      26.075   4.310  50.154  1.00  0.00     0.037 A 
HETATM   22  C14 UNL     1      26.972   4.233  49.217  1.00  0.00     0.030 A 
HETATM   23  C15 UNL     1      26.986   5.485  48.453  1.00  0.00     0.014 A 
HETATM   24  C16 UNL     1      26.082   6.248  49.047  1.00  0.00    -0.024 A 
HETATM   25  C17 UNL     1      25.462   5.626  50.037  1.00  0.00     0.042 A 
ENDBRANCH   4  21
TORSDOF 7
ENDMDL
MODEL 2
REMARK VINA RESULT:      -7.6      2.936      5.436
REMARK  7 active torsions:
REMARK  status: ('A' for Active; 'I' for Inactive)
REMARK    1  A    between atoms: C2_2  and  C3_3 
REMARK    2  A    between atoms: C3_3  and  C4_4 
REMARK    3  A    between atoms: C4_4  and  N1_5 
REMARK    4  A    between atoms: N1_5  and  C5_6 
REMARK       I    between atoms: N1_5  and  C12_16 
REMARK    5  A    between atoms: C5_6  and  C6_7 
REMARK    6  A    between atoms: C11_14  and  O1_15 
REMARK       I    between atoms: C12_16  and  N2_18 
REMARK    7  A    between atoms: N2_18  and  C13_19 
ROOT
HETATM    1  N1  UNL     1      24.030   0.310  53.443  1.00  0.00    -0.330 N 
HETATM    2  C12 UNL     1      25.409  -0.039  53.472  1.00  0.00     0.323 C 
HETATM    3  O2  UNL     1      25.431  -1.258  53.866  1.00  0.00    -0.247 OA
HETATM    4  N2  UNL     1      26.613   0.610  53.188  1.00  0.00    -0.309 N 
HETATM    5  H15 UNL     1      26.421   1.584  52.872  1.00  0.00     0.170 HD
ENDROOT
BRANCH   1   6
HETATM    6  C4  UNL     1      23.239  -0.863  53.831  1.00  0.00     0.128 C 
BRANCH   6   7
HETATM    7  C3  UNL     1      22.061  -0.514  54.697  1.00  0.00     0.020 C 
BRANCH   7   8
HETATM    8  C2  UNL     1      20.847  -1.251  54.135  1.00  0.00    -0.003 C 
HETATM    9  C1  UNL     1      20.018  -0.364  53.254  1.00  0.00     0.005 C 
ENDBRANCH   7   8
ENDBRANCH   6   7
ENDBRANCH   1   6
BRANCH   1  10
HETATM   10  C5  UNL     1      23.293   1.510  53.126  1.00  0.00     0.169 C 
BRANCH  10  11
HETATM   11  C6  UNL     1      23.458   2.020  51.754  1.00  0.00    -0.004 A 
HETATM   12  C7  UNL     1      22.489   1.623  50.819  1.00  0.00     0.035 A 
HETATM   13  C8  UNL     1      22.473   1.984  49.495  1.00  0.00     0.036 A 
HETATM   14 CL1  UNL     1      21.230   1.445  48.402  1.00  0.00    -0.084 Cl
HETATM   15  C9  UNL     1      23.490   2.804  49.035  1.00  0.00     0.050 A 
HETATM   16  C10 UNL     1      24.463   3.221  49.908  1.00  0.00     0.069 A 
HETATM   17 CL2  UNL     1      25.777   4.263  49.379  1.00  0.00    -0.081 Cl
HETATM   18  C11 UNL     1      24.429   2.829  51.224  1.00  0.00     0.095 A 
BRANCH  18  19
HETATM   19  O1  UNL     1      25.405   3.252  52.079  1.00  0.00    -0.358 OA
HETATM   20  H14 UNL     1      25.672   2.615  52.841  1.00  0.00     0.217 HD
ENDBRANCH  18  19
ENDBRANCH  10  11
ENDBRANCH   1  10
BRANCH   4  21
HETATM   21  C13 UNL     1      27.885   0.049  53.298  1.00  0.00     0.037 A 
HETATM   22  C14 UNL     1      28.277  -1.180  53.135  1.00  0.00     0.030 A 
HETATM   23  C15 UNL     1      29.724  -1.263  53.363  1.00  0.00     0.014 A 
HETATM   24  C16 UNL     1      30.081  -0.031  53.689  1.00  0.00    -0.024 A 
HETATM   25  C17 UNL     1      29.071   0.823  53.639  1.00  0.00     0.042 A 
ENDBRANCH   4  21
TORSDOF 7
ENDMDL
MODEL 3
REMARK VINA RESULT:      -7.2      2.636      5.547
REMARK  7 active torsions:
REMARK  status: ('A' for Active; 'I' for Inactive)
REMARK    1  A    between atoms: C2_2  and  C3_3 
REMARK    2  A    between atoms: C3_3  and  C4_4 
REMARK    3  A    between atoms: C4_4  and  N1_5 
REMARK    4  A    between atoms: N1_5  and  C5_6 
REMARK       I    between atoms: N1_5  and  C12_16 
REMARK    5  A    between atoms: C5_6  and  C6_7 
REMARK    6  A    between atoms: C11_14  and  O1_15 
REMARK       I    between atoms: C12_16  and  N2_18 
REMARK    7  A    between atoms: N2_18  and  C13_19 
ROOT
HETATM    1  N1  UNL     1      24.004   1.584  51.923  1.00  0.00    -0.330 N 
HETATM    2  C12 UNL     1      25.219   1.068  52.456  1.00  0.00     0.323 C 
HETATM    3  O2  UNL     1      24.917   0.670  53.636  1.00  0.00    -0.247 OA
HETATM    4  N2  UNL     1      26.531   0.923  52.000  1.00  0.00    -0.309 N 
HETATM    5  H15 UNL     1      26.606   1.282  51.025  1.00  0.00     0.170 HD
ENDROOT
BRANCH   1   6
HETATM    6  C4  UNL     1      22.942   1.409  52.918  1.00  0.00     0.128 C 
BRANCH   6   7
HETATM    7  C3  UNL     1      21.780   0.608  52.399  1.00  0.00     0.020 C 
BRANCH   7   8
HETATM    8  C2  UNL     1      21.696  -0.669  53.232  1.00  0.00    -0.003 C 
HETATM    9  C1  UNL     1      21.570  -0.370  54.696  1.00  0.00     0.005 C 
ENDBRANCH   7   8
ENDBRANCH   6   7
ENDBRANCH   1   6
BRANCH   1  10
HETATM   10  C5  UNL     1      23.627   2.207  50.677  1.00  0.00     0.169 C 
BRANCH  10  11
HETATM   11  C6  UNL     1      24.197   3.541  50.428  1.00  0.00    -0.004 A 
HETATM   12  C7  UNL     1      25.430   3.580  49.759  1.00  0.00     0.035 A 
HETATM   13  C8  UNL     1      26.126   4.721  49.445  1.00  0.00     0.036 A 
HETATM   14 CL1  UNL     1      27.652   4.677  48.611  1.00  0.00    -0.084 Cl
HETATM   15  C9  UNL     1      25.574   5.937  49.813  1.00  0.00     0.050 A 
HETATM   16  C10 UNL     1      24.368   5.957  50.469  1.00  0.00     0.069 A 
HETATM   17 CL2  UNL     1      23.622   7.471  50.960  1.00  0.00    -0.081 Cl
HETATM   18  C11 UNL     1      23.717   4.782  50.759  1.00  0.00     0.095 A 
BRANCH  18  19
HETATM   19  O1  UNL     1      22.519   4.819  51.413  1.00  0.00    -0.358 OA
HETATM   20  H14 UNL     1      22.009   5.711  51.408  1.00  0.00     0.217 HD
ENDBRANCH  18  19
ENDBRANCH  10  11
ENDBRANCH   1  10
BRANCH   4  21
HETATM   21  C13 UNL     1      27.588   0.374  52.725  1.00  0.00     0.037 A 
HETATM   22  C14 UNL     1      27.895  -0.869  52.950  1.00  0.00     0.030 A 
HETATM   23  C15 UNL     1      29.107  -0.930  53.774  1.00  0.00     0.014 A 
HETATM   24  C16 UNL     1      29.413   0.336  54.010  1.00  0.00    -0.024 A 
HETATM   25  C17 UNL     1      28.597   1.181  53.399  1.00  0.00     0.042 A 
ENDBRANCH   4  21
TORSDOF 7
ENDMDL
MODEL 4
REMARK VINA RESULT:      -7.2      2.781      6.306
REMARK  7 active torsions:
REMARK  status: ('A' for Active; 'I' for Inactive)
REMARK    1  A    between atoms: C2_2  and  C3_3 
REMARK    2  A    between atoms: C3_3  and  C4_4 
REMARK    3  A    between atoms: C4_4  and  N1_5 
REMARK    4  A    between atoms: N1_5  and  C5_6 
REMARK       I    between atoms: N1_5  and  C12_16 
REMARK    5  A    between atoms: C5_6  and  C6_7 
REMARK    6  A    between atoms: C11_14  and  O1_15 
REMARK       I    between atoms: C12_16  and  N2_18 
REMARK    7  A    between atoms: N2_18  and  C13_19 
ROOT
HETATM    1  N1  UNL     1      25.267   2.568  51.776  1.00  0.00    -0.330 N 
HETATM    2  C12 UNL     1      26.320   1.672  52.115  1.00  0.00     0.323 C 
HETATM    3  O2  UNL     1      27.138   1.739  51.131  1.00  0.00    -0.247 OA
HETATM    4  N2  UNL     1      26.610   0.828  53.189  1.00  0.00    -0.309 N 
HETATM    5  H15 UNL     1      25.856   0.898  53.905  1.00  0.00     0.170 HD
ENDROOT
BRANCH   1   6
HETATM    6  C4  UNL     1      25.581   3.199  50.490  1.00  0.00     0.128 C 
BRANCH   6   7
HETATM    7  C3  UNL     1      25.043   4.598  50.377  1.00  0.00     0.020 C 
BRANCH   7   8
HETATM    8  C2  UNL     1      25.698   5.242  49.157  1.00  0.00    -0.003 C 
HETATM    9  C1  UNL     1      27.070   4.692  48.907  1.00  0.00     0.005 C 
ENDBRANCH   7   8
ENDBRANCH   6   7
ENDBRANCH   1   6
BRANCH   1  10
HETATM   10  C5  UNL     1      24.027   2.960  52.402  1.00  0.00     0.169 C 
BRANCH  10  11
HETATM   11  C6  UNL     1      22.909   2.013  52.258  1.00  0.00    -0.004 A 
HETATM   12  C7  UNL     1      22.822   0.995  53.221  1.00  0.00     0.035 A 
HETATM   13  C8  UNL     1      21.862   0.015  53.254  1.00  0.00     0.036 A 
HETATM   14 CL1  UNL     1      21.830  -1.211  54.488  1.00  0.00    -0.084 Cl
HETATM   15  C9  UNL     1      20.896   0.022  52.261  1.00  0.00     0.050 A 
HETATM   16  C10 UNL     1      20.933   0.996  51.294  1.00  0.00     0.069 A 
HETATM   17 CL2  UNL     1      19.733   1.053  50.011  1.00  0.00    -0.081 Cl
HETATM   18  C11 UNL     1      21.920   1.953  51.312  1.00  0.00     0.095 A 
BRANCH  18  19
HETATM   19  O1  UNL     1      21.943   2.914  50.342  1.00  0.00    -0.358 OA
HETATM   20  H14 UNL     1      22.245   2.627  49.403  1.00  0.00     0.217 HD
ENDBRANCH  18  19
ENDBRANCH  10  11
ENDBRANCH   1  10
BRANCH   4  21
HETATM   21  C13 UNL     1      27.737   0.016  53.303  1.00  0.00     0.037 A 
HETATM   22  C14 UNL     1      27.886  -1.252  53.060  1.00  0.00     0.030 A 
HETATM   23  C15 UNL     1      29.273  -1.642  53.336  1.00  0.00     0.014 A 
HETATM   24  C16 UNL     1      29.849  -0.534  53.772  1.00  0.00    -0.024 A 
HETATM   25  C17 UNL     1      29.033   0.509  53.751  1.00  0.00     0.042 A 
ENDBRANCH   4  21
TORSDOF 7
ENDMDL
MODEL 5
REMARK VINA RESULT:      -7.1      2.947      6.309
REMARK  7 active torsions:
REMARK  status: ('A' for Active; 'I' for Inactive)
REMARK    1  A    between atoms: C2_2  and  C3_3 
REMARK    2  A    between atoms: C3_3  and  C4_4 
REMARK    3  A    between atoms: C4_4  and  N1_5 
REMARK    4  A    between atoms: N1_5  and  C5_6 
REMARK       I    between atoms: N1_5  and  C12_16 
REMARK    5  A    between atoms: C5_6  and  C6_7 
REMARK    6  A    between atoms: C11_14  and  O1_15 
REMARK       I    between atoms: C12_16  and  N2_18 
REMARK    7  A    between atoms: N2_18  and  C13_19 
ROOT
HETATM    1  N1  UNL     1      25.185   2.445  51.782  1.00  0.00    -0.330 N 
HETATM    2  C12 UNL     1      26.281   1.593  52.097  1.00  0.00     0.323 C 
HETATM    3  O2  UNL     1      27.042   1.643  51.068  1.00  0.00    -0.247 OA
HETATM    4  N2  UNL     1      26.654   0.802  53.185  1.00  0.00    -0.309 N 
HETATM    5  H15 UNL     1      25.938   0.880  53.938  1.00  0.00     0.170 HD
ENDROOT
BRANCH   1   6
HETATM    6  C4  UNL     1      25.411   3.031  50.457  1.00  0.00     0.128 C 
BRANCH   6   7
HETATM    7  C3  UNL     1      24.955   4.462  50.365  1.00  0.00     0.020 C 
BRANCH   7   8
HETATM    8  C2  UNL     1      25.681   5.097  49.181  1.00  0.00    -0.003 C 
HETATM    9  C1  UNL     1      27.059   4.531  49.006  1.00  0.00     0.005 C 
ENDBRANCH   7   8
ENDBRANCH   6   7
ENDBRANCH   1   6
BRANCH   1  10
HETATM   10  C5  UNL     1      23.970   2.827  52.460  1.00  0.00     0.169 C 
BRANCH  10  11
HETATM   11  C6  UNL     1      22.875   1.843  52.417  1.00  0.00    -0.004 A 
HETATM   12  C7  UNL     1      21.792   2.149  51.578  1.00  0.00     0.035 A 
HETATM   13  C8  UNL     1      20.676   1.367  51.409  1.00  0.00     0.036 A 
HETATM   14 CL1  UNL     1      19.377   1.824  50.346  1.00  0.00    -0.084 Cl
HETATM   15  C9  UNL     1      20.604   0.180  52.119  1.00  0.00     0.050 A 
HETATM   16  C10 UNL     1      21.636  -0.168  52.954  1.00  0.00     0.069 A 
HETATM   17 CL2  UNL     1      21.598  -1.663  53.878  1.00  0.00    -0.081 Cl
HETATM   18  C11 UNL     1      22.730   0.655  53.084  1.00  0.00     0.095 A 
BRANCH  18  19
HETATM   19  O1  UNL     1      23.748   0.294  53.919  1.00  0.00    -0.358 OA
HETATM   20  H14 UNL     1      24.622  -0.027  53.483  1.00  0.00     0.217 HD
ENDBRANCH  18  19
ENDBRANCH  10  11
ENDBRANCH   1  10
BRANCH   4  21
HETATM   21  C13 UNL     1      27.810   0.026  53.269  1.00  0.00     0.037 A 
HETATM   22  C14 UNL     1      27.978  -1.251  53.093  1.00  0.00     0.030 A 
HETATM   23  C15 UNL     1      29.392  -1.587  53.294  1.00  0.00     0.014 A 
HETATM   24  C16 UNL     1      29.965  -0.440  53.619  1.00  0.00    -0.024 A 
HETATM   25  C17 UNL     1      29.119   0.579  53.592  1.00  0.00     0.042 A 
ENDBRANCH   4  21
TORSDOF 7
ENDMDL
MODEL 6
REMARK VINA RESULT:      -7.1      2.679      5.809
REMARK  7 active torsions:
REMARK  status: ('A' for Active; 'I' for Inactive)
REMARK    1  A    between atoms: C2_2  and  C3_3 
REMARK    2  A    between atoms: C3_3  and  C4_4 
REMARK    3  A    between atoms: C4_4  and  N1_5 
REMARK    4  A    between atoms: N1_5  and  C5_6 
REMARK       I    between atoms: N1_5  and  C12_16 
REMARK    5  A    between atoms: C5_6  and  C6_7 
REMARK    6  A    between atoms: C11_14  and  O1_15 
REMARK       I    between atoms: C12_16  and  N2_18 
REMARK    7  A    between atoms: N2_18  and  C13_19 
ROOT
HETATM    1  N1  UNL     1      24.313   1.869  51.979  1.00  0.00    -0.330 N 
HETATM    2  C12 UNL     1      25.492   1.252  52.484  1.00  0.00     0.323 C 
HETATM    3  O2  UNL     1      25.221   0.978  53.706  1.00  0.00    -0.247 OA
HETATM    4  N2  UNL     1      26.748   0.922  51.971  1.00  0.00    -0.309 N 
HETATM    5  H15 UNL     1      26.803   1.199  50.969  1.00  0.00     0.170 HD
ENDROOT
BRANCH   1   6
HETATM    6  C4  UNL     1      23.301   1.890  53.040  1.00  0.00     0.128 C 
BRANCH   6   7
HETATM    7  C3  UNL     1      21.984   1.309  52.606  1.00  0.00     0.020 C 
BRANCH   7   8
HETATM    8  C2  UNL     1      21.561   0.295  53.666  1.00  0.00    -0.003 C 
HETATM    9  C1  UNL     1      22.250  -1.024  53.479  1.00  0.00     0.005 C 
ENDBRANCH   7   8
ENDBRANCH   6   7
ENDBRANCH   1   6
BRANCH   1  10
HETATM   10  C5  UNL     1      23.931   2.441  50.710  1.00  0.00     0.169 C 
BRANCH  10  11
HETATM   11  C6  UNL     1      24.637   3.675  50.325  1.00  0.00    -0.004 A 
HETATM   12  C7  UNL     1      23.993   4.884  50.631  1.00  0.00     0.035 A 
HETATM   13  C8  UNL     1      24.481   6.135  50.346  1.00  0.00     0.036 A 
HETATM   14 CL1  UNL     1      23.615   7.586  50.761  1.00  0.00    -0.084 Cl
HETATM   15  C9  UNL     1      25.706   6.221  49.706  1.00  0.00     0.050 A 
HETATM   16  C10 UNL     1      26.379   5.069  49.385  1.00  0.00     0.069 A 
HETATM   17 CL2  UNL     1      27.938   5.119  48.573  1.00  0.00    -0.081 Cl
HETATM   18  C11 UNL     1      25.841   3.842  49.694  1.00  0.00     0.095 A 
BRANCH  18  19
HETATM   19  O1  UNL     1      26.523   2.706  49.367  1.00  0.00    -0.358 OA
HETATM   20  H14 UNL     1      25.967   1.861  49.184  1.00  0.00     0.217 HD
ENDBRANCH  18  19
ENDBRANCH  10  11
ENDBRANCH   1  10
BRANCH   4  21
HETATM   21  C13 UNL     1      27.779   0.305  52.680  1.00  0.00     0.037 A 
HETATM   22  C14 UNL     1      28.794   0.823  53.305  1.00  0.00     0.030 A 
HETATM   23  C15 UNL     1      29.600  -0.250  53.897  1.00  0.00     0.014 A 
HETATM   24  C16 UNL     1      28.991  -1.366  53.529  1.00  0.00    -0.024 A 
HETATM   25  C17 UNL     1      27.883  -1.139  52.841  1.00  0.00     0.042 A 
ENDBRANCH   4  21
TORSDOF 7
ENDMDL
MODEL 7
REMARK VINA RESULT:      -6.9      2.214      2.959
REMARK  7 active torsions:
REMARK  status: ('A' for Active; 'I' for Inactive)
REMARK    1  A    between atoms: C2_2  and  C3_3 
REMARK    2  A    between atoms: C3_3  and  C4_4 
REMARK    3  A    between atoms: C4_4  and  N1_5 
REMARK    4  A    between atoms: N1_5  and  C5_6 
REMARK       I    between atoms: N1_5  and  C12_16 
REMARK    5  A    between atoms: C5_6  and  C6_7 
REMARK    6  A    between atoms: C11_14  and  O1_15 
REMARK       I    between atoms: C12_16  and  N2_18 
REMARK    7  A    between atoms: N2_18  and  C13_19 
ROOT
HETATM    1  N1  UNL     1      22.906   3.510  50.765  1.00  0.00    -0.330 N 
HETATM    2  C12 UNL     1      24.032   4.060  50.090  1.00  0.00     0.323 C 
HETATM    3  O2  UNL     1      23.709   4.048  48.850  1.00  0.00    -0.247 OA
HETATM    4  N2  UNL     1      25.281   4.557  50.466  1.00  0.00    -0.309 N 
HETATM    5  H15 UNL     1      25.382   4.507  51.502  1.00  0.00     0.170 HD
ENDROOT
BRANCH   1   6
HETATM    6  C4  UNL     1      21.866   3.208  49.777  1.00  0.00     0.128 C 
BRANCH   6   7
HETATM    7  C3  UNL     1      20.585   2.728  50.403  1.00  0.00     0.020 C 
BRANCH   7   8
HETATM    8  C2  UNL     1      20.334   1.309  49.899  1.00  0.00    -0.003 C 
HETATM    9  C1  UNL     1      19.151   0.680  50.574  1.00  0.00     0.005 C 
ENDBRANCH   7   8
ENDBRANCH   6   7
ENDBRANCH   1   6
BRANCH   1  10
HETATM   10  C5  UNL     1      22.596   3.210  52.142  1.00  0.00     0.169 C 
BRANCH  10  11
HETATM   11  C6  UNL     1      23.283   2.039  52.713  1.00  0.00    -0.004 A 
HETATM   12  C7  UNL     1      22.501   0.890  52.910  1.00  0.00     0.035 A 
HETATM   13  C8  UNL     1      22.953  -0.294  53.437  1.00  0.00     0.036 A 
HETATM   14 CL1  UNL     1      21.912  -1.673  53.648  1.00  0.00    -0.084 Cl
HETATM   15  C9  UNL     1      24.285  -0.372  53.806  1.00  0.00     0.050 A 
HETATM   16  C10 UNL     1      25.095   0.723  53.635  1.00  0.00     0.069 A 
HETATM   17 CL2  UNL     1      26.794   0.681  54.085  1.00  0.00    -0.081 Cl
HETATM   18  C11 UNL     1      24.588   1.884  53.102  1.00  0.00     0.095 A 
BRANCH  18  19
HETATM   19  O1  UNL     1      25.407   2.964  52.938  1.00  0.00    -0.358 OA
HETATM   20  H14 UNL     1      26.419   2.801  53.002  1.00  0.00     0.217 HD
ENDBRANCH  18  19
ENDBRANCH  10  11
ENDBRANCH   1  10
BRANCH   4  21
HETATM   21  C13 UNL     1      26.253   5.055  49.599  1.00  0.00     0.037 A 
HETATM   22  C14 UNL     1      27.294   4.474  49.082  1.00  0.00     0.030 A 
HETATM   23  C15 UNL     1      28.010   5.427  48.227  1.00  0.00     0.014 A 
HETATM   24  C16 UNL     1      27.325   6.554  48.339  1.00  0.00    -0.024 A 
HETATM   25  C17 UNL     1      26.247   6.423  49.097  1.00  0.00     0.042 A 
ENDBRANCH   4  21
TORSDOF 7
ENDMDL
MODEL 8
REMARK VINA RESULT:      -6.8      2.482      3.792
REMARK  7 active torsions:
REMARK  status: ('A' for Active; 'I' for Inactive)
REMARK    1  A    between atoms: C2_2  and  C3_3 
REMARK    2  A    between atoms: C3_3  and  C4_4 
REMARK    3  A    between atoms: C4_4  and  N1_5 
REMARK    4  A    between atoms: N1_5  and  C5_6 
REMARK       I    between atoms: N1_5  and  C12_16 
REMARK    5  A    between atoms: C5_6  and  C6_7 
REMARK    6  A    between atoms: C11_14  and  O1_15 
REMARK       I    between atoms: C12_16  and  N2_18 
REMARK    7  A    between atoms: N2_18  and  C13_19 
ROOT
HETATM    1  N1  UNL     1      22.527   3.531  50.938  1.00  0.00    -0.330 N 
HETATM    2  C12 UNL     1      23.670   4.072  50.283  1.00  0.00     0.323 C 
HETATM    3  O2  UNL     1      23.326   4.172  49.053  1.00  0.00    -0.247 OA
HETATM    4  N2  UNL     1      24.950   4.472  50.670  1.00  0.00    -0.309 N 
HETATM    5  H15 UNL     1      25.065   4.338  51.697  1.00  0.00     0.170 HD
ENDROOT
BRANCH   1   6
HETATM    6  C4  UNL     1      21.457   3.359  49.951  1.00  0.00     0.128 C 
BRANCH   6   7
HETATM    7  C3  UNL     1      20.584   2.168  50.235  1.00  0.00     0.020 C 
BRANCH   7   8
HETATM    8  C2  UNL     1      21.215   0.963  49.542  1.00  0.00    -0.003 C 
HETATM    9  C1  UNL     1      21.784   1.327  48.202  1.00  0.00     0.005 C 
ENDBRANCH   7   8
ENDBRANCH   6   7
ENDBRANCH   1   6
BRANCH   1  10
HETATM   10  C5  UNL     1      22.225   3.142  52.294  1.00  0.00     0.169 C 
BRANCH  10  11
HETATM   11  C6  UNL     1      22.757   1.836  52.721  1.00  0.00    -0.004 A 
HETATM   12  C7  UNL     1      24.118   1.603  52.469  1.00  0.00     0.035 A 
HETATM   13  C8  UNL     1      24.794   0.450  52.781  1.00  0.00     0.036 A 
HETATM   14 CL1  UNL     1      26.486   0.244  52.432  1.00  0.00    -0.084 Cl
HETATM   15  C9  UNL     1      24.086  -0.570  53.393  1.00  0.00     0.050 A 
HETATM   16  C10 UNL     1      22.751  -0.395  53.663  1.00  0.00     0.069 A 
HETATM   17 CL2  UNL     1      21.804  -1.656  54.439  1.00  0.00    -0.081 Cl
HETATM   18  C11 UNL     1      22.126   0.782  53.328  1.00  0.00     0.095 A 
BRANCH  18  19
HETATM   19  O1  UNL     1      20.798   0.941  53.602  1.00  0.00    -0.358 OA
HETATM   20  H14 UNL     1      20.312   0.153  54.048  1.00  0.00     0.217 HD
ENDBRANCH  18  19
ENDBRANCH  10  11
ENDBRANCH   1  10
BRANCH   4  21
HETATM   21  C13 UNL     1      25.932   4.985  49.824  1.00  0.00     0.037 A 
HETATM   22  C14 UNL     1      26.100   6.189  49.366  1.00  0.00     0.030 A 
HETATM   23  C15 UNL     1      27.289   6.222  48.506  1.00  0.00     0.014 A 
HETATM   24  C16 UNL     1      27.728   4.974  48.497  1.00  0.00    -0.024 A 
HETATM   25  C17 UNL     1      27.016   4.177  49.278  1.00  0.00     0.042 A 
ENDBRANCH   4  21
TORSDOF 7
ENDMDL
MODEL 9
REMARK VINA RESULT:      -6.8      3.414      5.961
REMARK  7 active torsions:
REMARK  status: ('A' for Active; 'I' for Inactive)
REMARK    1  A    between atoms: C2_2  and  C3_3 
REMARK    2  A    between atoms: C3_3  and  C4_4 
REMARK    3  A    between atoms: C4_4  and  N1_5 
REMARK    4  A    between atoms: N1_5  and  C5_6 
REMARK       I    between atoms: N1_5  and  C12_16 
REMARK    5  A    between atoms: C5_6  and  C6_7 
REMARK    6  A    between atoms: C11_14  and  O1_15 
REMARK       I    between atoms: C12_16  and  N2_18 
REMARK    7  A    between atoms: N2_18  and  C13_19 
ROOT
HETATM    1  N1  UNL     1      23.910   1.016  52.271  1.00  0.00    -0.330 N 
HETATM    2  C12 UNL     1      25.203   0.609  52.706  1.00  0.00     0.323 C 
HETATM    3  O2  UNL     1      25.041   0.252  53.926  1.00  0.00    -0.247 OA
HETATM    4  N2  UNL     1      26.473   0.527  52.133  1.00  0.00    -0.309 N 
HETATM    5  H15 UNL     1      26.432   0.841  51.140  1.00  0.00     0.170 HD
ENDROOT
BRANCH   1   6
HETATM    6  C4  UNL     1      22.960   0.822  53.370  1.00  0.00     0.128 C 
BRANCH   6   7
HETATM    7  C3  UNL     1      21.766  -0.002  52.974  1.00  0.00     0.020 C 
BRANCH   7   8
HETATM    8  C2  UNL     1      21.169  -0.586  54.253  1.00  0.00    -0.003 C 
HETATM    9  C1  UNL     1      22.141  -1.481  54.961  1.00  0.00     0.005 C 
ENDBRANCH   7   8
ENDBRANCH   6   7
ENDBRANCH   1   6
BRANCH   1  10
HETATM   10  C5  UNL     1      23.376   1.549  51.041  1.00  0.00     0.169 C 
BRANCH  10  11
HETATM   11  C6  UNL     1      22.922   2.949  51.092  1.00  0.00    -0.004 A 
HETATM   12  C7  UNL     1      21.545   3.166  50.932  1.00  0.00     0.035 A 
HETATM   13  C8  UNL     1      20.930   4.394  50.939  1.00  0.00     0.036 A 
HETATM   14 CL1  UNL     1      19.212   4.572  50.732  1.00  0.00    -0.084 Cl
HETATM   15  C9  UNL     1      21.725   5.514  51.119  1.00  0.00     0.050 A 
HETATM   16  C10 UNL     1      23.079   5.358  51.282  1.00  0.00     0.069 A 
HETATM   17 CL2  UNL     1      24.135   6.744  51.514  1.00  0.00    -0.081 Cl
HETATM   18  C11 UNL     1      23.640   4.103  51.265  1.00  0.00     0.095 A 
BRANCH  18  19
HETATM   19  O1  UNL     1      24.988   3.966  51.428  1.00  0.00    -0.358 OA
HETATM   20  H14 UNL     1      25.588   4.250  50.643  1.00  0.00     0.217 HD
ENDBRANCH  18  19
ENDBRANCH  10  11
ENDBRANCH   1  10
BRANCH   4  21
HETATM   21  C13 UNL     1      27.629   0.086  52.776  1.00  0.00     0.037 A 
HETATM   22  C14 UNL     1      28.061  -1.120  52.993  1.00  0.00     0.030 A 
HETATM   23  C15 UNL     1      29.336  -1.060  53.715  1.00  0.00     0.014 A 
HETATM   24  C16 UNL     1      29.549   0.232  53.906  1.00  0.00    -0.024 A 
HETATM   25  C17 UNL     1      28.616   0.991  53.353  1.00  0.00     0.042 A 
ENDBRANCH   4  21
TORSDOF 7
ENDMDL
