MODEL 1
REMARK VINA RESULT:      -9.4      0.000      0.000
REMARK  2 active torsions:
REMARK  status: ('A' for Active; 'I' for Inactive)
REMARK    1  A    between atoms: C2_2  and  C3_3 
REMARK    2  A    between atoms: C25_30  and  O3_31 
ROOT
HETATM    1  C3  UNL     1      24.006   2.369  52.552  1.00  0.00     0.023 C 
HETATM    2  C4  UNL     1      23.759   3.738  53.133  1.00  0.00     0.061 C 
HETATM    3  C5  UNL     1      23.608   4.611  51.929  1.00  0.00     0.224 C 
HETATM    4  N1  UNL     1      22.859   5.818  52.138  1.00  0.00    -0.367 N 
HETATM    5  C6  UNL     1      22.606   6.753  51.062  1.00  0.00     0.007 C 
HETATM    6  C7  UNL     1      23.732   7.657  51.051  1.00  0.00     0.023 C 
HETATM    7  C8  UNL     1      24.232   8.453  49.732  1.00  0.00     0.012 C 
HETATM    8  C9  UNL     1      23.138   8.523  48.779  1.00  0.00     0.097 A 
HETATM    9  N2  UNL     1      22.458   9.723  48.820  1.00  0.00    -0.342 N 
HETATM   10  C10 UNL     1      21.194   8.956  48.607  1.00  0.00     0.235 A 
HETATM   11  O1  UNL     1      19.994   9.223  48.499  1.00  0.00    -0.272 OA
HETATM   12  C11 UNL     1      21.895   7.699  48.567  1.00  0.00     0.105 A 
HETATM   13  C12 UNL     1      21.164   6.578  48.967  1.00  0.00     0.022 C 
HETATM   14  C13 UNL     1      21.255   6.278  50.502  1.00  0.00     0.063 C 
HETATM   15  C14 UNL     1      23.204   7.121  48.638  1.00  0.00    -0.016 A 
HETATM   16  C15 UNL     1      23.943   6.170  48.541  1.00  0.00    -0.021 C 
HETATM   17  C16 UNL     1      23.512   4.777  48.411  1.00  0.00     0.166 C 
HETATM   18  N3  UNL     1      24.548   4.164  49.313  1.00  0.00    -0.342 N 
HETATM   19  C17 UNL     1      25.706   4.884  48.937  1.00  0.00     0.043 A 
HETATM   20  C18 UNL     1      27.015   4.514  48.979  1.00  0.00     0.030 A 
HETATM   21  C19 UNL     1      28.030   5.313  48.574  1.00  0.00     0.002 A 
HETATM   22  C20 UNL     1      27.764   6.577  48.086  1.00  0.00     0.001 A 
HETATM   23  C21 UNL     1      26.441   6.970  48.034  1.00  0.00     0.014 A 
HETATM   24  C22 UNL     1      25.401   6.155  48.446  1.00  0.00    -0.001 A 
HETATM   25  C23 UNL     1      24.022   3.163  50.151  1.00  0.00     0.162 C 
HETATM   26  C24 UNL     1      23.223   2.277  49.150  1.00  0.00     0.074 C 
HETATM   27  O2  UNL     1      23.049   3.948  50.873  1.00  0.00    -0.334 OA
HETATM   28  C25 UNL     1      24.681   2.411  51.168  1.00  0.00     0.180 C 
HETATM   29  H10 UNL     1      22.504   5.976  53.127  1.00  0.00     0.162 HD
HETATM   30  H13 UNL     1      22.744  10.678  48.944  1.00  0.00     0.164 HD
ENDROOT
BRANCH   1  31
HETATM   31  C2  UNL     1      22.936   1.374  52.729  1.00  0.00     0.003 C 
HETATM   32  C1  UNL     1      23.257  -0.006  53.124  1.00  0.00     0.005 C 
ENDBRANCH   1  31
BRANCH  28  33
HETATM   33  O3  UNL     1      25.933   2.986  51.495  1.00  0.00    -0.385 OA
HETATM   34  C26 UNL     1      26.774   1.858  51.697  1.00  0.00     0.202 C 
ENDBRANCH  28  33
TORSDOF 2
ENDMDL
MODEL 2
REMARK VINA RESULT:      -9.1      3.169      6.501
REMARK  2 active torsions:
REMARK  status: ('A' for Active; 'I' for Inactive)
REMARK    1  A    between atoms: C2_2  and  C3_3 
REMARK    2  A    between atoms: C25_30  and  O3_31 
ROOT
HETATM    1  C3  UNL     1      24.947   3.503  49.764  1.00  0.00     0.023 C 
HETATM    2  C4  UNL     1      23.956   2.879  48.815  1.00  0.00     0.061 C 
HETATM    3  C5  UNL     1      22.724   2.720  49.646  1.00  0.00     0.224 C 
HETATM    4  N1  UNL     1      21.493   2.656  48.910  1.00  0.00    -0.367 N 
HETATM    5  C6  UNL     1      20.213   2.528  49.576  1.00  0.00     0.007 C 
HETATM    6  C7  UNL     1      19.991   1.111  49.737  1.00  0.00     0.023 C 
HETATM    7  C8  UNL     1      19.072   0.473  50.908  1.00  0.00     0.012 C 
HETATM    8  C9  UNL     1      18.155   1.489  51.395  1.00  0.00     0.097 A 
HETATM    9  N2  UNL     1      16.897   1.398  50.836  1.00  0.00    -0.342 N 
HETATM   10  C10 UNL     1      16.859   2.890  50.799  1.00  0.00     0.235 A 
HETATM   11  O1  UNL     1      16.060   3.755  50.433  1.00  0.00    -0.272 OA
HETATM   12  C11 UNL     1      18.174   2.995  51.378  1.00  0.00     0.105 A 
HETATM   13  C12 UNL     1      18.899   4.142  51.046  1.00  0.00     0.022 C 
HETATM   14  C13 UNL     1      19.769   3.989  49.753  1.00  0.00     0.063 C 
HETATM   15  C14 UNL     1      19.260   2.213  51.890  1.00  0.00    -0.016 A 
HETATM   16  C15 UNL     1      20.322   2.130  52.459  1.00  0.00    -0.021 C 
HETATM   17  C16 UNL     1      21.198   3.259  52.777  1.00  0.00     0.166 C 
HETATM   18  N3  UNL     1      22.507   2.592  52.451  1.00  0.00    -0.342 N 
HETATM   19  C17 UNL     1      22.307   1.304  53.001  1.00  0.00     0.043 A 
HETATM   20  C18 UNL     1      23.214   0.414  53.488  1.00  0.00     0.030 A 
HETATM   21  C19 UNL     1      22.876  -0.794  53.998  1.00  0.00     0.002 A 
HETATM   22  C20 UNL     1      21.551  -1.179  54.042  1.00  0.00     0.001 A 
HETATM   23  C21 UNL     1      20.616  -0.289  53.553  1.00  0.00     0.014 A 
HETATM   24  C22 UNL     1      20.958   0.947  53.033  1.00  0.00    -0.001 A 
HETATM   25  C23 UNL     1      23.395   3.437  51.760  1.00  0.00     0.162 C 
HETATM   26  C24 UNL     1      23.363   4.732  52.623  1.00  0.00     0.074 C 
HETATM   27  O2  UNL     1      22.600   3.705  50.585  1.00  0.00    -0.334 OA
HETATM   28  C25 UNL     1      24.688   3.139  51.238  1.00  0.00     0.180 C 
HETATM   29  H10 UNL     1      21.584   2.710  47.853  1.00  0.00     0.162 HD
HETATM   30  H13 UNL     1      16.304   0.626  50.582  1.00  0.00     0.164 HD
ENDROOT
BRANCH   1  31
HETATM   31  C2  UNL     1      25.331   4.898  49.492  1.00  0.00     0.003 C 
HETATM   32  C1  UNL     1      26.665   5.215  48.960  1.00  0.00     0.005 C 
ENDBRANCH   1  31
BRANCH  28  33
HETATM   33  O3  UNL     1      24.918   1.742  51.214  1.00  0.00    -0.385 OA
HETATM   34  C26 UNL     1      26.277   1.622  51.615  1.00  0.00     0.202 C 
ENDBRANCH  28  33
TORSDOF 2
ENDMDL
MODEL 3
REMARK VINA RESULT:      -8.9      2.140      6.224
REMARK  2 active torsions:
REMARK  status: ('A' for Active; 'I' for Inactive)
REMARK    1  A    between atoms: C2_2  and  C3_3 
REMARK    2  A    between atoms: C25_30  and  O3_31 
ROOT
HETATM    1  C3  UNL     1      24.788   7.771  50.108  1.00  0.00     0.023 C 
HETATM    2  C4  UNL     1      23.792   7.503  51.208  1.00  0.00     0.061 C 
HETATM    3  C5  UNL     1      23.561   6.029  51.123  1.00  0.00     0.224 C 
HETATM    4  N1  UNL     1      23.097   5.413  52.334  1.00  0.00    -0.367 N 
HETATM    5  C6  UNL     1      22.851   3.988  52.417  1.00  0.00     0.007 C 
HETATM    6  C7  UNL     1      21.483   3.797  51.998  1.00  0.00     0.023 C 
HETATM    7  C8  UNL     1      20.928   2.424  51.341  1.00  0.00     0.012 C 
HETATM    8  C9  UNL     1      21.814   1.333  51.708  1.00  0.00     0.097 A 
HETATM    9  N2  UNL     1      21.354   0.598  52.781  1.00  0.00    -0.342 N 
HETATM   10  C10 UNL     1      22.767   0.499  53.255  1.00  0.00     0.235 A 
HETATM   11  O1  UNL     1      23.357  -0.016  54.207  1.00  0.00    -0.272 OA
HETATM   12  C11 UNL     1      23.255   1.270  52.140  1.00  0.00     0.105 A 
HETATM   13  C12 UNL     1      24.432   1.989  52.361  1.00  0.00     0.022 C 
HETATM   14  C13 UNL     1      24.196   3.434  52.917  1.00  0.00     0.063 C 
HETATM   15  C14 UNL     1      22.834   1.939  50.944  1.00  0.00    -0.016 A 
HETATM   16  C15 UNL     1      23.088   2.516  49.915  1.00  0.00    -0.021 C 
HETATM   17  C16 UNL     1      24.413   3.005  49.527  1.00  0.00     0.166 C 
HETATM   18  N3  UNL     1      23.974   4.314  48.929  1.00  0.00    -0.342 N 
HETATM   19  C17 UNL     1      22.814   3.921  48.221  1.00  0.00     0.043 A 
HETATM   20  C18 UNL     1      22.248   4.461  47.107  1.00  0.00     0.030 A 
HETATM   21  C19 UNL     1      21.129   3.970  46.525  1.00  0.00     0.002 A 
HETATM   22  C20 UNL     1      20.499   2.864  47.061  1.00  0.00     0.001 A 
HETATM   23  C21 UNL     1      21.059   2.301  48.191  1.00  0.00     0.014 A 
HETATM   24  C22 UNL     1      22.204   2.800  48.787  1.00  0.00    -0.001 A 
HETATM   25  C23 UNL     1      24.821   5.385  49.271  1.00  0.00     0.162 C 
HETATM   26  C24 UNL     1      26.231   4.807  48.957  1.00  0.00     0.074 C 
HETATM   27  O2  UNL     1      24.672   5.352  50.707  1.00  0.00    -0.334 OA
HETATM   28  C25 UNL     1      24.691   6.767  48.944  1.00  0.00     0.180 C 
HETATM   29  H10 UNL     1      22.949   6.066  53.158  1.00  0.00     0.162 HD
HETATM   30  H13 UNL     1      20.443   0.289  53.071  1.00  0.00     0.164 HD
ENDROOT
BRANCH   1  31
HETATM   31  C2  UNL     1      26.145   8.159  50.527  1.00  0.00     0.003 C 
HETATM   32  C1  UNL     1      27.167   8.502  49.525  1.00  0.00     0.005 C 
ENDBRANCH   1  31
BRANCH  28  33
HETATM   33  O3  UNL     1      23.396   7.053  48.448  1.00  0.00    -0.385 OA
HETATM   34  C26 UNL     1      23.639   7.990  47.407  1.00  0.00     0.202 C 
ENDBRANCH  28  33
TORSDOF 2
ENDMDL
MODEL 4
REMARK VINA RESULT:      -8.8      2.359      3.627
REMARK  2 active torsions:
REMARK  status: ('A' for Active; 'I' for Inactive)
REMARK    1  A    between atoms: C2_2  and  C3_3 
REMARK    2  A    between atoms: C25_30  and  O3_31 
ROOT
HETATM    1  C3  UNL     1      19.730   1.904  52.019  1.00  0.00     0.023 C 
HETATM    2  C4  UNL     1      19.957   3.360  52.334  1.00  0.00     0.061 C 
HETATM    3  C5  UNL     1      21.076   3.748  51.423  1.00  0.00     0.224 C 
HETATM    4  N1  UNL     1      21.155   5.148  51.112  1.00  0.00    -0.367 N 
HETATM    5  C6  UNL     1      22.169   5.674  50.223  1.00  0.00     0.007 C 
HETATM    6  C7  UNL     1      23.311   5.970  51.056  1.00  0.00     0.023 C 
HETATM    7  C8  UNL     1      24.837   5.985  50.515  1.00  0.00     0.012 C 
HETATM    8  C9  UNL     1      24.827   6.170  49.074  1.00  0.00     0.097 A 
HETATM    9  N2  UNL     1      25.046   7.478  48.693  1.00  0.00    -0.342 N 
HETATM   10  C10 UNL     1      24.035   7.279  47.611  1.00  0.00     0.235 A 
HETATM   11  O1  UNL     1      23.548   7.962  46.707  1.00  0.00    -0.272 OA
HETATM   12  C11 UNL     1      23.797   5.914  48.006  1.00  0.00     0.105 A 
HETATM   13  C12 UNL     1      22.529   5.406  47.714  1.00  0.00     0.022 C 
HETATM   14  C13 UNL     1      21.477   5.639  48.851  1.00  0.00     0.063 C 
HETATM   15  C14 UNL     1      24.205   4.910  48.943  1.00  0.00    -0.016 A 
HETATM   16  C15 UNL     1      24.188   3.770  49.340  1.00  0.00    -0.021 C 
HETATM   17  C16 UNL     1      23.276   2.726  48.867  1.00  0.00     0.166 C 
HETATM   18  N3  UNL     1      22.994   2.089  50.201  1.00  0.00    -0.342 N 
HETATM   19  C17 UNL     1      24.282   2.092  50.787  1.00  0.00     0.043 A 
HETATM   20  C18 UNL     1      24.819   1.255  51.715  1.00  0.00     0.030 A 
HETATM   21  C19 UNL     1      26.083   1.372  52.185  1.00  0.00     0.002 A 
HETATM   22  C20 UNL     1      26.902   2.383  51.722  1.00  0.00     0.001 A 
HETATM   23  C21 UNL     1      26.376   3.242  50.778  1.00  0.00     0.014 A 
HETATM   24  C22 UNL     1      25.084   3.124  50.296  1.00  0.00    -0.001 A 
HETATM   25  C23 UNL     1      21.640   1.747  50.370  1.00  0.00     0.162 C 
HETATM   26  C24 UNL     1      21.321   0.987  49.050  1.00  0.00     0.074 C 
HETATM   27  O2  UNL     1      21.049   3.058  50.244  1.00  0.00    -0.334 OA
HETATM   28  C25 UNL     1      20.996   1.188  51.513  1.00  0.00     0.180 C 
HETATM   29  H10 UNL     1      20.424   5.765  51.574  1.00  0.00     0.162 HD
HETATM   30  H13 UNL     1      25.644   8.209  49.035  1.00  0.00     0.164 HD
ENDROOT
BRANCH   1  31
HETATM   31  C2  UNL     1      18.469   1.565  51.338  1.00  0.00     0.003 C 
HETATM   32  C1  UNL     1      18.159   0.169  50.992  1.00  0.00     0.005 C 
ENDBRANCH   1  31
BRANCH  28  33
HETATM   33  O3  UNL     1      21.827   1.269  52.656  1.00  0.00    -0.385 OA
HETATM   34  C26 UNL     1      21.613   0.026  53.311  1.00  0.00     0.202 C 
ENDBRANCH  28  33
TORSDOF 2
ENDMDL
MODEL 5
REMARK VINA RESULT:      -8.6      5.357      9.682
REMARK  2 active torsions:
REMARK  status: ('A' for Active; 'I' for Inactive)
REMARK    1  A    between atoms: C2_2  and  C3_3 
REMARK    2  A    between atoms: C25_30  and  O3_31 
ROOT
HETATM    1  C3  UNL     1      28.980  12.082  47.879  1.00  0.00     0.023 C 
HETATM    2  C4  UNL     1      29.981  11.600  48.898  1.00  0.00     0.061 C 
HETATM    3  C5  UNL     1      30.277  10.200  48.469  1.00  0.00     0.224 C 
HETATM    4  N1  UNL     1      31.544   9.682  48.901  1.00  0.00    -0.367 N 
HETATM    5  C6  UNL     1      31.984   8.350  48.544  1.00  0.00     0.007 C 
HETATM    6  C7  UNL     1      31.470   7.474  49.571  1.00  0.00     0.023 C 
HETATM    7  C8  UNL     1      31.153   5.903  49.336  1.00  0.00     0.012 C 
HETATM    8  C9  UNL     1      31.910   5.435  48.188  1.00  0.00     0.097 A 
HETATM    9  N2  UNL     1      33.079   4.790  48.535  1.00  0.00    -0.342 N 
HETATM   10  C10 UNL     1      33.730   5.446  47.362  1.00  0.00     0.235 A 
HETATM   11  O1  UNL     1      34.853   5.452  46.850  1.00  0.00    -0.272 OA
HETATM   12  C11 UNL     1      32.515   6.126  46.995  1.00  0.00     0.105 A 
HETATM   13  C12 UNL     1      32.672   7.334  46.310  1.00  0.00     0.022 C 
HETATM   14  C13 UNL     1      32.777   8.584  47.248  1.00  0.00     0.063 C 
HETATM   15  C14 UNL     1      31.140   6.284  47.366  1.00  0.00    -0.016 A 
HETATM   16  C15 UNL     1      30.030   6.706  47.143  1.00  0.00    -0.021 C 
HETATM   17  C16 UNL     1      29.688   7.666  46.092  1.00  0.00     0.166 C 
HETATM   18  N3  UNL     1      28.705   8.485  46.883  1.00  0.00    -0.342 N 
HETATM   19  C17 UNL     1      27.995   7.475  47.575  1.00  0.00     0.043 A 
HETATM   20  C18 UNL     1      26.716   7.470  48.039  1.00  0.00     0.030 A 
HETATM   21  C19 UNL     1      26.159   6.418  48.684  1.00  0.00     0.002 A 
HETATM   22  C20 UNL     1      26.897   5.271  48.902  1.00  0.00     0.001 A 
HETATM   23  C21 UNL     1      28.197   5.257  48.437  1.00  0.00     0.014 A 
HETATM   24  C22 UNL     1      28.768   6.330  47.777  1.00  0.00    -0.001 A 
HETATM   25  C23 UNL     1      28.841   9.868  46.663  1.00  0.00     0.162 C 
HETATM   26  C24 UNL     1      28.872   9.957  45.110  1.00  0.00     0.074 C 
HETATM   27  O2  UNL     1      30.201  10.045  47.113  1.00  0.00    -0.334 OA
HETATM   28  C25 UNL     1      28.134  10.944  47.276  1.00  0.00     0.180 C 
HETATM   29  H10 UNL     1      32.133  10.337  49.495  1.00  0.00     0.162 HD
HETATM   30  H13 UNL     1      33.330   4.159  49.275  1.00  0.00     0.164 HD
ENDROOT
BRANCH   1  31
HETATM   31  C2  UNL     1      29.439  13.122  46.944  1.00  0.00     0.003 C 
HETATM   32  C1  UNL     1      29.051  14.528  47.142  1.00  0.00     0.005 C 
ENDBRANCH   1  31
BRANCH  28  33
HETATM   33  O3  UNL     1      27.424  10.502  48.419  1.00  0.00    -0.385 OA
HETATM   34  C26 UNL     1      26.193  11.208  48.339  1.00  0.00     0.202 C 
ENDBRANCH  28  33
TORSDOF 2
ENDMDL
MODEL 6
REMARK VINA RESULT:      -8.6      2.196      6.730
REMARK  2 active torsions:
REMARK  status: ('A' for Active; 'I' for Inactive)
REMARK    1  A    between atoms: C2_2  and  C3_3 
REMARK    2  A    between atoms: C25_30  and  O3_31 
ROOT
HETATM    1  C3  UNL     1      20.644   7.253  49.109  1.00  0.00     0.023 C 
HETATM    2  C4  UNL     1      21.222   7.231  50.501  1.00  0.00     0.061 C 
HETATM    3  C5  UNL     1      21.965   5.935  50.554  1.00  0.00     0.224 C 
HETATM    4  N1  UNL     1      23.026   5.877  51.520  1.00  0.00    -0.367 N 
HETATM    5  C6  UNL     1      23.852   4.698  51.673  1.00  0.00     0.007 C 
HETATM    6  C7  UNL     1      23.169   3.857  52.628  1.00  0.00     0.023 C 
HETATM    7  C8  UNL     1      23.326   2.246  52.679  1.00  0.00     0.012 C 
HETATM    8  C9  UNL     1      24.567   1.870  52.023  1.00  0.00     0.097 A 
HETATM    9  N2  UNL     1      25.603   1.652  52.908  1.00  0.00    -0.342 N 
HETATM   10  C10 UNL     1      26.516   2.306  51.922  1.00  0.00     0.235 A 
HETATM   11  O1  UNL     1      27.718   2.573  51.857  1.00  0.00    -0.272 OA
HETATM   12  C11 UNL     1      25.438   2.542  50.995  1.00  0.00     0.105 A 
HETATM   13  C12 UNL     1      25.593   3.638  50.143  1.00  0.00     0.022 C 
HETATM   14  C13 UNL     1      25.032   4.978  50.728  1.00  0.00     0.063 C 
HETATM   15  C14 UNL     1      24.033   2.336  50.803  1.00  0.00    -0.016 A 
HETATM   16  C15 UNL     1      23.048   2.378  50.107  1.00  0.00    -0.021 C 
HETATM   17  C16 UNL     1      22.963   3.043  48.805  1.00  0.00     0.166 C 
HETATM   18  N3  UNL     1      21.590   3.635  48.974  1.00  0.00    -0.342 N 
HETATM   19  C17 UNL     1      20.899   2.564  49.589  1.00  0.00     0.043 A 
HETATM   20  C18 UNL     1      19.577   2.245  49.554  1.00  0.00     0.030 A 
HETATM   21  C19 UNL     1      19.050   1.173  50.192  1.00  0.00     0.002 A 
HETATM   22  C20 UNL     1      19.866   0.335  50.926  1.00  0.00     0.001 A 
HETATM   23  C21 UNL     1      21.211   0.641  50.972  1.00  0.00     0.014 A 
HETATM   24  C22 UNL     1      21.753   1.736  50.321  1.00  0.00    -0.001 A 
HETATM   25  C23 UNL     1      21.498   4.954  48.492  1.00  0.00     0.162 C 
HETATM   26  C24 UNL     1      22.139   4.837  47.079  1.00  0.00     0.074 C 
HETATM   27  O2  UNL     1      22.483   5.583  49.340  1.00  0.00    -0.334 OA
HETATM   28  C25 UNL     1      20.387   5.846  48.537  1.00  0.00     0.180 C 
HETATM   29  H10 UNL     1      23.163   6.750  52.108  1.00  0.00     0.162 HD
HETATM   30  H13 UNL     1      25.662   1.228  53.817  1.00  0.00     0.164 HD
ENDROOT
BRANCH   1  31
HETATM   31  C2  UNL     1      21.204   8.246  48.179  1.00  0.00     0.003 C 
HETATM   32  C1  UNL     1      22.362   9.066  48.567  1.00  0.00     0.005 C 
ENDBRANCH   1  31
BRANCH  28  33
HETATM   33  O3  UNL     1      19.389   5.373  49.423  1.00  0.00    -0.385 OA
HETATM   34  C26 UNL     1      18.192   5.480  48.663  1.00  0.00     0.202 C 
ENDBRANCH  28  33
TORSDOF 2
ENDMDL
MODEL 7
REMARK VINA RESULT:      -8.4      2.447      5.967
REMARK  2 active torsions:
REMARK  status: ('A' for Active; 'I' for Inactive)
REMARK    1  A    between atoms: C2_2  and  C3_3 
REMARK    2  A    between atoms: C25_30  and  O3_31 
ROOT
HETATM    1  C3  UNL     1      24.448   6.326  48.435  1.00  0.00     0.023 C 
HETATM    2  C4  UNL     1      23.570   5.321  47.733  1.00  0.00     0.061 C 
HETATM    3  C5  UNL     1      23.023   4.490  48.848  1.00  0.00     0.224 C 
HETATM    4  N1  UNL     1      21.785   3.822  48.563  1.00  0.00    -0.367 N 
HETATM    5  C6  UNL     1      21.118   3.000  49.551  1.00  0.00     0.007 C 
HETATM    6  C7  UNL     1      21.669   1.675  49.401  1.00  0.00     0.023 C 
HETATM    7  C8  UNL     1      21.730   0.587  50.600  1.00  0.00     0.012 C 
HETATM    8  C9  UNL     1      20.741   0.934  51.605  1.00  0.00     0.097 A 
HETATM    9  N2  UNL     1      19.568   0.219  51.482  1.00  0.00    -0.342 N 
HETATM   10  C10 UNL     1      18.829   1.465  51.849  1.00  0.00     0.235 A 
HETATM   11  O1  UNL     1      17.650   1.792  52.002  1.00  0.00    -0.272 OA
HETATM   12  C11 UNL     1      20.049   2.220  51.975  1.00  0.00     0.105 A 
HETATM   13  C12 UNL     1      19.946   3.592  51.736  1.00  0.00     0.022 C 
HETATM   14  C13 UNL     1      20.164   3.992  50.237  1.00  0.00     0.063 C 
HETATM   15  C14 UNL     1      21.475   2.107  51.884  1.00  0.00    -0.016 A 
HETATM   16  C15 UNL     1      22.580   2.570  52.033  1.00  0.00    -0.021 C 
HETATM   17  C16 UNL     1      22.873   3.973  52.331  1.00  0.00     0.166 C 
HETATM   18  N3  UNL     1      24.073   4.120  51.435  1.00  0.00    -0.342 N 
HETATM   19  C17 UNL     1      24.742   2.895  51.664  1.00  0.00     0.043 A 
HETATM   20  C18 UNL     1      26.067   2.598  51.581  1.00  0.00     0.030 A 
HETATM   21  C19 UNL     1      26.575   1.370  51.840  1.00  0.00     0.002 A 
HETATM   22  C20 UNL     1      25.735   0.338  52.211  1.00  0.00     0.001 A 
HETATM   23  C21 UNL     1      24.387   0.621  52.303  1.00  0.00     0.014 A 
HETATM   24  C22 UNL     1      23.866   1.876  52.040  1.00  0.00    -0.001 A 
HETATM   25  C23 UNL     1      24.090   5.342  50.738  1.00  0.00     0.162 C 
HETATM   26  C24 UNL     1      23.819   6.375  51.870  1.00  0.00     0.074 C 
HETATM   27  O2  UNL     1      22.856   5.209  49.999  1.00  0.00    -0.334 OA
HETATM   28  C25 UNL     1      25.025   5.803  49.765  1.00  0.00     0.180 C 
HETATM   29  H10 UNL     1      21.394   3.971  47.587  1.00  0.00     0.162 HD
HETATM   30  H13 UNL     1      19.358  -0.734  51.244  1.00  0.00     0.164 HD
ENDROOT
BRANCH   1  31
HETATM   31  C2  UNL     1      23.988   7.724  48.426  1.00  0.00     0.003 C 
HETATM   32  C1  UNL     1      24.742   8.764  49.144  1.00  0.00     0.005 C 
ENDBRANCH   1  31
BRANCH  28  33
HETATM   33  O3  UNL     1      25.845   4.744  49.305  1.00  0.00    -0.385 OA
HETATM   34  C26 UNL     1      26.965   5.412  48.740  1.00  0.00     0.202 C 
ENDBRANCH  28  33
TORSDOF 2
ENDMDL
MODEL 8
REMARK VINA RESULT:      -8.3      4.642      8.917
REMARK  2 active torsions:
REMARK  status: ('A' for Active; 'I' for Inactive)
REMARK    1  A    between atoms: C2_2  and  C3_3 
REMARK    2  A    between atoms: C25_30  and  O3_31 
ROOT
HETATM    1  C3  UNL     1      28.056  13.791  47.863  1.00  0.00     0.023 C 
HETATM    2  C4  UNL     1      28.419  12.970  49.074  1.00  0.00     0.061 C 
HETATM    3  C5  UNL     1      27.997  11.586  48.702  1.00  0.00     0.224 C 
HETATM    4  N1  UNL     1      28.674  10.531  49.401  1.00  0.00    -0.367 N 
HETATM    5  C6  UNL     1      28.392   9.136  49.133  1.00  0.00     0.007 C 
HETATM    6  C7  UNL     1      27.298   8.779  50.005  1.00  0.00     0.023 C 
HETATM    7  C8  UNL     1      26.242   7.593  49.682  1.00  0.00     0.012 C 
HETATM    8  C9  UNL     1      26.839   6.676  48.727  1.00  0.00     0.097 A 
HETATM    9  N2  UNL     1      27.385   5.556  49.319  1.00  0.00    -0.342 N 
HETATM   10  C10 UNL     1      28.502   5.640  48.331  1.00  0.00     0.235 A 
HETATM   11  O1  UNL     1      29.528   5.000  48.085  1.00  0.00    -0.272 OA
HETATM   12  C11 UNL     1      27.941   6.812  47.710  1.00  0.00     0.105 A 
HETATM   13  C12 UNL     1      28.853   7.674  47.096  1.00  0.00     0.022 C 
HETATM   14  C13 UNL     1      29.424   8.777  48.051  1.00  0.00     0.063 C 
HETATM   15  C14 UNL     1      26.824   7.708  47.765  1.00  0.00    -0.016 A 
HETATM   16  C15 UNL     1      26.183   8.622  47.305  1.00  0.00    -0.021 C 
HETATM   17  C16 UNL     1      26.624   9.498  46.218  1.00  0.00     0.166 C 
HETATM   18  N3  UNL     1      26.099  10.791  46.779  1.00  0.00    -0.342 N 
HETATM   19  C17 UNL     1      24.839  10.386  47.280  1.00  0.00     0.043 A 
HETATM   20  C18 UNL     1      23.695  11.104  47.444  1.00  0.00     0.030 A 
HETATM   21  C19 UNL     1      22.547  10.578  47.932  1.00  0.00     0.002 A 
HETATM   22  C20 UNL     1      22.495   9.247  48.295  1.00  0.00     0.001 A 
HETATM   23  C21 UNL     1      23.646   8.501  48.133  1.00  0.00     0.014 A 
HETATM   24  C22 UNL     1      24.821   9.036  47.634  1.00  0.00    -0.001 A 
HETATM   25  C23 UNL     1      26.996  11.864  46.616  1.00  0.00     0.162 C 
HETATM   26  C24 UNL     1      27.375  11.753  45.110  1.00  0.00     0.074 C 
HETATM   27  O2  UNL     1      28.119  11.348  47.362  1.00  0.00    -0.334 OA
HETATM   28  C25 UNL     1      26.871  13.210  47.069  1.00  0.00     0.180 C 
HETATM   29  H10 UNL     1      29.391  10.839  50.121  1.00  0.00     0.162 HD
HETATM   30  H13 UNL     1      27.106   4.971  50.087  1.00  0.00     0.164 HD
ENDROOT
BRANCH   1  31
HETATM   31  C2  UNL     1      29.175  14.328  47.070  1.00  0.00     0.003 C 
HETATM   32  C1  UNL     1      29.129  15.702  46.547  1.00  0.00     0.005 C 
ENDBRANCH   1  31
BRANCH  28  33
HETATM   33  O3  UNL     1      25.826  13.333  48.017  1.00  0.00    -0.385 OA
HETATM   34  C26 UNL     1      25.386  14.675  47.854  1.00  0.00     0.202 C 
ENDBRANCH  28  33
TORSDOF 2
ENDMDL
MODEL 9
REMARK VINA RESULT:      -8.2      1.859      2.438
REMARK  2 active torsions:
REMARK  status: ('A' for Active; 'I' for Inactive)
REMARK    1  A    between atoms: C2_2  and  C3_3 
REMARK    2  A    between atoms: C25_30  and  O3_31 
ROOT
HETATM    1  C3  UNL     1      21.164   0.989  52.193  1.00  0.00     0.023 C 
HETATM    2  C4  UNL     1      20.857   2.369  52.718  1.00  0.00     0.061 C 
HETATM    3  C5  UNL     1      21.196   3.266  51.572  1.00  0.00     0.224 C 
HETATM    4  N1  UNL     1      20.529   4.538  51.573  1.00  0.00    -0.367 N 
HETATM    5  C6  UNL     1      20.736   5.506  50.516  1.00  0.00     0.007 C 
HETATM    6  C7  UNL     1      21.874   6.297  50.921  1.00  0.00     0.023 C 
HETATM    7  C8  UNL     1      22.856   7.056  49.880  1.00  0.00     0.012 C 
HETATM    8  C9  UNL     1      22.156   7.244  48.621  1.00  0.00     0.097 A 
HETATM    9  N2  UNL     1      21.609   8.503  48.486  1.00  0.00    -0.342 N 
HETATM   10  C10 UNL     1      20.428   7.866  47.830  1.00  0.00     0.235 A 
HETATM   11  O1  UNL     1      19.363   8.250  47.341  1.00  0.00    -0.272 OA
HETATM   12  C11 UNL     1      20.990   6.547  47.971  1.00  0.00     0.105 A 
HETATM   13  C12 UNL     1      20.072   5.498  48.055  1.00  0.00     0.022 C 
HETATM   14  C13 UNL     1      19.615   5.172  49.518  1.00  0.00     0.063 C 
HETATM   15  C14 UNL     1      22.143   5.843  48.449  1.00  0.00    -0.016 A 
HETATM   16  C15 UNL     1      22.785   4.827  48.562  1.00  0.00    -0.021 C 
HETATM   17  C16 UNL     1      22.303   3.484  48.234  1.00  0.00     0.166 C 
HETATM   18  N3  UNL     1      22.917   2.762  49.402  1.00  0.00    -0.342 N 
HETATM   19  C17 UNL     1      24.193   3.371  49.465  1.00  0.00     0.043 A 
HETATM   20  C18 UNL     1      25.373   2.875  49.925  1.00  0.00     0.030 A 
HETATM   21  C19 UNL     1      26.532   3.576  49.917  1.00  0.00     0.002 A 
HETATM   22  C20 UNL     1      26.556   4.866  49.425  1.00  0.00     0.001 A 
HETATM   23  C21 UNL     1      25.368   5.386  48.952  1.00  0.00     0.014 A 
HETATM   24  C22 UNL     1      24.183   4.672  48.958  1.00  0.00    -0.001 A 
HETATM   25  C23 UNL     1      22.055   1.807  49.971  1.00  0.00     0.162 C 
HETATM   26  C24 UNL     1      21.565   1.016  48.724  1.00  0.00     0.074 C 
HETATM   27  O2  UNL     1      20.969   2.674  50.363  1.00  0.00    -0.334 OA
HETATM   28  C25 UNL     1      22.265   0.982  51.116  1.00  0.00     0.180 C 
HETATM   29  H10 UNL     1      19.878   4.717  52.392  1.00  0.00     0.162 HD
HETATM   30  H13 UNL     1      21.919   9.425  48.741  1.00  0.00     0.164 HD
ENDROOT
BRANCH   1  31
HETATM   31  C2  UNL     1      20.014   0.101  51.959  1.00  0.00     0.003 C 
HETATM   32  C1  UNL     1      19.303  -0.514  53.090  1.00  0.00     0.005 C 
ENDBRANCH   1  31
BRANCH  28  33
HETATM   33  O3  UNL     1      23.380   1.429  51.867  1.00  0.00    -0.385 OA
HETATM   34  C26 UNL     1      23.716   0.301  52.665  1.00  0.00     0.202 C 
ENDBRANCH  28  33
TORSDOF 2
ENDMDL
