MODEL 1
REMARK VINA RESULT:      -8.1      0.000      0.000
REMARK  0 active torsions:
REMARK  status: ('A' for Active; 'I' for Inactive)
ROOT
HETATM    1  O1  UNL     1      22.787   6.904  49.591  1.00  0.00     0.000 OA
HETATM    2  C1  UNL     1      23.116   8.011  49.031  1.00  0.00     0.288 A 
HETATM    3  C2  UNL     1      22.714   7.032  48.112  1.00  0.00     0.045 A 
HETATM    4  C3  UNL     1      22.382   6.214  47.377  1.00  0.00    -0.143 C 
HETATM    5  C4  UNL     1      21.966   5.185  46.490  1.00  0.00     0.115 C 
HETATM    6  C5  UNL     1      21.179   4.196  47.459  1.00  0.00     0.284 C 
HETATM    7  N1  UNL     1      22.012   4.048  48.687  1.00  0.00     0.099 N 
HETATM    8  C6  UNL     1      23.087   3.129  48.319  1.00  0.00     0.299 C 
HETATM    9  C7  UNL     1      22.506   1.777  47.943  1.00  0.00     0.198 C 
HETATM   10  O2  UNL     1      21.243   1.620  48.551  1.00  0.00    -0.387 OA
HETATM   11  C8  UNL     1      21.302   2.055  49.868  1.00  0.00     0.205 C 
HETATM   12  C9  UNL     1      21.305   3.600  49.823  1.00  0.00     0.265 C 
HETATM   13  C10 UNL     1      21.576   4.154  51.156  1.00  0.00     0.063 C 
HETATM   14  C11 UNL     1      21.380   5.623  51.217  1.00  0.00     0.052 C 
HETATM   15  C12 UNL     1      22.637   6.103  51.094  1.00  0.00     0.259 C 
HETATM   16  N2  UNL     1      23.568   5.064  51.457  1.00  0.00    -0.225 NA
HETATM   17  C13 UNL     1      22.897   4.013  51.761  1.00  0.00     0.069 C 
HETATM   18  C14 UNL     1      23.644   3.092  52.561  1.00  0.00     0.141 C 
HETATM   19  N3  UNL     1      23.767   1.967  53.091  1.00  0.00    -0.268 NA
HETATM   20  C15 UNL     1      22.884   0.881  53.036  1.00  0.00     0.436 C 
HETATM   21  N4  UNL     1      22.071   0.255  53.803  1.00  0.00    -0.413 NA
HETATM   22  C16 UNL     1      21.290  -0.888  53.361  1.00  0.00     0.193 C 
HETATM   23  S1  UNL     1      19.803  -0.241  52.617  1.00  0.00    -0.071 SA
HETATM   24  C17 UNL     1      18.557   0.291  52.015  1.00  0.00    -0.085 C 
HETATM   25  C18 UNL     1      17.396   0.809  51.460  1.00  0.00     0.195 A 
HETATM   26  C19 UNL     1      17.709   2.048  51.370  1.00  0.00     0.065 A 
HETATM   27 CL1  UNL     1      16.062   1.799  50.755  1.00  0.00    -0.159 Cl
HETATM   28  C20 UNL     1      17.996   3.438  51.246  1.00  0.00     0.131 C 
HETATM   29  F1  UNL     1      17.131   4.388  50.756  1.00  0.00    -0.205 F 
HETATM   30  C21 UNL     1      19.187   3.962  51.613  1.00  0.00     0.018 C 
HETATM   31  C22 UNL     1      20.512   3.638  52.171  1.00  0.00     0.053 C 
HETATM   32  N5  UNL     1      23.039   7.448  50.483  1.00  0.00     0.158 N 
HETATM   33  H21 UNL     1      23.302   8.021  51.377  1.00  0.00     0.327 HD
ENDROOT
TORSDOF 0
ENDMDL
MODEL 2
REMARK VINA RESULT:      -8.0      3.334      6.091
REMARK  0 active torsions:
REMARK  status: ('A' for Active; 'I' for Inactive)
ROOT
HETATM    1  O1  UNL     1      24.536   3.167  51.235  1.00  0.00     0.000 OA
HETATM    2  C1  UNL     1      25.397   2.414  51.816  1.00  0.00     0.288 A 
HETATM    3  C2  UNL     1      24.142   1.804  51.678  1.00  0.00     0.045 A 
HETATM    4  C3  UNL     1      23.106   1.325  51.555  1.00  0.00    -0.143 C 
HETATM    5  C4  UNL     1      21.814   0.755  51.391  1.00  0.00     0.115 C 
HETATM    6  C5  UNL     1      21.181   1.669  50.250  1.00  0.00     0.284 C 
HETATM    7  N1  UNL     1      21.507   3.080  50.603  1.00  0.00     0.099 N 
HETATM    8  C6  UNL     1      20.574   3.440  51.667  1.00  0.00     0.299 C 
HETATM    9  C7  UNL     1      19.147   3.371  51.150  1.00  0.00     0.198 C 
HETATM   10  O2  UNL     1      19.146   3.522  49.748  1.00  0.00    -0.387 OA
HETATM   11  C8  UNL     1      20.010   4.547  49.387  1.00  0.00     0.205 C 
HETATM   12  C9  UNL     1      21.443   3.983  49.521  1.00  0.00     0.265 C 
HETATM   13  C10 UNL     1      22.436   5.055  49.363  1.00  0.00     0.063 C 
HETATM   14  C11 UNL     1      23.824   4.541  49.268  1.00  0.00     0.052 C 
HETATM   15  C12 UNL     1      24.294   4.704  50.523  1.00  0.00     0.259 C 
HETATM   16  N2  UNL     1      23.492   5.695  51.196  1.00  0.00    -0.225 NA
HETATM   17  C13 UNL     1      22.578   6.088  50.386  1.00  0.00     0.069 C 
HETATM   18  C14 UNL     1      22.028   7.357  50.745  1.00  0.00     0.141 C 
HETATM   19  N3  UNL     1      21.162   8.246  50.597  1.00  0.00    -0.268 NA
HETATM   20  C15 UNL     1      20.080   8.264  49.708  1.00  0.00     0.436 C 
HETATM   21  N4  UNL     1      19.717   8.868  48.637  1.00  0.00    -0.413 NA
HETATM   22  C16 UNL     1      18.453   8.601  47.970  1.00  0.00     0.193 C 
HETATM   23  S1  UNL     1      18.729   7.218  46.877  1.00  0.00    -0.071 SA
HETATM   24  C17 UNL     1      18.957   6.081  45.954  1.00  0.00    -0.085 C 
HETATM   25  C18 UNL     1      19.193   5.020  45.092  1.00  0.00     0.195 A 
HETATM   26  C19 UNL     1      20.340   4.628  45.508  1.00  0.00     0.065 A 
HETATM   27 CL1  UNL     1      19.812   3.608  44.154  1.00  0.00    -0.159 Cl
HETATM   28  C20 UNL     1      21.615   4.145  45.922  1.00  0.00     0.131 C 
HETATM   29  F1  UNL     1      22.292   3.095  45.349  1.00  0.00    -0.205 F 
HETATM   30  C21 UNL     1      22.293   4.698  46.954  1.00  0.00     0.018 C 
HETATM   31  C22 UNL     1      22.248   5.753  47.982  1.00  0.00     0.053 C 
HETATM   32  N5  UNL     1      25.366   3.850  51.208  1.00  0.00     0.158 N 
HETATM   33  H21 UNL     1      26.224   4.527  51.193  1.00  0.00     0.327 HD
ENDROOT
TORSDOF 0
ENDMDL
MODEL 3
REMARK VINA RESULT:      -8.0      9.402     11.949
REMARK  0 active torsions:
REMARK  status: ('A' for Active; 'I' for Inactive)
ROOT
HETATM    1  O1  UNL     1      34.211   8.186  48.032  1.00  0.00     0.000 OA
HETATM    2  C1  UNL     1      35.494   8.156  48.007  1.00  0.00     0.288 A 
HETATM    3  C2  UNL     1      34.941   8.796  46.890  1.00  0.00     0.045 A 
HETATM    4  C3  UNL     1      34.466   9.316  45.982  1.00  0.00    -0.143 C 
HETATM    5  C4  UNL     1      33.853   9.953  44.869  1.00  0.00     0.115 C 
HETATM    6  C5  UNL     1      32.392  10.269  45.421  1.00  0.00     0.284 C 
HETATM    7  N1  UNL     1      31.927   9.041  46.127  1.00  0.00     0.099 N 
HETATM    8  C6  UNL     1      31.530   8.113  45.071  1.00  0.00     0.299 C 
HETATM    9  C7  UNL     1      30.376   8.698  44.274  1.00  0.00     0.198 C 
HETATM   10  O2  UNL     1      29.688   9.642  45.063  1.00  0.00    -0.387 OA
HETATM   11  C8  UNL     1      29.516   9.142  46.347  1.00  0.00     0.205 C 
HETATM   12  C9  UNL     1      30.886   9.259  47.053  1.00  0.00     0.265 C 
HETATM   13  C10 UNL     1      30.859   8.562  48.347  1.00  0.00     0.063 C 
HETATM   14  C11 UNL     1      32.071   8.822  49.162  1.00  0.00     0.052 C 
HETATM   15  C12 UNL     1      32.831   7.729  48.932  1.00  0.00     0.259 C 
HETATM   16  N2  UNL     1      31.982   6.662  48.464  1.00  0.00    -0.225 NA
HETATM   17  C13 UNL     1      30.779   7.106  48.401  1.00  0.00     0.069 C 
HETATM   18  C14 UNL     1      29.803   6.061  48.406  1.00  0.00     0.141 C 
HETATM   19  N3  UNL     1      28.622   5.679  48.266  1.00  0.00    -0.268 NA
HETATM   20  C15 UNL     1      27.493   6.447  47.950  1.00  0.00     0.436 C 
HETATM   21  N4  UNL     1      26.431   6.885  48.516  1.00  0.00    -0.413 NA
HETATM   22  C16 UNL     1      25.442   7.694  47.822  1.00  0.00     0.193 C 
HETATM   23  S1  UNL     1      25.986   9.390  47.944  1.00  0.00    -0.071 SA
HETATM   24  C17 UNL     1      26.422  10.801  48.059  1.00  0.00    -0.085 C 
HETATM   25  C18 UNL     1      26.847  12.117  48.182  1.00  0.00     0.195 A 
HETATM   26  C19 UNL     1      28.040  11.941  48.616  1.00  0.00     0.065 A 
HETATM   27 CL1  UNL     1      27.707  13.678  48.459  1.00  0.00    -0.159 Cl
HETATM   28  C20 UNL     1      29.373  11.812  49.102  1.00  0.00     0.131 C 
HETATM   29  F1  UNL     1      30.214  12.858  49.402  1.00  0.00    -0.205 F 
HETATM   30  C21 UNL     1      29.946  10.607  49.317  1.00  0.00     0.018 C 
HETATM   31  C22 UNL     1      29.728   9.152  49.243  1.00  0.00     0.053 C 
HETATM   32  N5  UNL     1      34.361   7.666  48.960  1.00  0.00     0.158 N 
HETATM   33  H21 UNL     1      34.538   7.138  49.901  1.00  0.00     0.327 HD
ENDROOT
TORSDOF 0
ENDMDL
MODEL 4
REMARK VINA RESULT:      -7.9      2.819      3.660
REMARK  0 active torsions:
REMARK  status: ('A' for Active; 'I' for Inactive)
ROOT
HETATM    1  O1  UNL     1      20.015   6.448  49.114  1.00  0.00     0.000 OA
HETATM    2  C1  UNL     1      19.096   7.221  48.662  1.00  0.00     0.288 A 
HETATM    3  C2  UNL     1      19.032   5.927  48.128  1.00  0.00     0.045 A 
HETATM    4  C3  UNL     1      18.999   4.861  47.702  1.00  0.00    -0.143 C 
HETATM    5  C4  UNL     1      18.981   3.535  47.191  1.00  0.00     0.115 C 
HETATM    6  C5  UNL     1      19.851   2.743  48.266  1.00  0.00     0.284 C 
HETATM    7  N1  UNL     1      21.048   3.585  48.550  1.00  0.00     0.099 N 
HETATM    8  C6  UNL     1      21.940   3.390  47.410  1.00  0.00     0.299 C 
HETATM    9  C7  UNL     1      22.362   1.933  47.326  1.00  0.00     0.198 C 
HETATM   10  O2  UNL     1      22.246   1.334  48.598  1.00  0.00    -0.387 OA
HETATM   11  C8  UNL     1      22.750   2.192  49.566  1.00  0.00     0.205 C 
HETATM   12  C9  UNL     1      21.689   3.297  49.773  1.00  0.00     0.265 C 
HETATM   13  C10 UNL     1      22.221   4.368  50.626  1.00  0.00     0.063 C 
HETATM   14  C11 UNL     1      21.181   5.345  51.034  1.00  0.00     0.052 C 
HETATM   15  C12 UNL     1      21.362   6.362  50.163  1.00  0.00     0.259 C 
HETATM   16  N2  UNL     1      22.696   6.279  49.623  1.00  0.00    -0.225 NA
HETATM   17  C13 UNL     1      23.273   5.252  50.134  1.00  0.00     0.069 C 
HETATM   18  C14 UNL     1      24.698   5.320  50.051  1.00  0.00     0.141 C 
HETATM   19  N3  UNL     1      25.819   4.779  50.169  1.00  0.00    -0.268 NA
HETATM   20  C15 UNL     1      26.112   3.467  50.563  1.00  0.00     0.436 C 
HETATM   21  N4  UNL     1      26.608   2.845  51.568  1.00  0.00    -0.413 NA
HETATM   22  C16 UNL     1      26.759   1.400  51.607  1.00  0.00     0.193 C 
HETATM   23  S1  UNL     1      25.211   0.735  52.192  1.00  0.00    -0.071 SA
HETATM   24  C17 UNL     1      23.933   0.177  52.696  1.00  0.00    -0.085 C 
HETATM   25  C18 UNL     1      22.731  -0.323  53.174  1.00  0.00     0.195 A 
HETATM   26  C19 UNL     1      21.990   0.720  53.090  1.00  0.00     0.065 A 
HETATM   27 CL1  UNL     1      21.045  -0.638  53.737  1.00  0.00    -0.159 Cl
HETATM   28  C20 UNL     1      21.117   1.843  53.024  1.00  0.00     0.131 C 
HETATM   29  F1  UNL     1      19.798   1.849  53.413  1.00  0.00    -0.205 F 
HETATM   30  C21 UNL     1      21.524   3.044  52.554  1.00  0.00     0.018 C 
HETATM   31  C22 UNL     1      22.673   3.779  51.997  1.00  0.00     0.053 C 
HETATM   32  N5  UNL     1      20.286   7.330  49.664  1.00  0.00     0.158 N 
HETATM   33  H21 UNL     1      20.544   8.241  50.211  1.00  0.00     0.327 HD
ENDROOT
TORSDOF 0
ENDMDL
MODEL 5
REMARK VINA RESULT:      -7.9      7.730     10.876
REMARK  0 active torsions:
REMARK  status: ('A' for Active; 'I' for Inactive)
ROOT
HETATM    1  O1  UNL     1      29.751   6.600  47.780  1.00  0.00     0.000 OA
HETATM    2  C1  UNL     1      30.312   5.450  47.883  1.00  0.00     0.288 A 
HETATM    3  C2  UNL     1      28.958   5.431  48.244  1.00  0.00     0.045 A 
HETATM    4  C3  UNL     1      27.847   5.439  48.536  1.00  0.00    -0.143 C 
HETATM    5  C4  UNL     1      26.472   5.476  48.892  1.00  0.00     0.115 C 
HETATM    6  C5  UNL     1      25.977   6.822  48.199  1.00  0.00     0.284 C 
HETATM    7  N1  UNL     1      27.012   7.856  48.487  1.00  0.00     0.099 N 
HETATM    8  C6  UNL     1      26.781   8.263  49.870  1.00  0.00     0.299 C 
HETATM    9  C7  UNL     1      25.401   8.887  50.003  1.00  0.00     0.198 C 
HETATM   10  O2  UNL     1      24.984   9.380  48.749  1.00  0.00    -0.387 OA
HETATM   11  C8  UNL     1      26.037  10.046  48.135  1.00  0.00     0.205 C 
HETATM   12  C9  UNL     1      26.999   8.958  47.606  1.00  0.00     0.265 C 
HETATM   13  C10 UNL     1      28.248   9.564  47.125  1.00  0.00     0.063 C 
HETATM   14  C11 UNL     1      29.116   8.596  46.411  1.00  0.00     0.052 C 
HETATM   15  C12 UNL     1      30.010   8.236  47.357  1.00  0.00     0.259 C 
HETATM   16  N2  UNL     1      30.040   9.252  48.380  1.00  0.00    -0.225 NA
HETATM   17  C13 UNL     1      29.190  10.162  48.065  1.00  0.00     0.069 C 
HETATM   18  C14 UNL     1      29.446  11.407  48.719  1.00  0.00     0.141 C 
HETATM   19  N3  UNL     1      29.092  12.567  49.020  1.00  0.00    -0.268 NA
HETATM   20  C15 UNL     1      27.906  13.229  48.677  1.00  0.00     0.436 C 
HETATM   21  N4  UNL     1      27.515  14.179  47.911  1.00  0.00    -0.413 NA
HETATM   22  C16 UNL     1      26.127  14.602  47.824  1.00  0.00     0.193 C 
HETATM   23  S1  UNL     1      25.342  13.551  46.615  1.00  0.00    -0.071 SA
HETATM   24  C17 UNL     1      24.689  12.692  45.599  1.00  0.00    -0.085 C 
HETATM   25  C18 UNL     1      24.098  11.881  44.640  1.00  0.00     0.195 A 
HETATM   26  C19 UNL     1      25.002  10.983  44.500  1.00  0.00     0.065 A 
HETATM   27 CL1  UNL     1      23.633  10.631  43.424  1.00  0.00    -0.159 Cl
HETATM   28  C20 UNL     1      25.969   9.957  44.297  1.00  0.00     0.131 C 
HETATM   29  F1  UNL     1      25.844   8.911  43.413  1.00  0.00    -0.205 F 
HETATM   30  C21 UNL     1      27.133   9.920  44.983  1.00  0.00     0.018 C 
HETATM   31  C22 UNL     1      27.935  10.608  46.010  1.00  0.00     0.053 C 
HETATM   32  N5  UNL     1      30.734   6.890  47.456  1.00  0.00     0.158 N 
HETATM   33  H21 UNL     1      31.742   7.161  47.131  1.00  0.00     0.327 HD
ENDROOT
TORSDOF 0
ENDMDL
MODEL 6
REMARK VINA RESULT:      -7.8      4.093      7.111
REMARK  0 active torsions:
REMARK  status: ('A' for Active; 'I' for Inactive)
ROOT
HETATM    1  O1  UNL     1      20.915   2.434  51.717  1.00  0.00     0.000 OA
HETATM    2  C1  UNL     1      20.469   1.377  52.290  1.00  0.00     0.288 A 
HETATM    3  C2  UNL     1      20.841   1.159  50.957  1.00  0.00     0.045 A 
HETATM    4  C3  UNL     1      21.152   1.004  49.861  1.00  0.00    -0.143 C 
HETATM    5  C4  UNL     1      21.542   0.839  48.505  1.00  0.00     0.115 C 
HETATM    6  C5  UNL     1      22.475   2.107  48.263  1.00  0.00     0.284 C 
HETATM    7  N1  UNL     1      21.771   3.276  48.864  1.00  0.00     0.099 N 
HETATM    8  C6  UNL     1      20.724   3.631  47.910  1.00  0.00     0.299 C 
HETATM    9  C7  UNL     1      21.346   4.048  46.589  1.00  0.00     0.198 C 
HETATM   10  O2  UNL     1      22.667   4.490  46.808  1.00  0.00    -0.387 OA
HETATM   11  C8  UNL     1      22.707   5.307  47.930  1.00  0.00     0.205 C 
HETATM   12  C9  UNL     1      22.607   4.374  49.159  1.00  0.00     0.265 C 
HETATM   13  C10 UNL     1      22.429   5.158  50.388  1.00  0.00     0.063 C 
HETATM   14  C11 UNL     1      22.542   4.333  51.616  1.00  0.00     0.052 C 
HETATM   15  C12 UNL     1      21.253   4.095  51.941  1.00  0.00     0.259 C 
HETATM   16  N2  UNL     1      20.424   5.094  51.315  1.00  0.00    -0.225 NA
HETATM   17  C13 UNL     1      21.182   5.875  50.635  1.00  0.00     0.069 C 
HETATM   18  C14 UNL     1      20.570   7.137  50.359  1.00  0.00     0.141 C 
HETATM   19  N3  UNL     1      20.565   8.232  49.755  1.00  0.00    -0.268 NA
HETATM   20  C15 UNL     1      21.501   8.720  48.835  1.00  0.00     0.436 C 
HETATM   21  N4  UNL     1      22.420   9.611  48.769  1.00  0.00    -0.413 NA
HETATM   22  C16 UNL     1      23.223   9.832  47.578  1.00  0.00     0.193 C 
HETATM   23  S1  UNL     1      24.592   8.691  47.660  1.00  0.00    -0.071 SA
HETATM   24  C17 UNL     1      25.741   7.758  47.733  1.00  0.00    -0.085 C 
HETATM   25  C18 UNL     1      26.812   6.880  47.823  1.00  0.00     0.195 A 
HETATM   26  C19 UNL     1      26.418   6.123  48.779  1.00  0.00     0.065 A 
HETATM   27 CL1  UNL     1      28.013   5.589  48.208  1.00  0.00    -0.159 Cl
HETATM   28  C20 UNL     1      26.039   5.249  49.837  1.00  0.00     0.131 C 
HETATM   29  F1  UNL     1      26.796   4.206  50.317  1.00  0.00    -0.205 F 
HETATM   30  C21 UNL     1      24.858   5.373  50.484  1.00  0.00     0.018 C 
HETATM   31  C22 UNL     1      23.614   6.158  50.555  1.00  0.00     0.053 C 
HETATM   32  N5  UNL     1      20.716   2.866  52.680  1.00  0.00     0.158 N 
HETATM   33  H21 UNL     1      20.505   3.283  53.668  1.00  0.00     0.327 HD
ENDROOT
TORSDOF 0
ENDMDL
MODEL 7
REMARK VINA RESULT:      -7.6      4.126      5.556
REMARK  0 active torsions:
REMARK  status: ('A' for Active; 'I' for Inactive)
ROOT
HETATM    1  O1  UNL     1      19.739   8.983  48.805  1.00  0.00     0.000 OA
HETATM    2  C1  UNL     1      18.633   9.627  48.725  1.00  0.00     0.288 A 
HETATM    3  C2  UNL     1      18.575   8.365  48.119  1.00  0.00     0.045 A 
HETATM    4  C3  UNL     1      18.550   7.327  47.626  1.00  0.00    -0.143 C 
HETATM    5  C4  UNL     1      18.547   6.040  47.025  1.00  0.00     0.115 C 
HETATM    6  C5  UNL     1      19.804   5.341  47.710  1.00  0.00     0.284 C 
HETATM    7  N1  UNL     1      20.910   6.341  47.695  1.00  0.00     0.099 N 
HETATM    8  C6  UNL     1      21.418   6.338  46.326  1.00  0.00     0.299 C 
HETATM    9  C7  UNL     1      21.980   4.968  45.985  1.00  0.00     0.198 C 
HETATM   10  O2  UNL     1      22.346   4.300  47.172  1.00  0.00    -0.387 OA
HETATM   11  C8  UNL     1      23.011   5.178  48.017  1.00  0.00     0.205 C 
HETATM   12  C9  UNL     1      21.932   6.097  48.635  1.00  0.00     0.265 C 
HETATM   13  C10 UNL     1      22.559   7.196  49.383  1.00  0.00     0.063 C 
HETATM   14  C11 UNL     1      21.580   7.982  50.173  1.00  0.00     0.052 C 
HETATM   15  C12 UNL     1      21.346   9.054  49.386  1.00  0.00     0.259 C 
HETATM   16  N2  UNL     1      22.444   9.202  48.463  1.00  0.00    -0.225 NA
HETATM   17  C13 UNL     1      23.280   8.252  48.680  1.00  0.00     0.069 C 
HETATM   18  C14 UNL     1      24.586   8.540  48.176  1.00  0.00     0.141 C 
HETATM   19  N3  UNL     1      25.748   8.172  47.900  1.00  0.00    -0.268 NA
HETATM   20  C15 UNL     1      26.319   6.903  48.064  1.00  0.00     0.436 C 
HETATM   21  N4  UNL     1      27.180   6.318  48.811  1.00  0.00    -0.413 NA
HETATM   22  C16 UNL     1      27.524   4.913  48.669  1.00  0.00     0.193 C 
HETATM   23  S1  UNL     1      26.337   3.992  49.631  1.00  0.00    -0.071 SA
HETATM   24  C17 UNL     1      25.364   3.223  50.444  1.00  0.00    -0.085 C 
HETATM   25  C18 UNL     1      24.447   2.523  51.215  1.00  0.00     0.195 A 
HETATM   26  C19 UNL     1      23.588   3.443  51.454  1.00  0.00     0.065 A 
HETATM   27 CL1  UNL     1      23.079   1.928  52.229  1.00  0.00    -0.159 Cl
HETATM   28  C20 UNL     1      22.599   4.421  51.759  1.00  0.00     0.131 C 
HETATM   29  F1  UNL     1      21.478   4.207  52.527  1.00  0.00    -0.205 F 
HETATM   30  C21 UNL     1      22.678   5.691  51.300  1.00  0.00     0.018 C 
HETATM   31  C22 UNL     1      23.490   6.619  50.493  1.00  0.00     0.053 C 
HETATM   32  N5  UNL     1      20.051   9.870  49.326  1.00  0.00     0.158 N 
HETATM   33  H21 UNL     1      20.345  10.782  49.851  1.00  0.00     0.327 HD
ENDROOT
TORSDOF 0
ENDMDL
MODEL 8
REMARK VINA RESULT:      -7.5      2.028      2.711
REMARK  0 active torsions:
REMARK  status: ('A' for Active; 'I' for Inactive)
ROOT
HETATM    1  O1  UNL     1      19.399   6.855  48.100  1.00  0.00     0.000 OA
HETATM    2  C1  UNL     1      18.796   7.686  47.331  1.00  0.00     0.288 A 
HETATM    3  C2  UNL     1      18.999   6.436  46.731  1.00  0.00     0.045 A 
HETATM    4  C3  UNL     1      19.178   5.404  46.259  1.00  0.00    -0.143 C 
HETATM    5  C4  UNL     1      19.411   4.119  45.699  1.00  0.00     0.115 C 
HETATM    6  C5  UNL     1      19.677   3.227  46.992  1.00  0.00     0.284 C 
HETATM    7  N1  UNL     1      20.594   4.009  47.869  1.00  0.00     0.099 N 
HETATM    8  C6  UNL     1      21.919   3.868  47.271  1.00  0.00     0.299 C 
HETATM    9  C7  UNL     1      22.340   2.408  47.284  1.00  0.00     0.198 C 
HETATM   10  O2  UNL     1      21.642   1.724  48.301  1.00  0.00    -0.387 OA
HETATM   11  C8  UNL     1      21.625   2.495  49.455  1.00  0.00     0.205 C 
HETATM   12  C9  UNL     1      20.585   3.615  49.224  1.00  0.00     0.265 C 
HETATM   13  C10 UNL     1      20.644   4.606  50.307  1.00  0.00     0.063 C 
HETATM   14  C11 UNL     1      19.529   5.582  50.251  1.00  0.00     0.052 C 
HETATM   15  C12 UNL     1      20.093   6.652  49.650  1.00  0.00     0.259 C 
HETATM   16  N2  UNL     1      21.524   6.568  49.796  1.00  0.00    -0.225 NA
HETATM   17  C13 UNL     1      21.798   5.490  50.437  1.00  0.00     0.069 C 
HETATM   18  C14 UNL     1      23.094   5.519  51.040  1.00  0.00     0.141 C 
HETATM   19  N3  UNL     1      24.031   4.937  51.629  1.00  0.00    -0.268 NA
HETATM   20  C15 UNL     1      24.113   3.592  52.011  1.00  0.00     0.436 C 
HETATM   21  N4  UNL     1      24.080   2.886  53.080  1.00  0.00    -0.413 NA
HETATM   22  C16 UNL     1      24.205   1.438  53.073  1.00  0.00     0.193 C 
HETATM   23  S1  UNL     1      22.568   0.780  52.809  1.00  0.00    -0.071 SA
HETATM   24  C17 UNL     1      21.208   0.228  52.608  1.00  0.00    -0.085 C 
HETATM   25  C18 UNL     1      19.925  -0.269  52.424  1.00  0.00     0.195 A 
HETATM   26  C19 UNL     1      19.305   0.800  52.082  1.00  0.00     0.065 A 
HETATM   27 CL1  UNL     1      18.175  -0.571  52.102  1.00  0.00    -0.159 Cl
HETATM   28  C20 UNL     1      18.558   1.951  51.700  1.00  0.00     0.131 C 
HETATM   29  F1  UNL     1      17.211   1.969  51.422  1.00  0.00    -0.205 F 
HETATM   30  C21 UNL     1      19.131   3.169  51.571  1.00  0.00     0.018 C 
HETATM   31  C22 UNL     1      20.402   3.907  51.679  1.00  0.00     0.053 C 
HETATM   32  N5  UNL     1      19.373   7.687  48.780  1.00  0.00     0.158 N 
HETATM   33  H21 UNL     1      19.336   8.548  49.453  1.00  0.00     0.327 HD
ENDROOT
TORSDOF 0
ENDMDL
MODEL 9
REMARK VINA RESULT:      -7.3     25.576     28.305
REMARK  0 active torsions:
REMARK  status: ('A' for Active; 'I' for Inactive)
ROOT
HETATM    1  O1  UNL     1      43.393   1.237  68.827  1.00  0.00     0.000 OA
HETATM    2  C1  UNL     1      44.290   2.153  68.878  1.00  0.00     0.288 A 
HETATM    3  C2  UNL     1      43.766   1.833  70.137  1.00  0.00     0.045 A 
HETATM    4  C3  UNL     1      43.320   1.555  71.159  1.00  0.00    -0.143 C 
HETATM    5  C4  UNL     1      42.752   1.192  72.410  1.00  0.00     0.115 C 
HETATM    6  C5  UNL     1      42.108  -0.230  72.093  1.00  0.00     0.284 C 
HETATM    7  N1  UNL     1      41.403  -0.097  70.786  1.00  0.00     0.099 N 
HETATM    8  C6  UNL     1      40.159   0.607  71.085  1.00  0.00     0.299 C 
HETATM    9  C7  UNL     1      39.308  -0.224  72.031  1.00  0.00     0.198 C 
HETATM   10  O2  UNL     1      39.665  -1.583  71.915  1.00  0.00    -0.387 OA
HETATM   11  C8  UNL     1      39.815  -1.915  70.576  1.00  0.00     0.205 C 
HETATM   12  C9  UNL     1      41.167  -1.319  70.122  1.00  0.00     0.265 C 
HETATM   13  C10 UNL     1      41.319  -1.437  68.665  1.00  0.00     0.063 C 
HETATM   14  C11 UNL     1      42.682  -1.079  68.201  1.00  0.00     0.052 C 
HETATM   15  C12 UNL     1      42.534   0.195  67.778  1.00  0.00     0.259 C 
HETATM   16  N2  UNL     1      41.139   0.435  67.504  1.00  0.00    -0.225 NA
HETATM   17  C13 UNL     1      40.488  -0.640  67.768  1.00  0.00     0.069 C 
HETATM   18  C14 UNL     1      39.216  -0.690  67.118  1.00  0.00     0.141 C 
HETATM   19  N3  UNL     1      38.096  -1.224  66.964  1.00  0.00    -0.268 NA
HETATM   20  C15 UNL     1      37.568  -2.339  67.627  1.00  0.00     0.436 C 
HETATM   21  N4  UNL     1      37.284  -3.565  67.384  1.00  0.00    -0.413 NA
HETATM   22  C16 UNL     1      36.719  -4.458  68.381  1.00  0.00     0.193 C 
HETATM   23  S1  UNL     1      38.089  -5.148  69.292  1.00  0.00    -0.071 SA
HETATM   24  C17 UNL     1      39.225  -5.738  70.039  1.00  0.00    -0.085 C 
HETATM   25  C18 UNL     1      40.302  -6.284  70.722  1.00  0.00     0.195 A 
HETATM   26  C19 UNL     1      41.251  -5.525  70.313  1.00  0.00     0.065 A 
HETATM   27 CL1  UNL     1      41.895  -6.736  71.442  1.00  0.00    -0.159 Cl
HETATM   28  C20 UNL     1      42.348  -4.719  69.893  1.00  0.00     0.131 C 
HETATM   29  F1  UNL     1      43.654  -4.884  70.292  1.00  0.00    -0.205 F 
HETATM   30  C21 UNL     1      42.194  -3.684  69.037  1.00  0.00     0.018 C 
HETATM   31  C22 UNL     1      41.209  -2.932  68.239  1.00  0.00     0.053 C 
HETATM   32  N5  UNL     1      43.613   1.281  67.776  1.00  0.00     0.158 N 
HETATM   33  H21 UNL     1      43.853   1.345  66.711  1.00  0.00     0.327 HD
ENDROOT
TORSDOF 0
ENDMDL
