MODEL 1
REMARK VINA RESULT:      -8.4      0.000      0.000
REMARK  4 active torsions:
REMARK  status: ('A' for Active; 'I' for Inactive)
REMARK    1  A    between atoms: C2_2  and  C3_3 
REMARK    2  A    between atoms: C3_3  and  C4_4 
REMARK       I    between atoms: C4_4  and  N1_6 
REMARK    3  A    between atoms: N1_6  and  C5_7 
REMARK    4  A    between atoms: N4_16  and  C12_17 
ROOT
HETATM    1  C5  UNL     1      25.451   3.256  50.905  1.00  0.00     0.132 C 
HETATM    2  C6  UNL     1      24.717   3.467  52.208  1.00  0.00     0.001 C 
HETATM    3  C7  UNL     1      24.337   2.361  52.882  1.00  0.00     0.005 C 
HETATM    4  C8  UNL     1      24.745   1.101  52.156  1.00  0.00     0.182 A 
HETATM    5  C9  UNL     1      26.201   1.262  51.912  1.00  0.00     0.062 A 
HETATM    6  C10 UNL     1      26.597   2.351  51.275  1.00  0.00     0.032 C 
HETATM    7  N2  UNL     1      27.171   0.308  52.333  1.00  0.00    -0.245 NA
HETATM    8  C11 UNL     1      26.814  -0.773  52.983  1.00  0.00     0.223 A 
HETATM    9  N3  UNL     1      25.435  -0.974  53.260  1.00  0.00    -0.291 N 
HETATM   10  N4  UNL     1      24.418  -0.093  52.884  1.00  0.00    -0.277 N 
HETATM   11  H13 UNL     1      25.253  -1.857  53.779  1.00  0.00     0.188 HD
ENDROOT
BRANCH   1  12
HETATM   12  N1  UNL     1      26.042   4.478  50.450  1.00  0.00    -0.350 N 
HETATM   13  C4  UNL     1      25.523   5.264  49.372  1.00  0.00     0.221 C 
HETATM   14  O1  UNL     1      24.495   4.730  48.895  1.00  0.00    -0.273 OA
HETATM   15  H6  UNL     1      26.907   4.713  51.021  1.00  0.00     0.163 HD
BRANCH  13  16
HETATM   16  C3  UNL     1      26.345   6.481  49.122  1.00  0.00     0.129 C 
BRANCH  16  17
HETATM   17  C2  UNL     1      27.505   6.190  48.233  1.00  0.00    -0.028 C 
HETATM   18  C1  UNL     1      28.643   5.482  48.337  1.00  0.00     0.007 C 
ENDBRANCH  16  17
ENDBRANCH  13  16
ENDBRANCH   1  12
BRANCH  10  19
HETATM   19  C12 UNL     1      23.057  -0.346  53.205  1.00  0.00     0.053 A 
HETATM   20  C13 UNL     1      22.668  -1.011  54.352  1.00  0.00     0.031 A 
HETATM   21  C14 UNL     1      21.363  -1.280  54.702  1.00  0.00     0.004 A 
HETATM   22  C15 UNL     1      20.355  -0.872  53.871  1.00  0.00     0.019 A 
HETATM   23  C16 UNL     1      20.676  -0.214  52.725  1.00  0.00     0.013 A 
HETATM   24 BR1  UNL     1      19.267   0.354  51.569  1.00  0.00    -0.051 Br
HETATM   25  C17 UNL     1      21.997   0.037  52.412  1.00  0.00     0.050 A 
ENDBRANCH  10  19
TORSDOF 4
ENDMDL
MODEL 2
REMARK VINA RESULT:      -8.2      3.456      5.116
REMARK  4 active torsions:
REMARK  status: ('A' for Active; 'I' for Inactive)
REMARK    1  A    between atoms: C2_2  and  C3_3 
REMARK    2  A    between atoms: C3_3  and  C4_4 
REMARK       I    between atoms: C4_4  and  N1_6 
REMARK    3  A    between atoms: N1_6  and  C5_7 
REMARK    4  A    between atoms: N4_16  and  C12_17 
ROOT
HETATM    1  C5  UNL     1      25.475   1.280  53.568  1.00  0.00     0.132 C 
HETATM    2  C6  UNL     1      24.888   0.526  52.399  1.00  0.00     0.001 C 
HETATM    3  C7  UNL     1      23.614   0.815  52.062  1.00  0.00     0.005 C 
HETATM    4  C8  UNL     1      23.028   1.874  52.965  1.00  0.00     0.182 A 
HETATM    5  C9  UNL     1      23.999   2.995  52.910  1.00  0.00     0.062 A 
HETATM    6  C10 UNL     1      25.259   2.728  53.213  1.00  0.00     0.032 C 
HETATM    7  N2  UNL     1      23.635   4.323  52.547  1.00  0.00    -0.245 NA
HETATM    8  C11 UNL     1      22.399   4.618  52.224  1.00  0.00     0.223 A 
HETATM    9  N3  UNL     1      21.428   3.581  52.242  1.00  0.00    -0.291 N 
HETATM   10  N4  UNL     1      21.696   2.255  52.586  1.00  0.00    -0.277 N 
HETATM   11  H13 UNL     1      20.479   3.914  51.970  1.00  0.00     0.188 HD
ENDROOT
BRANCH   1  12
HETATM   12  N1  UNL     1      26.894   1.096  53.633  1.00  0.00    -0.350 N 
HETATM   13  C4  UNL     1      27.544   0.202  54.542  1.00  0.00     0.221 C 
HETATM   14  O1  UNL     1      26.699  -0.383  55.259  1.00  0.00    -0.273 OA
HETATM   15  H6  UNL     1      27.386   1.711  52.918  1.00  0.00     0.163 HD
BRANCH  13  16
HETATM   16  C3  UNL     1      29.024   0.220  54.382  1.00  0.00     0.129 C 
BRANCH  16  17
HETATM   17  C2  UNL     1      29.505  -0.933  53.569  1.00  0.00    -0.028 C 
HETATM   18  C1  UNL     1      28.995  -2.115  53.180  1.00  0.00     0.007 C 
ENDBRANCH  16  17
ENDBRANCH  13  16
ENDBRANCH   1  12
BRANCH  10  19
HETATM   19  C12 UNL     1      20.679   1.261  52.572  1.00  0.00     0.053 A 
HETATM   20  C13 UNL     1      20.567   0.289  53.547  1.00  0.00     0.031 A 
HETATM   21  C14 UNL     1      19.601  -0.693  53.573  1.00  0.00     0.004 A 
HETATM   22  C15 UNL     1      18.670  -0.735  52.570  1.00  0.00     0.019 A 
HETATM   23  C16 UNL     1      18.730   0.196  51.580  1.00  0.00     0.013 A 
HETATM   24 BR1  UNL     1      17.430   0.134  50.184  1.00  0.00    -0.051 Br
HETATM   25  C17 UNL     1      19.714   1.164  51.593  1.00  0.00     0.050 A 
ENDBRANCH  10  19
TORSDOF 4
ENDMDL
MODEL 3
REMARK VINA RESULT:      -7.3      3.213      5.099
REMARK  4 active torsions:
REMARK  status: ('A' for Active; 'I' for Inactive)
REMARK    1  A    between atoms: C2_2  and  C3_3 
REMARK    2  A    between atoms: C3_3  and  C4_4 
REMARK       I    between atoms: C4_4  and  N1_6 
REMARK    3  A    between atoms: N1_6  and  C5_7 
REMARK    4  A    between atoms: N4_16  and  C12_17 
ROOT
HETATM    1  C5  UNL     1      25.699   5.090  49.712  1.00  0.00     0.132 C 
HETATM    2  C6  UNL     1      26.657   4.002  49.288  1.00  0.00     0.001 C 
HETATM    3  C7  UNL     1      26.689   2.886  50.046  1.00  0.00     0.005 C 
HETATM    4  C8  UNL     1      25.720   2.970  51.200  1.00  0.00     0.182 A 
HETATM    5  C9  UNL     1      24.417   3.310  50.575  1.00  0.00     0.062 A 
HETATM    6  C10 UNL     1      24.369   4.387  49.808  1.00  0.00     0.032 C 
HETATM    7  N2  UNL     1      23.238   2.533  50.761  1.00  0.00    -0.245 NA
HETATM    8  C11 UNL     1      23.255   1.450  51.499  1.00  0.00     0.223 A 
HETATM    9  N3  UNL     1      24.479   1.066  52.111  1.00  0.00    -0.291 N 
HETATM   10  N4  UNL     1      25.679   1.768  51.984  1.00  0.00    -0.277 N 
HETATM   11  H13 UNL     1      24.390   0.195  52.675  1.00  0.00     0.188 HD
ENDROOT
BRANCH   1  12
HETATM   12  N1  UNL     1      25.554   6.072  48.681  1.00  0.00    -0.350 N 
HETATM   13  C4  UNL     1      25.814   7.468  48.863  1.00  0.00     0.221 C 
HETATM   14  O1  UNL     1      26.178   7.695  50.040  1.00  0.00    -0.273 OA
HETATM   15  H6  UNL     1      25.232   5.620  47.774  1.00  0.00     0.163 HD
BRANCH  13  16
HETATM   16  C3  UNL     1      25.578   8.248  47.616  1.00  0.00     0.129 C 
BRANCH  16  17
HETATM   17  C2  UNL     1      24.437   9.194  47.765  1.00  0.00    -0.028 C 
HETATM   18  C1  UNL     1      23.316   9.241  48.508  1.00  0.00     0.007 C 
ENDBRANCH  16  17
ENDBRANCH  13  16
ENDBRANCH   1  12
BRANCH  10  19
HETATM   19  C12 UNL     1      26.873   1.321  52.613  1.00  0.00     0.053 A 
HETATM   20  C13 UNL     1      27.738   2.173  53.272  1.00  0.00     0.031 A 
HETATM   21  C14 UNL     1      28.904   1.787  53.893  1.00  0.00     0.004 A 
HETATM   22  C15 UNL     1      29.261   0.465  53.870  1.00  0.00     0.019 A 
HETATM   23  C16 UNL     1      28.451  -0.422  53.235  1.00  0.00     0.013 A 
HETATM   24 BR1  UNL     1      28.952  -2.264  53.206  1.00  0.00    -0.051 Br
HETATM   25  C17 UNL     1      27.289   0.007  52.626  1.00  0.00     0.050 A 
ENDBRANCH  10  19
TORSDOF 4
ENDMDL
MODEL 4
REMARK VINA RESULT:      -7.3      2.983      7.398
REMARK  4 active torsions:
REMARK  status: ('A' for Active; 'I' for Inactive)
REMARK    1  A    between atoms: C2_2  and  C3_3 
REMARK    2  A    between atoms: C3_3  and  C4_4 
REMARK       I    between atoms: C4_4  and  N1_6 
REMARK    3  A    between atoms: N1_6  and  C5_7 
REMARK    4  A    between atoms: N4_16  and  C12_17 
ROOT
HETATM    1  C5  UNL     1      20.841   0.273  52.893  1.00  0.00     0.132 C 
HETATM    2  C6  UNL     1      21.386   0.261  51.485  1.00  0.00     0.001 C 
HETATM    3  C7  UNL     1      22.646   0.715  51.313  1.00  0.00     0.005 C 
HETATM    4  C8  UNL     1      23.261   1.153  52.620  1.00  0.00     0.182 A 
HETATM    5  C9  UNL     1      23.092  -0.012  53.525  1.00  0.00     0.062 A 
HETATM    6  C10 UNL     1      21.869  -0.488  53.688  1.00  0.00     0.032 C 
HETATM    7  N2  UNL     1      24.178  -0.629  54.209  1.00  0.00    -0.245 NA
HETATM    8  C11 UNL     1      25.406  -0.194  54.055  1.00  0.00     0.223 A 
HETATM    9  N3  UNL     1      25.631   0.909  53.188  1.00  0.00    -0.291 N 
HETATM   10  N4  UNL     1      24.627   1.574  52.481  1.00  0.00    -0.277 N 
HETATM   11  H13 UNL     1      26.635   1.178  53.132  1.00  0.00     0.188 HD
ENDROOT
BRANCH   1  12
HETATM   12  N1  UNL     1      19.631  -0.490  52.977  1.00  0.00    -0.350 N 
HETATM   13  C4  UNL     1      18.383  -0.074  52.415  1.00  0.00     0.221 C 
HETATM   14  O1  UNL     1      18.505   1.038  51.850  1.00  0.00    -0.273 OA
HETATM   15  H6  UNL     1      19.795  -1.396  53.509  1.00  0.00     0.163 HD
BRANCH  13  16
HETATM   16  C3  UNL     1      17.301  -1.068  52.658  1.00  0.00     0.129 C 
BRANCH  16  17
HETATM   17  C2  UNL     1      17.787  -2.227  53.459  1.00  0.00    -0.028 C 
HETATM   18  C1  UNL     1      17.402  -3.504  53.635  1.00  0.00     0.007 C 
ENDBRANCH  16  17
ENDBRANCH  13  16
ENDBRANCH   1  12
BRANCH  10  19
HETATM   19  C12 UNL     1      24.921   2.664  51.618  1.00  0.00     0.053 A 
HETATM   20  C13 UNL     1      25.960   2.641  50.707  1.00  0.00     0.031 A 
HETATM   21  C14 UNL     1      26.283   3.673  49.854  1.00  0.00     0.004 A 
HETATM   22  C15 UNL     1      25.538   4.821  49.889  1.00  0.00     0.019 A 
HETATM   23  C16 UNL     1      24.502   4.903  50.766  1.00  0.00     0.013 A 
HETATM   24 BR1  UNL     1      23.466   6.506  50.812  1.00  0.00    -0.051 Br
HETATM   25  C17 UNL     1      24.211   3.846  51.604  1.00  0.00     0.050 A 
ENDBRANCH  10  19
TORSDOF 4
ENDMDL
MODEL 5
REMARK VINA RESULT:      -7.2      2.992      7.347
REMARK  4 active torsions:
REMARK  status: ('A' for Active; 'I' for Inactive)
REMARK    1  A    between atoms: C2_2  and  C3_3 
REMARK    2  A    between atoms: C3_3  and  C4_4 
REMARK       I    between atoms: C4_4  and  N1_6 
REMARK    3  A    between atoms: N1_6  and  C5_7 
REMARK    4  A    between atoms: N4_16  and  C12_17 
ROOT
HETATM    1  C5  UNL     1      21.806   1.585  51.528  1.00  0.00     0.132 C 
HETATM    2  C6  UNL     1      22.229   1.779  50.091  1.00  0.00     0.001 C 
HETATM    3  C7  UNL     1      23.478   2.243  49.879  1.00  0.00     0.005 C 
HETATM    4  C8  UNL     1      24.211   2.479  51.178  1.00  0.00     0.182 A 
HETATM    5  C9  UNL     1      24.097   1.194  51.912  1.00  0.00     0.062 A 
HETATM    6  C10 UNL     1      22.883   0.707  52.110  1.00  0.00     0.032 C 
HETATM    7  N2  UNL     1      25.225   0.474  52.401  1.00  0.00    -0.245 NA
HETATM    8  C11 UNL     1      26.443   0.918  52.206  1.00  0.00     0.223 A 
HETATM    9  N3  UNL     1      26.615   2.136  51.495  1.00  0.00    -0.291 N 
HETATM   10  N4  UNL     1      25.569   2.905  50.983  1.00  0.00    -0.277 N 
HETATM   11  H13 UNL     1      27.616   2.403  51.392  1.00  0.00     0.188 HD
ENDROOT
BRANCH   1  12
HETATM   12  N1  UNL     1      20.593   0.827  51.604  1.00  0.00    -0.350 N 
HETATM   13  C4  UNL     1      19.342   1.362  52.049  1.00  0.00     0.221 C 
HETATM   14  O1  UNL     1      19.468   2.570  52.357  1.00  0.00    -0.273 OA
HETATM   15  H6  UNL     1      20.756  -0.175  51.286  1.00  0.00     0.163 HD
BRANCH  13  16
HETATM   16  C3  UNL     1      18.257   0.342  52.022  1.00  0.00     0.129 C 
BRANCH  16  17
HETATM   17  C2  UNL     1      18.539  -0.788  52.952  1.00  0.00    -0.028 C 
HETATM   18  C1  UNL     1      17.883  -1.892  53.351  1.00  0.00     0.007 C 
ENDBRANCH  16  17
ENDBRANCH  13  16
ENDBRANCH   1  12
BRANCH  10  19
HETATM   19  C12 UNL     1      25.810   4.110  50.268  1.00  0.00     0.053 A 
HETATM   20  C13 UNL     1      26.814   4.234  49.326  1.00  0.00     0.031 A 
HETATM   21  C14 UNL     1      27.086   5.380  48.612  1.00  0.00     0.004 A 
HETATM   22  C15 UNL     1      26.322   6.495  48.830  1.00  0.00     0.019 A 
HETATM   23  C16 UNL     1      25.319   6.433  49.745  1.00  0.00     0.013 A 
HETATM   24 BR1  UNL     1      24.256   7.991  50.046  1.00  0.00    -0.051 Br
HETATM   25  C17 UNL     1      25.079   5.265  50.440  1.00  0.00     0.050 A 
ENDBRANCH  10  19
TORSDOF 4
ENDMDL
MODEL 6
REMARK VINA RESULT:      -7.2      3.296      4.393
REMARK  4 active torsions:
REMARK  status: ('A' for Active; 'I' for Inactive)
REMARK    1  A    between atoms: C2_2  and  C3_3 
REMARK    2  A    between atoms: C3_3  and  C4_4 
REMARK       I    between atoms: C4_4  and  N1_6 
REMARK    3  A    between atoms: N1_6  and  C5_7 
REMARK    4  A    between atoms: N4_16  and  C12_17 
ROOT
HETATM    1  C5  UNL     1      25.881   5.172  49.463  1.00  0.00     0.132 C 
HETATM    2  C6  UNL     1      26.750   3.949  49.296  1.00  0.00     0.001 C 
HETATM    3  C7  UNL     1      26.381   2.839  49.969  1.00  0.00     0.005 C 
HETATM    4  C8  UNL     1      25.126   3.072  50.776  1.00  0.00     0.182 A 
HETATM    5  C9  UNL     1      24.146   3.614  49.802  1.00  0.00     0.062 A 
HETATM    6  C10 UNL     1      24.498   4.687  49.113  1.00  0.00     0.032 C 
HETATM    7  N2  UNL     1      22.866   3.032  49.580  1.00  0.00    -0.245 NA
HETATM    8  C11 UNL     1      22.492   1.958  50.232  1.00  0.00     0.223 A 
HETATM    9  N3  UNL     1      23.395   1.384  51.168  1.00  0.00    -0.291 N 
HETATM   10  N4  UNL     1      24.667   1.889  51.448  1.00  0.00    -0.277 N 
HETATM   11  H13 UNL     1      23.009   0.536  51.632  1.00  0.00     0.188 HD
ENDROOT
BRANCH   1  12
HETATM   12  N1  UNL     1      26.209   6.168  48.487  1.00  0.00    -0.350 N 
HETATM   13  C4  UNL     1      26.554   7.519  48.808  1.00  0.00     0.221 C 
HETATM   14  O1  UNL     1      26.523   7.696  50.048  1.00  0.00    -0.273 OA
HETATM   15  H6  UNL     1      26.162   5.762  47.505  1.00  0.00     0.163 HD
BRANCH  13  16
HETATM   16  C3  UNL     1      26.847   8.326  47.591  1.00  0.00     0.129 C 
BRANCH  16  17
HETATM   17  C2  UNL     1      28.100   7.878  46.920  1.00  0.00    -0.028 C 
HETATM   18  C1  UNL     1      29.203   7.204  47.294  1.00  0.00     0.007 C 
ENDBRANCH  16  17
ENDBRANCH  13  16
ENDBRANCH   1  12
BRANCH  10  19
HETATM   19  C12 UNL     1      25.528   1.258  52.387  1.00  0.00     0.053 A 
HETATM   20  C13 UNL     1      25.885   1.842  53.587  1.00  0.00     0.031 A 
HETATM   21  C14 UNL     1      26.716   1.271  54.525  1.00  0.00     0.004 A 
HETATM   22  C15 UNL     1      27.245   0.033  54.276  1.00  0.00     0.019 A 
HETATM   23  C16 UNL     1      26.931  -0.592  53.110  1.00  0.00     0.013 A 
HETATM   24 BR1  UNL     1      27.670  -2.319  52.768  1.00  0.00    -0.051 Br
HETATM   25  C17 UNL     1      26.093   0.016  52.197  1.00  0.00     0.050 A 
ENDBRANCH  10  19
TORSDOF 4
ENDMDL
MODEL 7
REMARK VINA RESULT:      -7.0      3.388      4.987
REMARK  4 active torsions:
REMARK  status: ('A' for Active; 'I' for Inactive)
REMARK    1  A    between atoms: C2_2  and  C3_3 
REMARK    2  A    between atoms: C3_3  and  C4_4 
REMARK       I    between atoms: C4_4  and  N1_6 
REMARK    3  A    between atoms: N1_6  and  C5_7 
REMARK    4  A    between atoms: N4_16  and  C12_17 
ROOT
HETATM    1  C5  UNL     1      23.142   3.872  51.651  1.00  0.00     0.132 C 
HETATM    2  C6  UNL     1      23.924   2.967  50.729  1.00  0.00     0.001 C 
HETATM    3  C7  UNL     1      24.359   1.797  51.243  1.00  0.00     0.005 C 
HETATM    4  C8  UNL     1      23.952   1.642  52.688  1.00  0.00     0.182 A 
HETATM    5  C9  UNL     1      22.485   1.863  52.693  1.00  0.00     0.062 A 
HETATM    6  C10 UNL     1      22.035   2.993  52.171  1.00  0.00     0.032 C 
HETATM    7  N2  UNL     1      21.557   0.922  53.223  1.00  0.00    -0.245 NA
HETATM    8  C11 UNL     1      21.967  -0.215  53.731  1.00  0.00     0.223 A 
HETATM    9  N3  UNL     1      23.361  -0.490  53.740  1.00  0.00    -0.291 N 
HETATM   10  N4  UNL     1      24.339   0.375  53.243  1.00  0.00    -0.277 N 
HETATM   11  H13 UNL     1      23.586  -1.415  54.162  1.00  0.00     0.188 HD
ENDROOT
BRANCH   1  12
HETATM   12  N1  UNL     1      22.503   4.920  50.915  1.00  0.00    -0.350 N 
HETATM   13  C4  UNL     1      22.949   6.280  50.909  1.00  0.00     0.221 C 
HETATM   14  O1  UNL     1      23.963   6.412  51.633  1.00  0.00    -0.273 OA
HETATM   15  H6  UNL     1      21.662   4.546  50.381  1.00  0.00     0.163 HD
BRANCH  13  16
HETATM   16  C3  UNL     1      22.090   7.147  50.054  1.00  0.00     0.129 C 
BRANCH  16  17
HETATM   17  C2  UNL     1      21.581   6.414  48.861  1.00  0.00    -0.028 C 
HETATM   18  C1  UNL     1      21.756   6.504  47.530  1.00  0.00     0.007 C 
ENDBRANCH  16  17
ENDBRANCH  13  16
ENDBRANCH   1  12
BRANCH  10  19
HETATM   19  C12 UNL     1      25.718   0.033  53.270  1.00  0.00     0.053 A 
HETATM   20  C13 UNL     1      26.197  -1.191  52.841  1.00  0.00     0.031 A 
HETATM   21  C14 UNL     1      27.521  -1.566  52.851  1.00  0.00     0.004 A 
HETATM   22  C15 UNL     1      28.458  -0.682  53.316  1.00  0.00     0.019 A 
HETATM   23  C16 UNL     1      28.048   0.538  53.753  1.00  0.00     0.013 A 
HETATM   24 BR1  UNL     1      29.357   1.768  54.400  1.00  0.00    -0.051 Br
HETATM   25  C17 UNL     1      26.709   0.875  53.725  1.00  0.00     0.050 A 
ENDBRANCH  10  19
TORSDOF 4
ENDMDL
MODEL 8
REMARK VINA RESULT:      -6.8      3.457      7.385
REMARK  4 active torsions:
REMARK  status: ('A' for Active; 'I' for Inactive)
REMARK    1  A    between atoms: C2_2  and  C3_3 
REMARK    2  A    between atoms: C3_3  and  C4_4 
REMARK       I    between atoms: C4_4  and  N1_6 
REMARK    3  A    between atoms: N1_6  and  C5_7 
REMARK    4  A    between atoms: N4_16  and  C12_17 
ROOT
HETATM    1  C5  UNL     1      25.141   2.659  51.226  1.00  0.00     0.132 C 
HETATM    2  C6  UNL     1      24.112   2.852  50.138  1.00  0.00     0.001 C 
HETATM    3  C7  UNL     1      24.189   3.990  49.417  1.00  0.00     0.005 C 
HETATM    4  C8  UNL     1      25.336   4.859  49.874  1.00  0.00     0.182 A 
HETATM    5  C9  UNL     1      26.523   3.968  49.837  1.00  0.00     0.062 A 
HETATM    6  C10 UNL     1      26.458   2.835  50.517  1.00  0.00     0.032 C 
HETATM    7  N2  UNL     1      27.706   4.277  49.107  1.00  0.00    -0.245 NA
HETATM    8  C11 UNL     1      27.797   5.382  48.408  1.00  0.00     0.223 A 
HETATM    9  N3  UNL     1      26.685   6.268  48.393  1.00  0.00    -0.291 N 
HETATM   10  N4  UNL     1      25.490   6.045  49.079  1.00  0.00    -0.277 N 
HETATM   11  H13 UNL     1      26.854   7.114  47.811  1.00  0.00     0.188 HD
ENDROOT
BRANCH   1  12
HETATM   12  N1  UNL     1      25.127   1.310  51.707  1.00  0.00    -0.350 N 
HETATM   13  C4  UNL     1      25.365   0.945  53.071  1.00  0.00     0.221 C 
HETATM   14  O1  UNL     1      25.584   1.965  53.765  1.00  0.00    -0.273 OA
HETATM   15  H6  UNL     1      24.916   0.631  50.916  1.00  0.00     0.163 HD
BRANCH  13  16
HETATM   16  C3  UNL     1      25.287  -0.528  53.276  1.00  0.00     0.129 C 
BRANCH  16  17
HETATM   17  C2  UNL     1      26.534  -1.213  52.833  1.00  0.00    -0.028 C 
HETATM   18  C1  UNL     1      27.853  -1.017  53.006  1.00  0.00     0.007 C 
ENDBRANCH  16  17
ENDBRANCH  13  16
ENDBRANCH   1  12
BRANCH  10  19
HETATM   19  C12 UNL     1      24.409   6.967  49.011  1.00  0.00     0.053 A 
HETATM   20  C13 UNL     1      23.731   7.411  50.130  1.00  0.00     0.031 A 
HETATM   21  C14 UNL     1      22.680   8.300  50.112  1.00  0.00     0.004 A 
HETATM   22  C15 UNL     1      22.251   8.796  48.910  1.00  0.00     0.019 A 
HETATM   23  C16 UNL     1      22.878   8.394  47.773  1.00  0.00     0.013 A 
HETATM   24 BR1  UNL     1      22.277   9.089  46.100  1.00  0.00    -0.051 Br
HETATM   25  C17 UNL     1      23.929   7.502  47.835  1.00  0.00     0.050 A 
ENDBRANCH  10  19
TORSDOF 4
ENDMDL
MODEL 9
REMARK VINA RESULT:      -6.7      2.996      4.469
REMARK  4 active torsions:
REMARK  status: ('A' for Active; 'I' for Inactive)
REMARK    1  A    between atoms: C2_2  and  C3_3 
REMARK    2  A    between atoms: C3_3  and  C4_4 
REMARK       I    between atoms: C4_4  and  N1_6 
REMARK    3  A    between atoms: N1_6  and  C5_7 
REMARK    4  A    between atoms: N4_16  and  C12_17 
ROOT
HETATM    1  C5  UNL     1      26.083   5.492  49.711  1.00  0.00     0.132 C 
HETATM    2  C6  UNL     1      25.685   4.127  49.201  1.00  0.00     0.001 C 
HETATM    3  C7  UNL     1      24.822   3.418  49.959  1.00  0.00     0.005 C 
HETATM    4  C8  UNL     1      24.425   4.176  51.203  1.00  0.00     0.182 A 
HETATM    5  C9  UNL     1      23.948   5.491  50.707  1.00  0.00     0.062 A 
HETATM    6  C10 UNL     1      24.769   6.192  49.942  1.00  0.00     0.032 C 
HETATM    7  N2  UNL     1      22.661   6.018  51.014  1.00  0.00    -0.245 NA
HETATM    8  C11 UNL     1      21.815   5.343  51.754  1.00  0.00     0.223 A 
HETATM    9  N3  UNL     1      22.211   4.069  52.245  1.00  0.00    -0.291 N 
HETATM   10  N4  UNL     1      23.451   3.478  51.995  1.00  0.00    -0.277 N 
HETATM   11  H13 UNL     1      21.473   3.612  52.820  1.00  0.00     0.188 HD
ENDROOT
BRANCH   1  12
HETATM   12  N1  UNL     1      26.756   6.240  48.692  1.00  0.00    -0.350 N 
HETATM   13  C4  UNL     1      28.110   6.008  48.292  1.00  0.00     0.221 C 
HETATM   14  O1  UNL     1      28.609   5.070  48.957  1.00  0.00    -0.273 OA
HETATM   15  H6  UNL     1      26.112   6.981  48.282  1.00  0.00     0.163 HD
BRANCH  13  16
HETATM   16  C3  UNL     1      28.541   6.938  47.212  1.00  0.00     0.129 C 
BRANCH  16  17
HETATM   17  C2  UNL     1      27.578   8.061  47.033  1.00  0.00    -0.028 C 
HETATM   18  C1  UNL     1      27.655   9.404  47.030  1.00  0.00     0.007 C 
ENDBRANCH  16  17
ENDBRANCH  13  16
ENDBRANCH   1  12
BRANCH  10  19
HETATM   19  C12 UNL     1      23.780   2.192  52.505  1.00  0.00     0.053 A 
HETATM   20  C13 UNL     1      22.932   1.106  52.406  1.00  0.00     0.031 A 
HETATM   21  C14 UNL     1      23.207  -0.155  52.886  1.00  0.00     0.004 A 
HETATM   22  C15 UNL     1      24.402  -0.379  53.515  1.00  0.00     0.019 A 
HETATM   23  C16 UNL     1      25.278   0.652  53.644  1.00  0.00     0.013 A 
HETATM   24 BR1  UNL     1      26.944   0.335  54.521  1.00  0.00    -0.051 Br
HETATM   25  C17 UNL     1      24.964   1.901  53.147  1.00  0.00     0.050 A 
ENDBRANCH  10  19
TORSDOF 4
ENDMDL
