MODEL 1
REMARK VINA RESULT:      -7.7      0.000      0.000
REMARK  4 active torsions:
REMARK  status: ('A' for Active; 'I' for Inactive)
REMARK    1  A    between atoms: C2_2  and  C3_3 
REMARK    2  A    between atoms: C3_3  and  C4_4 
REMARK    3  A    between atoms: C16_19  and  C17_20 
REMARK    4  A    between atoms: C17_20  and  O1_21 
ROOT
HETATM    1  C4  UNL     1      26.332   0.091  52.327  1.00  0.00    -0.081 C 
HETATM    2  C5  UNL     1      26.760   1.149  51.579  1.00  0.00    -0.018 C 
HETATM    3  C6  UNL     1      26.720   2.437  50.825  1.00  0.00     0.021 C 
HETATM    4  C7  UNL     1      25.943   3.477  50.460  1.00  0.00     0.003 C 
HETATM    5  C8  UNL     1      24.704   4.389  50.328  1.00  0.00     0.047 C 
HETATM    6  C9  UNL     1      23.649   3.797  51.189  1.00  0.00    -0.017 C 
HETATM    7  C10 UNL     1      23.385   4.120  52.464  1.00  0.00    -0.016 C 
HETATM    8  C11 UNL     1      23.828   2.973  53.134  1.00  0.00     0.030 C 
HETATM    9  C12 UNL     1      23.079   2.231  52.142  1.00  0.00     0.040 A 
HETATM   10  C13 UNL     1      22.623   1.001  52.638  1.00  0.00     0.138 A 
HETATM   11  N1  UNL     1      21.929   0.228  51.796  1.00  0.00    -0.224 NA
HETATM   12  C14 UNL     1      21.687   0.629  50.512  1.00  0.00     0.236 A 
HETATM   13  N2  UNL     1      22.154   1.811  50.074  1.00  0.00    -0.241 NA
HETATM   14  C15 UNL     1      22.857   2.646  50.831  1.00  0.00     0.079 A 
HETATM   15  N3  UNL     1      22.828   0.200  53.811  1.00  0.00    -0.367 N 
HETATM   16  C16 UNL     1      24.320   0.137  53.896  1.00  0.00     0.110 C 
HETATM   17  C18 UNL     1      24.898  -0.010  52.561  1.00  0.00     0.061 C 
HETATM   18  H15 UNL     1      22.007  -0.151  54.331  1.00  0.00     0.161 HD
ENDROOT
BRANCH   1  19
HETATM   19  C3  UNL     1      27.346  -0.891  52.645  1.00  0.00     0.033 C 
BRANCH  19  20
HETATM   20  C2  UNL     1      28.460  -0.493  53.548  1.00  0.00    -0.000 C 
HETATM   21  C1  UNL     1      29.719  -1.295  53.399  1.00  0.00     0.005 C 
ENDBRANCH  19  20
ENDBRANCH   1  19
BRANCH  16  22
HETATM   22  C17 UNL     1      24.555  -1.018  54.847  1.00  0.00     0.189 C 
BRANCH  22  23
HETATM   23  O1  UNL     1      25.642  -0.611  55.654  1.00  0.00    -0.399 OA
HETATM   24  H19 UNL     1      26.221  -1.412  55.699  1.00  0.00     0.209 HD
ENDBRANCH  22  23
ENDBRANCH  16  22
TORSDOF 4
ENDMDL
MODEL 2
REMARK VINA RESULT:      -7.6      2.370      4.088
REMARK  4 active torsions:
REMARK  status: ('A' for Active; 'I' for Inactive)
REMARK    1  A    between atoms: C2_2  and  C3_3 
REMARK    2  A    between atoms: C3_3  and  C4_4 
REMARK    3  A    between atoms: C16_19  and  C17_20 
REMARK    4  A    between atoms: C17_20  and  O1_21 
ROOT
HETATM    1  C4  UNL     1      24.502   0.337  53.302  1.00  0.00    -0.081 C 
HETATM    2  C5  UNL     1      23.282  -0.274  53.342  1.00  0.00    -0.018 C 
HETATM    3  C6  UNL     1      21.836  -0.529  53.076  1.00  0.00     0.021 C 
HETATM    4  C7  UNL     1      20.742  -0.092  52.420  1.00  0.00     0.003 C 
HETATM    5  C8  UNL     1      19.843   0.771  51.508  1.00  0.00     0.047 C 
HETATM    6  C9  UNL     1      20.726   1.784  50.878  1.00  0.00    -0.017 C 
HETATM    7  C10 UNL     1      21.333   1.683  49.685  1.00  0.00    -0.016 C 
HETATM    8  C11 UNL     1      22.672   1.534  50.070  1.00  0.00     0.030 C 
HETATM    9  C12 UNL     1      22.435   2.658  50.951  1.00  0.00     0.040 A 
HETATM   10  C13 UNL     1      23.602   3.400  51.183  1.00  0.00     0.138 A 
HETATM   11  N1  UNL     1      23.498   4.456  51.996  1.00  0.00    -0.224 NA
HETATM   12  C14 UNL     1      22.301   4.784  52.571  1.00  0.00     0.236 A 
HETATM   13  N2  UNL     1      21.209   4.038  52.330  1.00  0.00    -0.241 NA
HETATM   14  C15 UNL     1      21.212   2.968  51.543  1.00  0.00     0.079 A 
HETATM   15  N3  UNL     1      25.006   3.261  50.916  1.00  0.00    -0.367 N 
HETATM   16  C16 UNL     1      25.293   1.888  51.436  1.00  0.00     0.110 C 
HETATM   17  C18 UNL     1      24.558   1.651  52.678  1.00  0.00     0.061 C 
HETATM   18  H15 UNL     1      25.512   4.040  50.465  1.00  0.00     0.161 HD
ENDROOT
BRANCH   1  19
HETATM   19  C3  UNL     1      25.551  -0.330  54.043  1.00  0.00     0.033 C 
BRANCH  19  20
HETATM   20  C2  UNL     1      26.466   0.496  54.875  1.00  0.00    -0.000 C 
HETATM   21  C1  UNL     1      27.925   0.178  54.726  1.00  0.00     0.005 C 
ENDBRANCH  19  20
ENDBRANCH   1  19
BRANCH  16  22
HETATM   22  C17 UNL     1      26.803   1.881  51.552  1.00  0.00     0.189 C 
BRANCH  22  23
HETATM   23  O1  UNL     1      27.203   3.191  51.204  1.00  0.00    -0.399 OA
HETATM   24  H19 UNL     1      26.353   3.694  51.138  1.00  0.00     0.209 HD
ENDBRANCH  22  23
ENDBRANCH  16  22
TORSDOF 4
ENDMDL
MODEL 3
REMARK VINA RESULT:      -7.4      2.860      4.749
REMARK  4 active torsions:
REMARK  status: ('A' for Active; 'I' for Inactive)
REMARK    1  A    between atoms: C2_2  and  C3_3 
REMARK    2  A    between atoms: C3_3  and  C4_4 
REMARK    3  A    between atoms: C16_19  and  C17_20 
REMARK    4  A    between atoms: C17_20  and  O1_21 
ROOT
HETATM    1  C4  UNL     1      23.196   0.963  52.267  1.00  0.00    -0.081 C 
HETATM    2  C5  UNL     1      22.083   0.577  51.578  1.00  0.00    -0.018 C 
HETATM    3  C6  UNL     1      20.966   0.618  50.590  1.00  0.00     0.021 C 
HETATM    4  C7  UNL     1      20.410   1.320  49.582  1.00  0.00     0.003 C 
HETATM    5  C8  UNL     1      20.189   2.438  48.540  1.00  0.00     0.047 C 
HETATM    6  C9  UNL     1      21.355   3.351  48.643  1.00  0.00    -0.017 C 
HETATM    7  C10 UNL     1      22.479   3.296  47.911  1.00  0.00    -0.016 C 
HETATM    8  C11 UNL     1      23.408   2.865  48.867  1.00  0.00     0.030 C 
HETATM    9  C12 UNL     1      22.849   3.893  49.721  1.00  0.00     0.040 A 
HETATM   10  C13 UNL     1      23.789   4.381  50.640  1.00  0.00     0.138 A 
HETATM   11  N1  UNL     1      23.372   5.327  51.488  1.00  0.00    -0.224 NA
HETATM   12  C14 UNL     1      22.084   5.785  51.451  1.00  0.00     0.236 A 
HETATM   13  N2  UNL     1      21.213   5.280  50.561  1.00  0.00    -0.241 NA
HETATM   14  C15 UNL     1      21.529   4.336  49.682  1.00  0.00     0.079 A 
HETATM   15  N3  UNL     1      25.110   4.031  51.078  1.00  0.00    -0.367 N 
HETATM   16  C16 UNL     1      24.968   2.575  51.386  1.00  0.00     0.110 C 
HETATM   17  C18 UNL     1      23.680   2.315  52.029  1.00  0.00     0.061 C 
HETATM   18  H15 UNL     1      25.842   4.760  51.100  1.00  0.00     0.161 HD
ENDROOT
BRANCH   1  19
HETATM   19  C3  UNL     1      23.650   0.032  53.278  1.00  0.00     0.033 C 
BRANCH  19  20
HETATM   20  C2  UNL     1      22.743  -1.075  53.681  1.00  0.00    -0.000 C 
HETATM   21  C1  UNL     1      21.955  -0.830  54.935  1.00  0.00     0.005 C 
ENDBRANCH  19  20
ENDBRANCH   1  19
BRANCH  16  22
HETATM   22  C17 UNL     1      26.194   2.286  52.226  1.00  0.00     0.189 C 
BRANCH  22  23
HETATM   23  O1  UNL     1      27.248   2.975  51.584  1.00  0.00    -0.399 OA
HETATM   24  H19 UNL     1      28.016   2.868  52.199  1.00  0.00     0.209 HD
ENDBRANCH  22  23
ENDBRANCH  16  22
TORSDOF 4
ENDMDL
MODEL 4
REMARK VINA RESULT:      -7.4      7.836     10.373
REMARK  4 active torsions:
REMARK  status: ('A' for Active; 'I' for Inactive)
REMARK    1  A    between atoms: C2_2  and  C3_3 
REMARK    2  A    between atoms: C3_3  and  C4_4 
REMARK    3  A    between atoms: C16_19  and  C17_20 
REMARK    4  A    between atoms: C17_20  and  O1_21 
ROOT
HETATM    1  C4  UNL     1      28.342   6.403  48.327  1.00  0.00    -0.081 C 
HETATM    2  C5  UNL     1      29.344   5.523  48.038  1.00  0.00    -0.018 C 
HETATM    3  C6  UNL     1      30.703   5.017  47.684  1.00  0.00     0.021 C 
HETATM    4  C7  UNL     1      31.979   5.370  47.429  1.00  0.00     0.003 C 
HETATM    5  C8  UNL     1      33.231   6.253  47.233  1.00  0.00     0.047 C 
HETATM    6  C9  UNL     1      32.832   7.638  47.591  1.00  0.00    -0.017 C 
HETATM    7  C10 UNL     1      32.969   8.224  48.790  1.00  0.00    -0.016 C 
HETATM    8  C11 UNL     1      31.635   8.301  49.211  1.00  0.00     0.030 C 
HETATM    9  C12 UNL     1      31.359   8.832  47.893  1.00  0.00     0.040 A 
HETATM   10  C13 UNL     1      30.254   9.696  47.894  1.00  0.00     0.138 A 
HETATM   11  N1  UNL     1      29.904  10.233  46.721  1.00  0.00    -0.224 NA
HETATM   12  C14 UNL     1      30.598   9.942  45.580  1.00  0.00     0.236 A 
HETATM   13  N2  UNL     1      31.644   9.099  45.622  1.00  0.00    -0.241 NA
HETATM   14  C15 UNL     1      32.066   8.511  46.736  1.00  0.00     0.079 A 
HETATM   15  N3  UNL     1      29.219  10.076  48.813  1.00  0.00    -0.367 N 
HETATM   16  C16 UNL     1      28.692   8.751  49.264  1.00  0.00     0.110 C 
HETATM   17  C18 UNL     1      28.636   7.817  48.140  1.00  0.00     0.061 C 
HETATM   18  H15 UNL     1      29.040  11.079  48.982  1.00  0.00     0.161 HD
ENDROOT
BRANCH   1  19
HETATM   19  C3  UNL     1      27.058   5.803  48.617  1.00  0.00     0.033 C 
BRANCH  19  20
HETATM   20  C2  UNL     1      27.021   4.380  49.049  1.00  0.00    -0.000 C 
HETATM   21  C1  UNL     1      25.819   3.990  49.857  1.00  0.00     0.005 C 
ENDBRANCH  19  20
ENDBRANCH   1  19
BRANCH  16  22
HETATM   22  C17 UNL     1      27.361   9.112  49.888  1.00  0.00     0.189 C 
BRANCH  22  23
HETATM   23  O1  UNL     1      27.671   9.506  51.210  1.00  0.00    -0.399 OA
HETATM   24  H19 UNL     1      27.690   8.656  51.716  1.00  0.00     0.209 HD
ENDBRANCH  22  23
ENDBRANCH  16  22
TORSDOF 4
ENDMDL
MODEL 5
REMARK VINA RESULT:      -7.0      4.655      6.809
REMARK  4 active torsions:
REMARK  status: ('A' for Active; 'I' for Inactive)
REMARK    1  A    between atoms: C2_2  and  C3_3 
REMARK    2  A    between atoms: C3_3  and  C4_4 
REMARK    3  A    between atoms: C16_19  and  C17_20 
REMARK    4  A    between atoms: C17_20  and  O1_21 
ROOT
HETATM    1  C4  UNL     1      26.378   4.381  49.360  1.00  0.00    -0.081 C 
HETATM    2  C5  UNL     1      27.604   4.649  48.825  1.00  0.00    -0.018 C 
HETATM    3  C6  UNL     1      28.712   5.411  48.178  1.00  0.00     0.021 C 
HETATM    4  C7  UNL     1      29.088   6.612  47.693  1.00  0.00     0.003 C 
HETATM    5  C8  UNL     1      29.027   8.105  47.304  1.00  0.00     0.047 C 
HETATM    6  C9  UNL     1      27.733   8.624  47.815  1.00  0.00    -0.017 C 
HETATM    7  C10 UNL     1      27.525   9.228  48.996  1.00  0.00    -0.016 C 
HETATM    8  C11 UNL     1      26.792   8.248  49.678  1.00  0.00     0.030 C 
HETATM    9  C12 UNL     1      25.992   8.157  48.476  1.00  0.00     0.040 A 
HETATM   10  C13 UNL     1      24.675   7.759  48.749  1.00  0.00     0.138 A 
HETATM   11  N1  UNL     1      23.851   7.631  47.704  1.00  0.00    -0.224 NA
HETATM   12  C14 UNL     1      24.288   7.876  46.432  1.00  0.00     0.236 A 
HETATM   13  N2  UNL     1      25.562   8.244  46.214  1.00  0.00    -0.241 NA
HETATM   14  C15 UNL     1      26.457   8.394  47.184  1.00  0.00     0.079 A 
HETATM   15  N3  UNL     1      23.941   7.260  49.877  1.00  0.00    -0.367 N 
HETATM   16  C16 UNL     1      24.806   6.133  50.346  1.00  0.00     0.110 C 
HETATM   17  C18 UNL     1      25.355   5.405  49.202  1.00  0.00     0.061 C 
HETATM   18  H15 UNL     1      23.050   7.713  50.138  1.00  0.00     0.161 HD
ENDROOT
BRANCH   1  19
HETATM   19  C3  UNL     1      26.205   3.036  49.865  1.00  0.00     0.033 C 
BRANCH  19  20
HETATM   20  C2  UNL     1      26.679   2.729  51.242  1.00  0.00    -0.000 C 
HETATM   21  C1  UNL     1      26.552   1.292  51.654  1.00  0.00     0.005 C 
ENDBRANCH  19  20
ENDBRANCH   1  19
BRANCH  16  22
HETATM   22  C17 UNL     1      23.876   5.345  51.244  1.00  0.00     0.189 C 
BRANCH  22  23
HETATM   23  O1  UNL     1      24.064   5.890  52.534  1.00  0.00    -0.399 OA
HETATM   24  H19 UNL     1      24.613   5.214  53.004  1.00  0.00     0.209 HD
ENDBRANCH  22  23
ENDBRANCH  16  22
TORSDOF 4
ENDMDL
MODEL 6
REMARK VINA RESULT:      -6.9      3.220      5.734
REMARK  4 active torsions:
REMARK  status: ('A' for Active; 'I' for Inactive)
REMARK    1  A    between atoms: C2_2  and  C3_3 
REMARK    2  A    between atoms: C3_3  and  C4_4 
REMARK    3  A    between atoms: C16_19  and  C17_20 
REMARK    4  A    between atoms: C17_20  and  O1_21 
ROOT
HETATM    1  C4  UNL     1      23.669   4.914  48.954  1.00  0.00    -0.081 C 
HETATM    2  C5  UNL     1      23.153   3.850  48.274  1.00  0.00    -0.018 C 
HETATM    3  C6  UNL     1      22.477   2.541  48.026  1.00  0.00     0.021 C 
HETATM    4  C7  UNL     1      21.851   1.497  48.605  1.00  0.00     0.003 C 
HETATM    5  C8  UNL     1      21.237   0.596  49.698  1.00  0.00     0.047 C 
HETATM    6  C9  UNL     1      21.343   1.346  50.975  1.00  0.00    -0.017 C 
HETATM    7  C10 UNL     1      20.403   2.138  51.516  1.00  0.00    -0.016 C 
HETATM    8  C11 UNL     1      20.979   3.403  51.342  1.00  0.00     0.030 C 
HETATM    9  C12 UNL     1      22.186   2.814  51.883  1.00  0.00     0.040 A 
HETATM   10  C13 UNL     1      22.984   3.759  52.542  1.00  0.00     0.138 A 
HETATM   11  N1  UNL     1      24.132   3.322  53.069  1.00  0.00    -0.224 NA
HETATM   12  C14 UNL     1      24.501   2.010  52.958  1.00  0.00     0.236 A 
HETATM   13  N2  UNL     1      23.711   1.140  52.306  1.00  0.00    -0.241 NA
HETATM   14  C15 UNL     1      22.555   1.477  51.745  1.00  0.00     0.079 A 
HETATM   15  N3  UNL     1      23.013   5.186  52.694  1.00  0.00    -0.367 N 
HETATM   16  C16 UNL     1      22.922   5.658  51.278  1.00  0.00     0.110 C 
HETATM   17  C18 UNL     1      23.724   4.802  50.404  1.00  0.00     0.061 C 
HETATM   18  H15 UNL     1      23.083   5.591  53.642  1.00  0.00     0.161 HD
ENDROOT
BRANCH   1  19
HETATM   19  C3  UNL     1      24.256   5.948  48.129  1.00  0.00     0.033 C 
BRANCH  19  20
HETATM   20  C2  UNL     1      25.546   6.551  48.559  1.00  0.00    -0.000 C 
HETATM   21  C1  UNL     1      26.705   5.600  48.623  1.00  0.00     0.005 C 
ENDBRANCH  19  20
ENDBRANCH   1  19
BRANCH  16  22
HETATM   22  C17 UNL     1      23.366   7.102  51.374  1.00  0.00     0.189 C 
BRANCH  22  23
HETATM   23  O1  UNL     1      24.596   7.062  52.068  1.00  0.00    -0.399 OA
HETATM   24  H19 UNL     1      25.276   7.008  51.352  1.00  0.00     0.209 HD
ENDBRANCH  22  23
ENDBRANCH  16  22
TORSDOF 4
ENDMDL
MODEL 7
REMARK VINA RESULT:      -6.9      8.857     11.443
REMARK  4 active torsions:
REMARK  status: ('A' for Active; 'I' for Inactive)
REMARK    1  A    between atoms: C2_2  and  C3_3 
REMARK    2  A    between atoms: C3_3  and  C4_4 
REMARK    3  A    between atoms: C16_19  and  C17_20 
REMARK    4  A    between atoms: C17_20  and  O1_21 
ROOT
HETATM    1  C4  UNL     1      29.767   6.378  47.908  1.00  0.00    -0.081 C 
HETATM    2  C5  UNL     1      30.418   5.201  47.676  1.00  0.00    -0.018 C 
HETATM    3  C6  UNL     1      31.527   4.256  47.349  1.00  0.00     0.021 C 
HETATM    4  C7  UNL     1      32.839   4.155  47.056  1.00  0.00     0.003 C 
HETATM    5  C8  UNL     1      34.302   4.565  46.784  1.00  0.00     0.047 C 
HETATM    6  C9  UNL     1      34.388   6.025  47.040  1.00  0.00    -0.017 C 
HETATM    7  C10 UNL     1      34.748   6.614  48.191  1.00  0.00    -0.016 C 
HETATM    8  C11 UNL     1      33.526   7.151  48.617  1.00  0.00     0.030 C 
HETATM    9  C12 UNL     1      33.394   7.653  47.266  1.00  0.00     0.040 A 
HETATM   10  C13 UNL     1      32.630   8.828  47.213  1.00  0.00     0.138 A 
HETATM   11  N1  UNL     1      32.435   9.370  46.006  1.00  0.00    -0.224 NA
HETATM   12  C14 UNL     1      32.959   8.791  44.883  1.00  0.00     0.236 A 
HETATM   13  N2  UNL     1      33.674   7.658  44.979  1.00  0.00    -0.241 NA
HETATM   14  C15 UNL     1      33.919   7.041  46.129  1.00  0.00     0.079 A 
HETATM   15  N3  UNL     1      31.807   9.587  48.110  1.00  0.00    -0.367 N 
HETATM   16  C16 UNL     1      30.893   8.540  48.664  1.00  0.00     0.110 C 
HETATM   17  C18 UNL     1      30.499   7.602  47.614  1.00  0.00     0.061 C 
HETATM   18  H15 UNL     1      31.969  10.602  48.206  1.00  0.00     0.161 HD
ENDROOT
BRANCH   1  19
HETATM   19  C3  UNL     1      28.368   6.252  48.254  1.00  0.00     0.033 C 
BRANCH  19  20
HETATM   20  C2  UNL     1      27.847   4.908  48.623  1.00  0.00    -0.000 C 
HETATM   21  C1  UNL     1      26.424   4.884  49.098  1.00  0.00     0.005 C 
ENDBRANCH  19  20
ENDBRANCH   1  19
BRANCH  16  22
HETATM   22  C17 UNL     1      29.773   9.358  49.272  1.00  0.00     0.189 C 
BRANCH  22  23
HETATM   23  O1  UNL     1      30.369  10.050  50.351  1.00  0.00    -0.399 OA
HETATM   24  H19 UNL     1      30.759  10.857  49.933  1.00  0.00     0.209 HD
ENDBRANCH  22  23
ENDBRANCH  16  22
TORSDOF 4
ENDMDL
MODEL 8
REMARK VINA RESULT:      -6.7      4.087      6.663
REMARK  4 active torsions:
REMARK  status: ('A' for Active; 'I' for Inactive)
REMARK    1  A    between atoms: C2_2  and  C3_3 
REMARK    2  A    between atoms: C3_3  and  C4_4 
REMARK    3  A    between atoms: C16_19  and  C17_20 
REMARK    4  A    between atoms: C17_20  and  O1_21 
ROOT
HETATM    1  C4  UNL     1      18.696  -0.412  52.565  1.00  0.00    -0.081 C 
HETATM    2  C5  UNL     1      19.866  -0.546  53.255  1.00  0.00    -0.018 C 
HETATM    3  C6  UNL     1      21.272  -0.292  53.688  1.00  0.00     0.021 C 
HETATM    4  C7  UNL     1      22.357   0.487  53.508  1.00  0.00     0.003 C 
HETATM    5  C8  UNL     1      23.266   1.606  52.955  1.00  0.00     0.047 C 
HETATM    6  C9  UNL     1      22.428   2.419  52.038  1.00  0.00    -0.017 C 
HETATM    7  C10 UNL     1      21.750   3.533  52.354  1.00  0.00    -0.016 C 
HETATM    8  C11 UNL     1      20.428   3.074  52.295  1.00  0.00     0.030 C 
HETATM    9  C12 UNL     1      20.798   2.486  51.025  1.00  0.00     0.040 A 
HETATM   10  C13 UNL     1      19.706   2.388  50.152  1.00  0.00     0.138 A 
HETATM   11  N1  UNL     1      19.936   1.845  48.952  1.00  0.00    -0.224 NA
HETATM   12  C14 UNL     1      21.184   1.405  48.608  1.00  0.00     0.236 A 
HETATM   13  N2  UNL     1      22.201   1.508  49.481  1.00  0.00    -0.241 NA
HETATM   14  C15 UNL     1      22.072   2.027  50.697  1.00  0.00     0.079 A 
HETATM   15  N3  UNL     1      18.283   2.563  50.225  1.00  0.00    -0.367 N 
HETATM   16  C16 UNL     1      17.921   1.730  51.414  1.00  0.00     0.110 C 
HETATM   17  C18 UNL     1      18.705   0.495  51.427  1.00  0.00     0.061 C 
HETATM   18  H15 UNL     1      17.813   3.162  49.527  1.00  0.00     0.161 HD
ENDROOT
BRANCH   1  19
HETATM   19  C3  UNL     1      17.642  -1.325  52.954  1.00  0.00     0.033 C 
BRANCH  19  20
HETATM   20  C2  UNL     1      18.005  -2.530  53.746  1.00  0.00    -0.000 C 
HETATM   21  C1  UNL     1      17.113  -3.720  53.542  1.00  0.00     0.005 C 
ENDBRANCH  19  20
ENDBRANCH   1  19
BRANCH  16  22
HETATM   22  C17 UNL     1      16.425   1.559  51.263  1.00  0.00     0.189 C 
BRANCH  22  23
HETATM   23  O1  UNL     1      15.866   2.743  51.796  1.00  0.00    -0.399 OA
HETATM   24  H19 UNL     1      14.890   2.584  51.766  1.00  0.00     0.209 HD
ENDBRANCH  22  23
ENDBRANCH  16  22
TORSDOF 4
ENDMDL
MODEL 9
REMARK VINA RESULT:      -6.6      8.980     10.763
REMARK  4 active torsions:
REMARK  status: ('A' for Active; 'I' for Inactive)
REMARK    1  A    between atoms: C2_2  and  C3_3 
REMARK    2  A    between atoms: C3_3  and  C4_4 
REMARK    3  A    between atoms: C16_19  and  C17_20 
REMARK    4  A    between atoms: C17_20  and  O1_21 
ROOT
HETATM    1  C4  UNL     1      33.296   7.703  47.523  1.00  0.00    -0.081 C 
HETATM    2  C5  UNL     1      33.516   9.003  47.172  1.00  0.00    -0.018 C 
HETATM    3  C6  UNL     1      33.243  10.447  46.911  1.00  0.00     0.021 C 
HETATM    4  C7  UNL     1      32.309  11.418  46.953  1.00  0.00     0.003 C 
HETATM    5  C8  UNL     1      30.954  12.121  47.188  1.00  0.00     0.047 C 
HETATM    6  C9  UNL     1      30.062  11.120  47.827  1.00  0.00    -0.017 C 
HETATM    7  C10 UNL     1      29.867  10.952  49.144  1.00  0.00    -0.016 C 
HETATM    8  C11 UNL     1      30.512   9.727  49.361  1.00  0.00     0.030 C 
HETATM    9  C12 UNL     1      29.786   9.257  48.201  1.00  0.00     0.040 A 
HETATM   10  C13 UNL     1      29.539   7.878  48.257  1.00  0.00     0.138 A 
HETATM   11  N1  UNL     1      28.884   7.336  47.225  1.00  0.00    -0.224 NA
HETATM   12  C14 UNL     1      28.484   8.104  46.167  1.00  0.00     0.236 A 
HETATM   13  N2  UNL     1      28.753   9.421  46.148  1.00  0.00    -0.241 NA
HETATM   14  C15 UNL     1      29.401  10.050  47.122  1.00  0.00     0.079 A 
HETATM   15  N3  UNL     1      29.946   6.770  49.074  1.00  0.00    -0.367 N 
HETATM   16  C16 UNL     1      31.436   6.911  49.080  1.00  0.00     0.110 C 
HETATM   17  C18 UNL     1      31.913   7.311  47.757  1.00  0.00     0.061 C 
HETATM   18  H15 UNL     1      29.226   6.144  49.469  1.00  0.00     0.161 HD
ENDROOT
BRANCH   1  19
HETATM   19  C3  UNL     1      34.454   6.839  47.448  1.00  0.00     0.033 C 
BRANCH  19  20
HETATM   20  C2  UNL     1      35.421   6.848  48.579  1.00  0.00    -0.000 C 
HETATM   21  C1  UNL     1      35.577   5.539  49.295  1.00  0.00     0.005 C 
ENDBRANCH  19  20
ENDBRANCH   1  19
BRANCH  16  22
HETATM   22  C17 UNL     1      31.900   5.554  49.566  1.00  0.00     0.189 C 
BRANCH  22  23
HETATM   23  O1  UNL     1      31.432   5.462  50.897  1.00  0.00    -0.399 OA
HETATM   24  H19 UNL     1      32.030   6.064  51.405  1.00  0.00     0.209 HD
ENDBRANCH  22  23
ENDBRANCH  16  22
TORSDOF 4
ENDMDL
