MODEL 1
REMARK VINA RESULT:      -7.2      0.000      0.000
REMARK  9 active torsions:
REMARK  status: ('A' for Active; 'I' for Inactive)
REMARK    1  A    between atoms: C4_5  and  N1_6 
REMARK    2  A    between atoms: N1_6  and  C5_7 
REMARK    3  A    between atoms: C7_9  and  C8_10 
REMARK    4  A    between atoms: C8_10  and  N2_11 
REMARK    5  A    between atoms: N2_11  and  C9_12 
REMARK    6  A    between atoms: C9_12  and  N3_14 
REMARK    7  A    between atoms: N3_14  and  C10_15 
REMARK    8  A    between atoms: C10_15  and  C11_16 
REMARK    9  A    between atoms: C11_16  and  N4_17 
ROOT
HETATM    1  C5  UNL     1      23.930  -0.143  53.496  1.00  0.00     0.131 A 
HETATM    2  C6  UNL     1      22.626   0.220  53.261  1.00  0.00     0.079 A 
HETATM    3  C7  UNL     1      21.706  -0.265  54.156  1.00  0.00     0.057 A 
HETATM    4  N5  UNL     1      22.055  -1.058  55.213  1.00  0.00    -0.245 NA
HETATM    5  C16 UNL     1      23.332  -1.398  55.419  1.00  0.00     0.235 A 
HETATM    6  N6  UNL     1      24.232  -0.925  54.545  1.00  0.00    -0.224 NA
ENDROOT
BRANCH   3   7
HETATM    7  C8  UNL     1      20.247   0.015  54.094  1.00  0.00     0.181 C 
BRANCH   7   8
HETATM    8  N2  UNL     1      19.641  -0.402  52.863  1.00  0.00    -0.362 N 
HETATM    9  H7  UNL     1      19.342  -1.155  52.238  1.00  0.00     0.162 HD
BRANCH   8  10
HETATM   10  C9  UNL     1      19.287   0.813  52.204  1.00  0.00     0.167 C 
HETATM   11  S1  UNL     1      17.984   1.125  51.276  1.00  0.00    -0.041 SA
BRANCH  10  12
HETATM   12  N3  UNL     1      19.652   2.141  51.948  1.00  0.00    -0.366 N 
HETATM   13  H8  UNL     1      18.632   2.314  51.713  1.00  0.00     0.161 HD
BRANCH  12  14
HETATM   14  C10 UNL     1      20.279   3.443  51.746  1.00  0.00     0.152 C 
BRANCH  14  15
HETATM   15  C11 UNL     1      21.640   3.270  51.156  1.00  0.00     0.292 C 
BRANCH  15  16
HETATM   16  N4  UNL     1      22.386   4.494  51.138  1.00  0.00     0.094 N 
HETATM   17  C12 UNL     1      23.397   4.540  50.118  1.00  0.00     0.298 C 
HETATM   18  C13 UNL     1      24.759   4.131  50.712  1.00  0.00     0.198 C 
HETATM   19  O1  UNL     1      24.595   3.179  51.721  1.00  0.00    -0.388 OA
HETATM   20  C14 UNL     1      23.947   3.694  52.843  1.00  0.00     0.198 C 
HETATM   21  C15 UNL     1      22.945   4.766  52.453  1.00  0.00     0.298 C 
ENDBRANCH  15  16
ENDBRANCH  14  15
ENDBRANCH  12  14
ENDBRANCH  10  12
ENDBRANCH   8  10
ENDBRANCH   7   8
ENDBRANCH   3   7
BRANCH   1  22
HETATM   22  N1  UNL     1      25.004   0.277  52.637  1.00  0.00    -0.341 N 
HETATM   23  H3  UNL     1      24.754   0.840  51.783  1.00  0.00     0.167 HD
BRANCH  22  24
HETATM   24  C4  UNL     1      26.367  -0.063  52.941  1.00  0.00     0.035 A 
HETATM   25  C3  UNL     1      26.979  -1.263  52.728  1.00  0.00     0.032 A 
HETATM   26  C2  UNL     1      28.317  -1.450  53.051  1.00  0.00     0.046 A 
HETATM   27  C1  UNL     1      29.074  -0.438  53.597  1.00  0.00     0.138 A 
HETATM   28  F1  UNL     1      30.382  -0.669  53.898  1.00  0.00    -0.204 F 
HETATM   29  C18 UNL     1      28.448   0.779  53.811  1.00  0.00     0.074 A 
HETATM   30  C17 UNL     1      27.109   0.953  53.483  1.00  0.00     0.056 A 
HETATM   31 CL1  UNL     1      29.508   2.006  54.516  1.00  0.00    -0.081 Cl
ENDBRANCH  22  24
ENDBRANCH   1  22
TORSDOF 9
ENDMDL
MODEL 2
REMARK VINA RESULT:      -7.1      5.481      7.770
REMARK  9 active torsions:
REMARK  status: ('A' for Active; 'I' for Inactive)
REMARK    1  A    between atoms: C4_5  and  N1_6 
REMARK    2  A    between atoms: N1_6  and  C5_7 
REMARK    3  A    between atoms: C7_9  and  C8_10 
REMARK    4  A    between atoms: C8_10  and  N2_11 
REMARK    5  A    between atoms: N2_11  and  C9_12 
REMARK    6  A    between atoms: C9_12  and  N3_14 
REMARK    7  A    between atoms: N3_14  and  C10_15 
REMARK    8  A    between atoms: C10_15  and  C11_16 
REMARK    9  A    between atoms: C11_16  and  N4_17 
ROOT
HETATM    1  C5  UNL     1      25.810   3.436  50.519  1.00  0.00     0.131 A 
HETATM    2  C6  UNL     1      25.122   4.617  50.651  1.00  0.00     0.079 A 
HETATM    3  C7  UNL     1      25.567   5.652  49.866  1.00  0.00     0.057 A 
HETATM    4  N5  UNL     1      26.624   5.523  49.009  1.00  0.00    -0.245 NA
HETATM    5  C16 UNL     1      27.277   4.362  48.901  1.00  0.00     0.235 A 
HETATM    6  N6  UNL     1      26.844   3.350  49.666  1.00  0.00    -0.224 NA
ENDROOT
BRANCH   3   7
HETATM    7  C8  UNL     1      24.960   7.009  49.845  1.00  0.00     0.181 C 
BRANCH   7   8
HETATM    8  N2  UNL     1      25.542   7.906  50.800  1.00  0.00    -0.362 N 
HETATM    9  H7  UNL     1      25.605   8.253  51.762  1.00  0.00     0.162 HD
BRANCH   8  10
HETATM   10  C9  UNL     1      26.482   8.674  50.050  1.00  0.00     0.167 C 
HETATM   11  S1  UNL     1      26.195   9.827  48.936  1.00  0.00    -0.041 SA
BRANCH  10  12
HETATM   12  N3  UNL     1      27.838   8.917  49.795  1.00  0.00    -0.366 N 
HETATM   13  H8  UNL     1      27.868   9.399  50.740  1.00  0.00     0.161 HD
BRANCH  12  14
HETATM   14  C10 UNL     1      29.205   9.043  49.298  1.00  0.00     0.152 C 
BRANCH  14  15
HETATM   15  C11 UNL     1      29.660   7.746  48.716  1.00  0.00     0.292 C 
BRANCH  15  16
HETATM   16  N4  UNL     1      31.011   7.806  48.242  1.00  0.00     0.094 N 
HETATM   17  C12 UNL     1      31.242   7.036  47.051  1.00  0.00     0.298 C 
HETATM   18  C13 UNL     1      31.807   5.651  47.425  1.00  0.00     0.198 C 
HETATM   19  O1  UNL     1      31.289   5.216  48.647  1.00  0.00    -0.388 OA
HETATM   20  C14 UNL     1      31.725   5.992  49.721  1.00  0.00     0.198 C 
HETATM   21  C15 UNL     1      31.937   7.435  49.302  1.00  0.00     0.298 C 
ENDBRANCH  15  16
ENDBRANCH  14  15
ENDBRANCH  12  14
ENDBRANCH  10  12
ENDBRANCH   8  10
ENDBRANCH   7   8
ENDBRANCH   3   7
BRANCH   1  22
HETATM   22  N1  UNL     1      25.470   2.266  51.284  1.00  0.00    -0.341 N 
HETATM   23  H3  UNL     1      24.462   1.963  51.287  1.00  0.00     0.167 HD
BRANCH  22  24
HETATM   24  C4  UNL     1      26.475   1.545  52.014  1.00  0.00     0.035 A 
HETATM   25  C3  UNL     1      27.486   2.075  52.760  1.00  0.00     0.032 A 
HETATM   26  C2  UNL     1      28.381   1.256  53.436  1.00  0.00     0.046 A 
HETATM   27  C1  UNL     1      28.285  -0.116  53.380  1.00  0.00     0.138 A 
HETATM   28  F1  UNL     1      29.186  -0.878  54.059  1.00  0.00    -0.204 F 
HETATM   29  C18 UNL     1      27.256  -0.650  52.621  1.00  0.00     0.074 A 
HETATM   30  C17 UNL     1      26.367   0.180  51.950  1.00  0.00     0.056 A 
HETATM   31 CL1  UNL     1      27.226  -2.418  52.615  1.00  0.00    -0.081 Cl
ENDBRANCH  22  24
ENDBRANCH   1  22
TORSDOF 9
ENDMDL
MODEL 3
REMARK VINA RESULT:      -7.1      2.256      4.665
REMARK  9 active torsions:
REMARK  status: ('A' for Active; 'I' for Inactive)
REMARK    1  A    between atoms: C4_5  and  N1_6 
REMARK    2  A    between atoms: N1_6  and  C5_7 
REMARK    3  A    between atoms: C7_9  and  C8_10 
REMARK    4  A    between atoms: C8_10  and  N2_11 
REMARK    5  A    between atoms: N2_11  and  C9_12 
REMARK    6  A    between atoms: C9_12  and  N3_14 
REMARK    7  A    between atoms: N3_14  and  C10_15 
REMARK    8  A    between atoms: C10_15  and  C11_16 
REMARK    9  A    between atoms: C11_16  and  N4_17 
ROOT
HETATM    1  C5  UNL     1      25.837   2.949  51.794  1.00  0.00     0.131 A 
HETATM    2  C6  UNL     1      24.566   3.392  51.524  1.00  0.00     0.079 A 
HETATM    3  C7  UNL     1      24.349   3.823  50.239  1.00  0.00     0.057 A 
HETATM    4  N5  UNL     1      25.329   3.816  49.286  1.00  0.00    -0.245 NA
HETATM    5  C16 UNL     1      26.560   3.381  49.576  1.00  0.00     0.235 A 
HETATM    6  N6  UNL     1      26.773   2.959  50.831  1.00  0.00    -0.224 NA
ENDROOT
BRANCH   3   7
HETATM    7  C8  UNL     1      23.046   4.330  49.732  1.00  0.00     0.181 C 
BRANCH   7   8
HETATM    8  N2  UNL     1      22.169   4.778  50.774  1.00  0.00    -0.362 N 
HETATM    9  H7  UNL     1      21.962   5.435  51.531  1.00  0.00     0.162 HD
BRANCH   8  10
HETATM   10  C9  UNL     1      21.059   3.883  50.723  1.00  0.00     0.167 C 
HETATM   11  S1  UNL     1      19.561   4.150  50.142  1.00  0.00    -0.041 SA
BRANCH  10  12
HETATM   12  N3  UNL     1      20.595   2.596  51.026  1.00  0.00    -0.366 N 
HETATM   13  H8  UNL     1      20.405   2.960  52.005  1.00  0.00     0.161 HD
BRANCH  12  14
HETATM   14  C10 UNL     1      20.174   1.200  51.087  1.00  0.00     0.152 C 
BRANCH  14  15
HETATM   15  C11 UNL     1      21.272   0.359  51.652  1.00  0.00     0.292 C 
BRANCH  15  16
HETATM   16  N4  UNL     1      21.727   0.840  52.924  1.00  0.00     0.094 N 
HETATM   17  C12 UNL     1      23.087   0.486  53.223  1.00  0.00     0.298 C 
HETATM   18  C13 UNL     1      23.116  -0.788  54.091  1.00  0.00     0.198 C 
HETATM   19  O1  UNL     1      22.056  -1.636  53.764  1.00  0.00    -0.388 OA
HETATM   20  C14 UNL     1      20.815  -1.098  54.105  1.00  0.00     0.198 C 
HETATM   21  C15 UNL     1      20.821   0.414  53.980  1.00  0.00     0.298 C 
ENDBRANCH  15  16
ENDBRANCH  14  15
ENDBRANCH  12  14
ENDBRANCH  10  12
ENDBRANCH   8  10
ENDBRANCH   7   8
ENDBRANCH   3   7
BRANCH   1  22
HETATM   22  N1  UNL     1      26.219   2.479  53.099  1.00  0.00    -0.341 N 
HETATM   23  H3  UNL     1      25.715   2.884  53.929  1.00  0.00     0.167 HD
BRANCH  22  24
HETATM   24  C4  UNL     1      27.253   1.493  53.254  1.00  0.00     0.035 A 
HETATM   25  C3  UNL     1      28.523   1.701  53.705  1.00  0.00     0.032 A 
HETATM   26  C2  UNL     1      29.419   0.647  53.826  1.00  0.00     0.046 A 
HETATM   27  C1  UNL     1      29.064  -0.642  53.497  1.00  0.00     0.138 A 
HETATM   28  F1  UNL     1      29.978  -1.642  53.633  1.00  0.00    -0.204 F 
HETATM   29  C18 UNL     1      27.773  -0.848  53.039  1.00  0.00     0.074 A 
HETATM   30  C17 UNL     1      26.885   0.215  52.923  1.00  0.00     0.056 A 
HETATM   31 CL1  UNL     1      27.423  -2.535  52.644  1.00  0.00    -0.081 Cl
ENDBRANCH  22  24
ENDBRANCH   1  22
TORSDOF 9
ENDMDL
MODEL 4
REMARK VINA RESULT:      -7.1      3.711      6.557
REMARK  9 active torsions:
REMARK  status: ('A' for Active; 'I' for Inactive)
REMARK    1  A    between atoms: C4_5  and  N1_6 
REMARK    2  A    between atoms: N1_6  and  C5_7 
REMARK    3  A    between atoms: C7_9  and  C8_10 
REMARK    4  A    between atoms: C8_10  and  N2_11 
REMARK    5  A    between atoms: N2_11  and  C9_12 
REMARK    6  A    between atoms: C9_12  and  N3_14 
REMARK    7  A    between atoms: N3_14  and  C10_15 
REMARK    8  A    between atoms: C10_15  and  C11_16 
REMARK    9  A    between atoms: C11_16  and  N4_17 
ROOT
HETATM    1  C5  UNL     1      24.035   4.433  50.374  1.00  0.00     0.131 A 
HETATM    2  C6  UNL     1      23.843   3.073  50.356  1.00  0.00     0.079 A 
HETATM    3  C7  UNL     1      23.538   2.502  51.566  1.00  0.00     0.057 A 
HETATM    4  N5  UNL     1      23.432   3.231  52.718  1.00  0.00    -0.245 NA
HETATM    5  C16 UNL     1      23.626   4.554  52.708  1.00  0.00     0.235 A 
HETATM    6  N6  UNL     1      23.923   5.114  51.526  1.00  0.00    -0.224 NA
ENDROOT
BRANCH   3   7
HETATM    7  C8  UNL     1      23.281   1.051  51.768  1.00  0.00     0.181 C 
BRANCH   7   8
HETATM    8  N2  UNL     1      22.208   0.788  52.682  1.00  0.00    -0.362 N 
HETATM    9  H7  UNL     1      21.236   0.938  52.969  1.00  0.00     0.162 HD
BRANCH   8  10
HETATM   10  C9  UNL     1      22.760  -0.114  53.639  1.00  0.00     0.167 C 
HETATM   11  S1  UNL     1      22.029  -1.341  54.423  1.00  0.00    -0.041 SA
BRANCH  10  12
HETATM   12  N3  UNL     1      23.906  -0.480  54.359  1.00  0.00    -0.366 N 
HETATM   13  H8  UNL     1      23.426  -0.071  55.213  1.00  0.00     0.161 HD
BRANCH  12  14
HETATM   14  C10 UNL     1      25.187  -0.951  54.874  1.00  0.00     0.152 C 
BRANCH  14  15
HETATM   15  C11 UNL     1      26.193   0.151  54.831  1.00  0.00     0.292 C 
BRANCH  15  16
HETATM   16  N4  UNL     1      27.288  -0.144  53.954  1.00  0.00     0.094 N 
HETATM   17  C12 UNL     1      28.579   0.051  54.555  1.00  0.00     0.298 C 
HETATM   18  C13 UNL     1      29.121   1.447  54.186  1.00  0.00     0.198 C 
HETATM   19  O1  UNL     1      28.079   2.368  54.062  1.00  0.00    -0.388 OA
HETATM   20  C14 UNL     1      27.250   2.096  52.973  1.00  0.00     0.198 C 
HETATM   21  C15 UNL     1      27.161   0.604  52.713  1.00  0.00     0.298 C 
ENDBRANCH  15  16
ENDBRANCH  14  15
ENDBRANCH  12  14
ENDBRANCH  10  12
ENDBRANCH   8  10
ENDBRANCH   7   8
ENDBRANCH   3   7
BRANCH   1  22
HETATM   22  N1  UNL     1      24.372   5.171  49.187  1.00  0.00    -0.341 N 
HETATM   23  H3  UNL     1      23.580   5.488  48.569  1.00  0.00     0.167 HD
BRANCH  22  24
HETATM   24  C4  UNL     1      25.741   5.460  48.862  1.00  0.00     0.035 A 
HETATM   25  C3  UNL     1      26.806   4.614  48.970  1.00  0.00     0.032 A 
HETATM   26  C2  UNL     1      28.081   5.020  48.598  1.00  0.00     0.046 A 
HETATM   27  C1  UNL     1      28.321   6.284  48.111  1.00  0.00     0.138 A 
HETATM   28  F1  UNL     1      29.589   6.636  47.760  1.00  0.00    -0.204 F 
HETATM   29  C18 UNL     1      27.237   7.140  48.003  1.00  0.00     0.074 A 
HETATM   30  C17 UNL     1      25.966   6.722  48.377  1.00  0.00     0.056 A 
HETATM   31 CL1  UNL     1      27.656   8.736  47.369  1.00  0.00    -0.081 Cl
ENDBRANCH  22  24
ENDBRANCH   1  22
TORSDOF 9
ENDMDL
MODEL 5
REMARK VINA RESULT:      -7.0      6.296      8.680
REMARK  9 active torsions:
REMARK  status: ('A' for Active; 'I' for Inactive)
REMARK    1  A    between atoms: C4_5  and  N1_6 
REMARK    2  A    between atoms: N1_6  and  C5_7 
REMARK    3  A    between atoms: C7_9  and  C8_10 
REMARK    4  A    between atoms: C8_10  and  N2_11 
REMARK    5  A    between atoms: N2_11  and  C9_12 
REMARK    6  A    between atoms: C9_12  and  N3_14 
REMARK    7  A    between atoms: N3_14  and  C10_15 
REMARK    8  A    between atoms: C10_15  and  C11_16 
REMARK    9  A    between atoms: C11_16  and  N4_17 
ROOT
HETATM    1  C5  UNL     1      25.298   3.015  50.725  1.00  0.00     0.131 A 
HETATM    2  C6  UNL     1      26.513   3.449  50.254  1.00  0.00     0.079 A 
HETATM    3  C7  UNL     1      26.463   4.489  49.359  1.00  0.00     0.057 A 
HETATM    4  N5  UNL     1      25.287   5.058  48.958  1.00  0.00    -0.245 NA
HETATM    5  C16 UNL     1      24.118   4.616  49.431  1.00  0.00     0.235 A 
HETATM    6  N6  UNL     1      24.165   3.600  50.306  1.00  0.00    -0.224 NA
ENDROOT
BRANCH   3   7
HETATM    7  C8  UNL     1      27.659   5.117  48.737  1.00  0.00     0.181 C 
BRANCH   7   8
HETATM    8  N2  UNL     1      27.721   6.536  48.934  1.00  0.00    -0.362 N 
HETATM    9  H7  UNL     1      27.274   7.405  49.239  1.00  0.00     0.162 HD
BRANCH   8  10
HETATM   10  C9  UNL     1      29.030   6.904  48.502  1.00  0.00     0.167 C 
HETATM   11  S1  UNL     1      29.544   7.258  46.997  1.00  0.00    -0.041 SA
BRANCH  10  12
HETATM   12  N3  UNL     1      30.355   7.140  48.893  1.00  0.00    -0.366 N 
HETATM   13  H8  UNL     1      30.328   7.989  48.257  1.00  0.00     0.161 HD
BRANCH  12  14
HETATM   14  C10 UNL     1      31.705   7.165  49.448  1.00  0.00     0.152 C 
BRANCH  14  15
HETATM   15  C11 UNL     1      32.330   5.814  49.332  1.00  0.00     0.292 C 
BRANCH  15  16
HETATM   16  N4  UNL     1      32.664   5.482  47.978  1.00  0.00     0.094 N 
HETATM   17  C12 UNL     1      32.996   4.098  47.786  1.00  0.00     0.298 C 
HETATM   18  C13 UNL     1      34.526   3.915  47.835  1.00  0.00     0.198 C 
HETATM   19  O1  UNL     1      35.107   4.827  48.718  1.00  0.00    -0.388 OA
HETATM   20  C14 UNL     1      35.000   6.146  48.275  1.00  0.00     0.198 C 
HETATM   21  C15 UNL     1      33.720   6.355  47.487  1.00  0.00     0.298 C 
ENDBRANCH  15  16
ENDBRANCH  14  15
ENDBRANCH  12  14
ENDBRANCH  10  12
ENDBRANCH   8  10
ENDBRANCH   7   8
ENDBRANCH   3   7
BRANCH   1  22
HETATM   22  N1  UNL     1      25.187   1.926  51.659  1.00  0.00    -0.341 N 
HETATM   23  H3  UNL     1      24.221   1.571  51.880  1.00  0.00     0.167 HD
BRANCH  22  24
HETATM   24  C4  UNL     1      26.357   1.350  52.262  1.00  0.00     0.035 A 
HETATM   25  C3  UNL     1      27.362   2.015  52.901  1.00  0.00     0.032 A 
HETATM   26  C2  UNL     1      28.431   1.327  53.461  1.00  0.00     0.046 A 
HETATM   27  C1  UNL     1      28.519  -0.044  53.392  1.00  0.00     0.138 A 
HETATM   28  F1  UNL     1      29.587  -0.674  53.956  1.00  0.00    -0.204 F 
HETATM   29  C18 UNL     1      27.497  -0.716  52.742  1.00  0.00     0.074 A 
HETATM   30  C17 UNL     1      26.432  -0.016  52.187  1.00  0.00     0.056 A 
HETATM   31 CL1  UNL     1      27.710  -2.470  52.710  1.00  0.00    -0.081 Cl
ENDBRANCH  22  24
ENDBRANCH   1  22
TORSDOF 9
ENDMDL
MODEL 6
REMARK VINA RESULT:      -6.9      5.468      7.522
REMARK  9 active torsions:
REMARK  status: ('A' for Active; 'I' for Inactive)
REMARK    1  A    between atoms: C4_5  and  N1_6 
REMARK    2  A    between atoms: N1_6  and  C5_7 
REMARK    3  A    between atoms: C7_9  and  C8_10 
REMARK    4  A    between atoms: C8_10  and  N2_11 
REMARK    5  A    between atoms: N2_11  and  C9_12 
REMARK    6  A    between atoms: C9_12  and  N3_14 
REMARK    7  A    between atoms: N3_14  and  C10_15 
REMARK    8  A    between atoms: C10_15  and  C11_16 
REMARK    9  A    between atoms: C11_16  and  N4_17 
ROOT
HETATM    1  C5  UNL     1      24.794   2.894  51.500  1.00  0.00     0.131 A 
HETATM    2  C6  UNL     1      25.338   3.825  50.649  1.00  0.00     0.079 A 
HETATM    3  C7  UNL     1      24.839   5.098  50.769  1.00  0.00     0.057 A 
HETATM    4  N5  UNL     1      23.866   5.425  51.671  1.00  0.00    -0.245 NA
HETATM    5  C16 UNL     1      23.352   4.499  52.487  1.00  0.00     0.235 A 
HETATM    6  N6  UNL     1      23.839   3.255  52.371  1.00  0.00    -0.224 NA
ENDROOT
BRANCH   3   7
HETATM    7  C8  UNL     1      25.295   6.257  49.955  1.00  0.00     0.181 C 
BRANCH   7   8
HETATM    8  N2  UNL     1      25.942   7.275  50.731  1.00  0.00    -0.362 N 
HETATM    9  H7  UNL     1      26.082   7.743  51.631  1.00  0.00     0.162 HD
BRANCH   8  10
HETATM   10  C9  UNL     1      26.795   7.947  49.806  1.00  0.00     0.167 C 
HETATM   11  S1  UNL     1      26.384   8.848  48.512  1.00  0.00    -0.041 SA
BRANCH  10  12
HETATM   12  N3  UNL     1      28.119   8.227  49.445  1.00  0.00    -0.366 N 
HETATM   13  H8  UNL     1      28.375   8.022  50.454  1.00  0.00     0.161 HD
BRANCH  12  14
HETATM   14  C10 UNL     1      29.397   8.563  48.825  1.00  0.00     0.152 C 
BRANCH  14  15
HETATM   15  C11 UNL     1      30.205   7.325  48.614  1.00  0.00     0.292 C 
BRANCH  15  16
HETATM   16  N4  UNL     1      31.399   7.311  49.406  1.00  0.00     0.094 N 
HETATM   17  C12 UNL     1      32.482   8.061  48.833  1.00  0.00     0.298 C 
HETATM   18  C13 UNL     1      33.415   7.117  48.048  1.00  0.00     0.198 C 
HETATM   19  O1  UNL     1      32.691   6.070  47.473  1.00  0.00    -0.388 OA
HETATM   20  C14 UNL     1      32.157   5.202  48.424  1.00  0.00     0.198 C 
HETATM   21  C15 UNL     1      31.797   5.942  49.699  1.00  0.00     0.298 C 
ENDBRANCH  15  16
ENDBRANCH  14  15
ENDBRANCH  12  14
ENDBRANCH  10  12
ENDBRANCH   8  10
ENDBRANCH   7   8
ENDBRANCH   3   7
BRANCH   1  22
HETATM   22  N1  UNL     1      25.206   1.516  51.484  1.00  0.00    -0.341 N 
HETATM   23  H3  UNL     1      24.604   0.834  50.954  1.00  0.00     0.167 HD
BRANCH  22  24
HETATM   24  C4  UNL     1      26.395   1.093  52.170  1.00  0.00     0.035 A 
HETATM   25  C3  UNL     1      27.305   1.890  52.801  1.00  0.00     0.032 A 
HETATM   26  C2  UNL     1      28.406   1.344  53.447  1.00  0.00     0.046 A 
HETATM   27  C1  UNL     1      28.623  -0.014  53.477  1.00  0.00     0.138 A 
HETATM   28  F1  UNL     1      29.718  -0.503  54.123  1.00  0.00    -0.204 F 
HETATM   29  C18 UNL     1      27.696  -0.820  52.836  1.00  0.00     0.074 A 
HETATM   30  C17 UNL     1      26.598  -0.262  52.193  1.00  0.00     0.056 A 
HETATM   31 CL1  UNL     1      28.071  -2.545  52.933  1.00  0.00    -0.081 Cl
ENDBRANCH  22  24
ENDBRANCH   1  22
TORSDOF 9
ENDMDL
MODEL 7
REMARK VINA RESULT:      -6.8      6.587      9.013
REMARK  9 active torsions:
REMARK  status: ('A' for Active; 'I' for Inactive)
REMARK    1  A    between atoms: C4_5  and  N1_6 
REMARK    2  A    between atoms: N1_6  and  C5_7 
REMARK    3  A    between atoms: C7_9  and  C8_10 
REMARK    4  A    between atoms: C8_10  and  N2_11 
REMARK    5  A    between atoms: N2_11  and  C9_12 
REMARK    6  A    between atoms: C9_12  and  N3_14 
REMARK    7  A    between atoms: N3_14  and  C10_15 
REMARK    8  A    between atoms: C10_15  and  C11_16 
REMARK    9  A    between atoms: C11_16  and  N4_17 
ROOT
HETATM    1  C5  UNL     1      24.182   3.675  50.494  1.00  0.00     0.131 A 
HETATM    2  C6  UNL     1      25.210   3.931  49.621  1.00  0.00     0.079 A 
HETATM    3  C7  UNL     1      25.645   5.232  49.584  1.00  0.00     0.057 A 
HETATM    4  N5  UNL     1      25.096   6.214  50.360  1.00  0.00    -0.245 NA
HETATM    5  C16 UNL     1      24.094   5.938  51.201  1.00  0.00     0.235 A 
HETATM    6  N6  UNL     1      23.668   4.667  51.239  1.00  0.00    -0.224 NA
ENDROOT
BRANCH   3   7
HETATM    7  C8  UNL     1      26.752   5.722  48.719  1.00  0.00     0.181 C 
BRANCH   7   8
HETATM    8  N2  UNL     1      27.893   4.853  48.712  1.00  0.00    -0.362 N 
HETATM    9  H7  UNL     1      28.284   3.910  48.790  1.00  0.00     0.162 HD
BRANCH   8  10
HETATM   10  C9  UNL     1      29.004   5.717  48.483  1.00  0.00     0.167 C 
HETATM   11  S1  UNL     1      29.055   7.108  47.636  1.00  0.00    -0.041 SA
BRANCH  10  12
HETATM   12  N3  UNL     1      30.369   5.935  48.715  1.00  0.00    -0.366 N 
HETATM   13  H8  UNL     1      30.088   6.875  49.120  1.00  0.00     0.161 HD
BRANCH  12  14
HETATM   14  C10 UNL     1      31.822   5.921  48.846  1.00  0.00     0.152 C 
BRANCH  14  15
HETATM   15  C11 UNL     1      32.425   5.069  47.779  1.00  0.00     0.292 C 
BRANCH  15  16
HETATM   16  N4  UNL     1      33.737   5.509  47.406  1.00  0.00     0.094 N 
HETATM   17  C12 UNL     1      33.998   5.421  45.995  1.00  0.00     0.298 C 
HETATM   18  C13 UNL     1      34.735   4.103  45.681  1.00  0.00     0.198 C 
HETATM   19  O1  UNL     1      34.327   3.087  46.549  1.00  0.00    -0.388 OA
HETATM   20  C14 UNL     1      34.721   3.317  47.867  1.00  0.00     0.198 C 
HETATM   21  C15 UNL     1      34.747   4.802  48.179  1.00  0.00     0.298 C 
ENDBRANCH  15  16
ENDBRANCH  14  15
ENDBRANCH  12  14
ENDBRANCH  10  12
ENDBRANCH   8  10
ENDBRANCH   7   8
ENDBRANCH   3   7
BRANCH   1  22
HETATM   22  N1  UNL     1      23.611   2.362  50.636  1.00  0.00    -0.341 N 
HETATM   23  H3  UNL     1      22.847   2.089  49.965  1.00  0.00     0.167 HD
BRANCH  22  24
HETATM   24  C4  UNL     1      24.072   1.464  51.658  1.00  0.00     0.035 A 
HETATM   25  C3  UNL     1      25.366   1.150  51.951  1.00  0.00     0.032 A 
HETATM   26  C2  UNL     1      25.672   0.277  52.987  1.00  0.00     0.046 A 
HETATM   27  C1  UNL     1      24.688  -0.304  53.754  1.00  0.00     0.138 A 
HETATM   28  F1  UNL     1      25.038  -1.155  54.758  1.00  0.00    -0.204 F 
HETATM   29  C18 UNL     1      23.375   0.018  53.452  1.00  0.00     0.074 A 
HETATM   30  C17 UNL     1      23.081   0.894  52.414  1.00  0.00     0.056 A 
HETATM   31 CL1  UNL     1      22.193  -0.783  54.495  1.00  0.00    -0.081 Cl
ENDBRANCH  22  24
ENDBRANCH   1  22
TORSDOF 9
ENDMDL
MODEL 8
REMARK VINA RESULT:      -6.7      5.986      8.373
REMARK  9 active torsions:
REMARK  status: ('A' for Active; 'I' for Inactive)
REMARK    1  A    between atoms: C4_5  and  N1_6 
REMARK    2  A    between atoms: N1_6  and  C5_7 
REMARK    3  A    between atoms: C7_9  and  C8_10 
REMARK    4  A    between atoms: C8_10  and  N2_11 
REMARK    5  A    between atoms: N2_11  and  C9_12 
REMARK    6  A    between atoms: C9_12  and  N3_14 
REMARK    7  A    between atoms: N3_14  and  C10_15 
REMARK    8  A    between atoms: C10_15  and  C11_16 
REMARK    9  A    between atoms: C11_16  and  N4_17 
ROOT
HETATM    1  C5  UNL     1      24.941   4.286  50.557  1.00  0.00     0.131 A 
HETATM    2  C6  UNL     1      25.656   5.325  50.012  1.00  0.00     0.079 A 
HETATM    3  C7  UNL     1      25.154   6.579  50.253  1.00  0.00     0.057 A 
HETATM    4  N5  UNL     1      24.018   6.789  50.984  1.00  0.00    -0.245 NA
HETATM    5  C16 UNL     1      23.340   5.760  51.502  1.00  0.00     0.235 A 
HETATM    6  N6  UNL     1      23.829   4.534  51.268  1.00  0.00    -0.224 NA
ENDROOT
BRANCH   3   7
HETATM    7  C8  UNL     1      25.777   7.839  49.768  1.00  0.00     0.181 C 
BRANCH   7   8
HETATM    8  N2  UNL     1      26.764   8.367  50.665  1.00  0.00    -0.362 N 
HETATM    9  H7  UNL     1      27.076   8.553  51.622  1.00  0.00     0.162 HD
BRANCH   8  10
HETATM   10  C9  UNL     1      27.799   8.859  49.816  1.00  0.00     0.167 C 
HETATM   11  S1  UNL     1      27.804   8.999  48.193  1.00  0.00    -0.041 SA
BRANCH  10  12
HETATM   12  N3  UNL     1      29.096   9.385  49.757  1.00  0.00    -0.366 N 
HETATM   13  H8  UNL     1      28.789  10.069  50.508  1.00  0.00     0.161 HD
BRANCH  12  14
HETATM   14  C10 UNL     1      30.488   9.747  49.507  1.00  0.00     0.152 C 
BRANCH  14  15
HETATM   15  C11 UNL     1      31.376   8.575  49.765  1.00  0.00     0.292 C 
BRANCH  15  16
HETATM   16  N4  UNL     1      31.120   7.489  48.864  1.00  0.00     0.094 N 
HETATM   17  C12 UNL     1      31.612   6.222  49.330  1.00  0.00     0.298 C 
HETATM   18  C13 UNL     1      32.998   5.941  48.715  1.00  0.00     0.198 C 
HETATM   19  O1  UNL     1      33.709   7.129  48.530  1.00  0.00    -0.388 OA
HETATM   20  C14 UNL     1      33.137   7.951  47.560  1.00  0.00     0.198 C 
HETATM   21  C15 UNL     1      31.627   7.801  47.537  1.00  0.00     0.298 C 
ENDBRANCH  15  16
ENDBRANCH  14  15
ENDBRANCH  12  14
ENDBRANCH  10  12
ENDBRANCH   8  10
ENDBRANCH   7   8
ENDBRANCH   3   7
BRANCH   1  22
HETATM   22  N1  UNL     1      25.335   2.914  50.380  1.00  0.00    -0.341 N 
HETATM   23  H3  UNL     1      25.319   2.526  49.401  1.00  0.00     0.167 HD
BRANCH  22  24
HETATM   24  C4  UNL     1      25.732   2.111  51.502  1.00  0.00     0.035 A 
HETATM   25  C3  UNL     1      25.052   1.057  52.038  1.00  0.00     0.032 A 
HETATM   26  C2  UNL     1      25.566   0.350  53.117  1.00  0.00     0.046 A 
HETATM   27  C1  UNL     1      26.774   0.682  53.687  1.00  0.00     0.138 A 
HETATM   28  F1  UNL     1      27.236  -0.041  54.744  1.00  0.00    -0.204 F 
HETATM   29  C18 UNL     1      27.462   1.753  53.138  1.00  0.00     0.074 A 
HETATM   30  C17 UNL     1      26.937   2.452  52.058  1.00  0.00     0.056 A 
HETATM   31 CL1  UNL     1      28.998   2.094  53.944  1.00  0.00    -0.081 Cl
ENDBRANCH  22  24
ENDBRANCH   1  22
TORSDOF 9
ENDMDL
MODEL 9
REMARK VINA RESULT:      -6.7      2.687      3.565
REMARK  9 active torsions:
REMARK  status: ('A' for Active; 'I' for Inactive)
REMARK    1  A    between atoms: C4_5  and  N1_6 
REMARK    2  A    between atoms: N1_6  and  C5_7 
REMARK    3  A    between atoms: C7_9  and  C8_10 
REMARK    4  A    between atoms: C8_10  and  N2_11 
REMARK    5  A    between atoms: N2_11  and  C9_12 
REMARK    6  A    between atoms: C9_12  and  N3_14 
REMARK    7  A    between atoms: N3_14  and  C10_15 
REMARK    8  A    between atoms: C10_15  and  C11_16 
REMARK    9  A    between atoms: C11_16  and  N4_17 
ROOT
HETATM    1  C5  UNL     1      23.971  -0.386  53.526  1.00  0.00     0.131 A 
HETATM    2  C6  UNL     1      22.669  -0.644  53.173  1.00  0.00     0.079 A 
HETATM    3  C7  UNL     1      21.914  -1.284  54.124  1.00  0.00     0.057 A 
HETATM    4  N5  UNL     1      22.417  -1.644  55.343  1.00  0.00    -0.245 NA
HETATM    5  C16 UNL     1      23.689  -1.383  55.661  1.00  0.00     0.235 A 
HETATM    6  N6  UNL     1      24.428  -0.757  54.733  1.00  0.00    -0.224 NA
ENDROOT
BRANCH   3   7
HETATM    7  C8  UNL     1      20.481  -1.647  53.953  1.00  0.00     0.181 C 
BRANCH   7   8
HETATM    8  N2  UNL     1      19.603  -0.513  53.970  1.00  0.00    -0.362 N 
HETATM    9  H7  UNL     1      19.358   0.407  54.345  1.00  0.00     0.162 HD
BRANCH   8  10
HETATM   10  C9  UNL     1      18.602  -0.817  53.001  1.00  0.00     0.167 C 
HETATM   11  S1  UNL     1      17.408  -1.922  53.082  1.00  0.00    -0.041 SA
BRANCH  10  12
HETATM   12  N3  UNL     1      18.090  -0.517  51.731  1.00  0.00    -0.366 N 
HETATM   13  H8  UNL     1      17.721  -1.511  51.711  1.00  0.00     0.161 HD
BRANCH  12  14
HETATM   14  C10 UNL     1      17.667   0.036  50.448  1.00  0.00     0.152 C 
BRANCH  14  15
HETATM   15  C11 UNL     1      17.001   1.357  50.656  1.00  0.00     0.292 C 
BRANCH  15  16
HETATM   16  N4  UNL     1      17.568   2.387  49.835  1.00  0.00     0.094 N 
HETATM   17  C12 UNL     1      18.942   2.678  50.138  1.00  0.00     0.298 C 
HETATM   18  C13 UNL     1      19.023   3.885  51.094  1.00  0.00     0.198 C 
HETATM   19  O1  UNL     1      17.926   3.908  51.958  1.00  0.00    -0.388 OA
HETATM   20  C14 UNL     1      16.726   4.162  51.293  1.00  0.00     0.198 C 
HETATM   21  C15 UNL     1      16.746   3.587  49.889  1.00  0.00     0.298 C 
ENDBRANCH  15  16
ENDBRANCH  14  15
ENDBRANCH  12  14
ENDBRANCH  10  12
ENDBRANCH   8  10
ENDBRANCH   7   8
ENDBRANCH   3   7
BRANCH   1  22
HETATM   22  N1  UNL     1      24.888   0.267  52.631  1.00  0.00    -0.341 N 
HETATM   23  H3  UNL     1      24.533   0.525  51.674  1.00  0.00     0.167 HD
BRANCH  22  24
HETATM   24  C4  UNL     1      26.237   0.551  53.035  1.00  0.00     0.035 A 
HETATM   25  C3  UNL     1      26.738   1.757  53.430  1.00  0.00     0.032 A 
HETATM   26  C2  UNL     1      28.065   1.887  53.817  1.00  0.00     0.046 A 
HETATM   27  C1  UNL     1      28.923   0.811  53.818  1.00  0.00     0.138 A 
HETATM   28  F1  UNL     1      30.217   0.988  54.206  1.00  0.00    -0.204 F 
HETATM   29  C18 UNL     1      28.410  -0.412  53.417  1.00  0.00     0.074 A 
HETATM   30  C17 UNL     1      27.080  -0.529  53.032  1.00  0.00     0.056 A 
HETATM   31 CL1  UNL     1      29.596  -1.723  53.454  1.00  0.00    -0.081 Cl
ENDBRANCH  22  24
ENDBRANCH   1  22
TORSDOF 9
ENDMDL
