MODEL 1
REMARK VINA RESULT:      -8.9      0.000      0.000
REMARK  5 active torsions:
REMARK  status: ('A' for Active; 'I' for Inactive)
REMARK    1  A    between atoms: C5_5  and  C6_6 
REMARK       I    between atoms: C6_6  and  N1_8 
REMARK    2  A    between atoms: N1_8  and  C7_9 
REMARK    3  A    between atoms: C11_13  and  N2_14 
REMARK    4  A    between atoms: N2_14  and  C12_15 
REMARK    5  A    between atoms: C12_15  and  N3_16 
ROOT
HETATM    1  C7  UNL     1      23.604   4.340  51.477  1.00  0.00     0.037 A 
HETATM    2  C8  UNL     1      22.427   5.060  51.511  1.00  0.00     0.029 A 
HETATM    3  C9  UNL     1      21.309   4.316  51.802  1.00  0.00     0.004 A 
HETATM    4  C10 UNL     1      21.371   2.959  52.040  1.00  0.00     0.029 A 
HETATM    5  C11 UNL     1      22.579   2.280  51.995  1.00  0.00     0.031 A 
HETATM    6  C20 UNL     1      23.734   3.000  51.703  1.00  0.00     0.058 A 
ENDROOT
BRANCH   5   7
HETATM    7  N2  UNL     1      22.699   0.887  52.231  1.00  0.00    -0.372 N 
HETATM    8  H10 UNL     1      22.383   0.256  51.441  1.00  0.00     0.161 HD
BRANCH   7   9
HETATM    9  C12 UNL     1      23.206   0.277  53.435  1.00  0.00     0.271 C 
BRANCH   9  10
HETATM   10  N3  UNL     1      24.241  -0.694  53.125  1.00  0.00    -0.270 NA
HETATM   11  C13 UNL     1      25.484  -0.467  53.233  1.00  0.00     0.055 C 
HETATM   12  C14 UNL     1      26.214  -1.687  52.831  1.00  0.00     0.050 C 
HETATM   13  C19 UNL     1      25.950   0.835  53.692  1.00  0.00     0.048 C 
HETATM   14  C15 UNL     1      27.492  -2.052  52.884  1.00  0.00     0.120 C 
HETATM   15  N4  UNL     1      28.724  -1.469  53.336  1.00  0.00    -0.256 NA
HETATM   16  C16 UNL     1      29.091  -0.311  53.786  1.00  0.00     0.208 C 
HETATM   17  N5  UNL     1      28.456   0.947  54.053  1.00  0.00    -0.356 N 
HETATM   18  C17 UNL     1      29.345   2.016  54.452  1.00  0.00     0.156 C 
HETATM   19  C18 UNL     1      27.100   1.402  54.017  1.00  0.00     0.093 C 
ENDBRANCH   9  10
ENDBRANCH   7   9
ENDBRANCH   5   7
BRANCH   1  20
HETATM   20  N1  UNL     1      24.812   5.069  51.176  1.00  0.00    -0.323 N 
HETATM   21  C6  UNL     1      25.149   4.802  49.820  1.00  0.00     0.256 C 
HETATM   22  O1  UNL     1      24.305   4.012  49.273  1.00  0.00    -0.267 OA
HETATM   23  H6  UNL     1      25.457   5.718  51.716  1.00  0.00     0.169 HD
BRANCH  21  24
HETATM   24  C5  UNL     1      26.327   5.365  49.124  1.00  0.00     0.032 A 
HETATM   25  C4  UNL     1      27.490   4.643  48.880  1.00  0.00     0.017 A 
HETATM   26  C3  UNL     1      28.509   5.313  48.213  1.00  0.00     0.007 A 
HETATM   27  C2  UNL     1      28.390   6.617  47.811  1.00  0.00    -0.062 A 
HETATM   28  C1  UNL     1      29.454   7.364  47.100  1.00  0.00     0.048 C 
HETATM   29  C22 UNL     1      27.233   7.311  48.063  1.00  0.00     0.007 A 
HETATM   30  C21 UNL     1      26.189   6.677  48.727  1.00  0.00     0.017 A 
ENDBRANCH  21  24
ENDBRANCH   1  20
TORSDOF 5
ENDMDL
MODEL 2
REMARK VINA RESULT:      -8.9      1.477      2.027
REMARK  5 active torsions:
REMARK  status: ('A' for Active; 'I' for Inactive)
REMARK    1  A    between atoms: C5_5  and  C6_6 
REMARK       I    between atoms: C6_6  and  N1_8 
REMARK    2  A    between atoms: N1_8  and  C7_9 
REMARK    3  A    between atoms: C11_13  and  N2_14 
REMARK    4  A    between atoms: N2_14  and  C12_15 
REMARK    5  A    between atoms: C12_15  and  N3_16 
ROOT
HETATM    1  C7  UNL     1      23.901   5.595  50.861  1.00  0.00     0.037 A 
HETATM    2  C8  UNL     1      22.979   6.621  50.832  1.00  0.00     0.029 A 
HETATM    3  C9  UNL     1      21.675   6.226  51.007  1.00  0.00     0.004 A 
HETATM    4  C10 UNL     1      21.328   4.905  51.197  1.00  0.00     0.029 A 
HETATM    5  C11 UNL     1      22.291   3.909  51.219  1.00  0.00     0.031 A 
HETATM    6  C20 UNL     1      23.624   4.270  51.045  1.00  0.00     0.058 A 
ENDROOT
BRANCH   5   7
HETATM    7  N2  UNL     1      21.988   2.536  51.410  1.00  0.00    -0.372 N 
HETATM    8  H10 UNL     1      21.063   2.330  51.883  1.00  0.00     0.161 HD
BRANCH   7   9
HETATM    9  C12 UNL     1      22.822   1.427  51.021  1.00  0.00     0.271 C 
BRANCH   9  10
HETATM   10  N3  UNL     1      23.111   0.573  52.160  1.00  0.00    -0.270 NA
HETATM   11  C13 UNL     1      24.246   0.494  52.720  1.00  0.00     0.055 C 
HETATM   12  C14 UNL     1      24.146  -0.472  53.834  1.00  0.00     0.050 C 
HETATM   13  C19 UNL     1      25.361   1.290  52.223  1.00  0.00     0.048 C 
HETATM   14  C15 UNL     1      24.966  -0.826  54.818  1.00  0.00     0.120 C 
HETATM   15  N4  UNL     1      26.285  -0.460  55.259  1.00  0.00    -0.256 NA
HETATM   16  C16 UNL     1      27.234   0.295  54.809  1.00  0.00     0.208 C 
HETATM   17  N5  UNL     1      27.441   1.133  53.662  1.00  0.00    -0.356 N 
HETATM   18  C17 UNL     1      28.765   1.700  53.540  1.00  0.00     0.156 C 
HETATM   19  C18 UNL     1      26.609   1.550  52.576  1.00  0.00     0.093 C 
ENDBRANCH   9  10
ENDBRANCH   7   9
ENDBRANCH   5   7
BRANCH   1  20
HETATM   20  N1  UNL     1      25.287   5.950  50.683  1.00  0.00    -0.323 N 
HETATM   21  C6  UNL     1      25.571   5.892  49.290  1.00  0.00     0.256 C 
HETATM   22  O1  UNL     1      24.540   5.550  48.615  1.00  0.00    -0.267 OA
HETATM   23  H6  UNL     1      26.085   6.228  51.327  1.00  0.00     0.169 HD
BRANCH  21  24
HETATM   24  C5  UNL     1      26.890   6.189  48.691  1.00  0.00     0.032 A 
HETATM   25  C4  UNL     1      27.242   7.438  48.191  1.00  0.00     0.017 A 
HETATM   26  C3  UNL     1      28.520   7.557  47.660  1.00  0.00     0.007 A 
HETATM   27  C2  UNL     1      29.401   6.509  47.623  1.00  0.00    -0.062 A 
HETATM   28  C1  UNL     1      30.771   6.598  47.064  1.00  0.00     0.048 C 
HETATM   29  C22 UNL     1      29.033   5.284  48.122  1.00  0.00     0.007 A 
HETATM   30  C21 UNL     1      27.763   5.123  48.662  1.00  0.00     0.017 A 
ENDBRANCH  21  24
ENDBRANCH   1  20
TORSDOF 5
ENDMDL
MODEL 3
REMARK VINA RESULT:      -8.8      2.447      6.793
REMARK  5 active torsions:
REMARK  status: ('A' for Active; 'I' for Inactive)
REMARK    1  A    between atoms: C5_5  and  C6_6 
REMARK       I    between atoms: C6_6  and  N1_8 
REMARK    2  A    between atoms: N1_8  and  C7_9 
REMARK    3  A    between atoms: C11_13  and  N2_14 
REMARK    4  A    between atoms: N2_14  and  C12_15 
REMARK    5  A    between atoms: C12_15  and  N3_16 
ROOT
HETATM    1  C7  UNL     1      22.350  -0.352  53.202  1.00  0.00     0.037 A 
HETATM    2  C8  UNL     1      21.638  -0.122  54.362  1.00  0.00     0.029 A 
HETATM    3  C9  UNL     1      20.400   0.442  54.172  1.00  0.00     0.004 A 
HETATM    4  C10 UNL     1      19.917   0.748  52.917  1.00  0.00     0.029 A 
HETATM    5  C11 UNL     1      20.670   0.498  51.781  1.00  0.00     0.031 A 
HETATM    6  C20 UNL     1      21.930  -0.073  51.933  1.00  0.00     0.058 A 
ENDROOT
BRANCH   5   7
HETATM    7  N2  UNL     1      20.222   0.793  50.468  1.00  0.00    -0.372 N 
HETATM    8  H10 UNL     1      19.357   0.271  50.148  1.00  0.00     0.161 HD
BRANCH   7   9
HETATM    9  C12 UNL     1      20.837   1.725  49.557  1.00  0.00     0.271 C 
BRANCH   9  10
HETATM   10  N3  UNL     1      21.043   3.013  50.197  1.00  0.00    -0.270 NA
HETATM   11  C13 UNL     1      22.164   3.603  50.262  1.00  0.00     0.055 C 
HETATM   12  C14 UNL     1      21.974   4.879  50.983  1.00  0.00     0.050 C 
HETATM   13  C19 UNL     1      23.346   2.989  49.673  1.00  0.00     0.048 C 
HETATM   14  C15 UNL     1      22.754   5.931  51.209  1.00  0.00     0.120 C 
HETATM   15  N4  UNL     1      24.096   6.324  50.877  1.00  0.00    -0.256 NA
HETATM   16  C16 UNL     1      25.110   5.759  50.305  1.00  0.00     0.208 C 
HETATM   17  N5  UNL     1      25.395   4.479  49.724  1.00  0.00    -0.356 N 
HETATM   18  C17 UNL     1      26.765   4.281  49.303  1.00  0.00     0.156 C 
HETATM   19  C18 UNL     1      24.610   3.314  49.454  1.00  0.00     0.093 C 
ENDBRANCH   9  10
ENDBRANCH   7   9
ENDBRANCH   5   7
BRANCH   1  20
HETATM   20  N1  UNL     1      23.659  -0.942  53.340  1.00  0.00    -0.323 N 
HETATM   21  C6  UNL     1      24.605   0.118  53.405  1.00  0.00     0.256 C 
HETATM   22  O1  UNL     1      24.036   1.260  53.324  1.00  0.00    -0.267 OA
HETATM   23  H6  UNL     1      24.038  -1.933  53.400  1.00  0.00     0.169 HD
BRANCH  21  24
HETATM   24  C5  UNL     1      26.065  -0.070  53.548  1.00  0.00     0.032 A 
HETATM   25  C4  UNL     1      26.881   0.785  54.281  1.00  0.00     0.017 A 
HETATM   26  C3  UNL     1      28.234   0.472  54.319  1.00  0.00     0.007 A 
HETATM   27  C2  UNL     1      28.754  -0.619  53.673  1.00  0.00    -0.062 A 
HETATM   28  C1  UNL     1      30.190  -0.984  53.691  1.00  0.00     0.048 C 
HETATM   29  C22 UNL     1      27.931  -1.450  52.955  1.00  0.00     0.007 A 
HETATM   30  C21 UNL     1      26.570  -1.172  52.892  1.00  0.00     0.017 A 
ENDBRANCH  21  24
ENDBRANCH   1  20
TORSDOF 5
ENDMDL
MODEL 4
REMARK VINA RESULT:      -8.8      3.501      6.448
REMARK  5 active torsions:
REMARK  status: ('A' for Active; 'I' for Inactive)
REMARK    1  A    between atoms: C5_5  and  C6_6 
REMARK       I    between atoms: C6_6  and  N1_8 
REMARK    2  A    between atoms: N1_8  and  C7_9 
REMARK    3  A    between atoms: C11_13  and  N2_14 
REMARK    4  A    between atoms: N2_14  and  C12_15 
REMARK    5  A    between atoms: C12_15  and  N3_16 
ROOT
HETATM    1  C7  UNL     1      24.220   3.682  51.526  1.00  0.00     0.037 A 
HETATM    2  C8  UNL     1      23.743   4.515  52.517  1.00  0.00     0.029 A 
HETATM    3  C9  UNL     1      22.436   4.906  52.356  1.00  0.00     0.004 A 
HETATM    4  C10 UNL     1      21.671   4.492  51.286  1.00  0.00     0.029 A 
HETATM    5  C11 UNL     1      22.196   3.653  50.315  1.00  0.00     0.031 A 
HETATM    6  C20 UNL     1      23.518   3.235  50.444  1.00  0.00     0.058 A 
ENDROOT
BRANCH   5   7
HETATM    7  N2  UNL     1      21.455   3.197  49.195  1.00  0.00    -0.372 N 
HETATM    8  H10 UNL     1      21.023   3.952  48.590  1.00  0.00     0.161 HD
BRANCH   7   9
HETATM    9  C12 UNL     1      21.249   1.819  48.825  1.00  0.00     0.271 C 
BRANCH   9  10
HETATM   10  N3  UNL     1      20.053   1.289  49.455  1.00  0.00    -0.270 NA
HETATM   11  C13 UNL     1      20.053   0.616  50.529  1.00  0.00     0.055 C 
HETATM   12  C14 UNL     1      18.657   0.256  50.851  1.00  0.00     0.050 C 
HETATM   13  C19 UNL     1      21.310   0.330  51.209  1.00  0.00     0.048 C 
HETATM   14  C15 UNL     1      18.073  -0.305  51.906  1.00  0.00     0.120 C 
HETATM   15  N4  UNL     1      18.494  -0.810  53.184  1.00  0.00    -0.256 NA
HETATM   16  C16 UNL     1      19.629  -1.005  53.774  1.00  0.00     0.208 C 
HETATM   17  N5  UNL     1      21.014  -0.814  53.451  1.00  0.00    -0.356 N 
HETATM   18  C17 UNL     1      21.953  -1.313  54.432  1.00  0.00     0.156 C 
HETATM   19  C18 UNL     1      21.702  -0.224  52.345  1.00  0.00     0.093 C 
ENDBRANCH   9  10
ENDBRANCH   7   9
ENDBRANCH   5   7
BRANCH   1  20
HETATM   20  N1  UNL     1      25.588   3.239  51.642  1.00  0.00    -0.323 N 
HETATM   21  C6  UNL     1      25.599   2.091  52.482  1.00  0.00     0.256 C 
HETATM   22  O1  UNL     1      24.422   1.792  52.883  1.00  0.00    -0.267 OA
HETATM   23  H6  UNL     1      26.523   3.566  51.258  1.00  0.00     0.169 HD
BRANCH  21  24
HETATM   24  C5  UNL     1      26.816   1.335  52.851  1.00  0.00     0.032 A 
HETATM   25  C4  UNL     1      27.979   1.936  53.320  1.00  0.00     0.017 A 
HETATM   26  C3  UNL     1      29.037   1.088  53.624  1.00  0.00     0.007 A 
HETATM   27  C2  UNL     1      28.956  -0.271  53.475  1.00  0.00    -0.062 A 
HETATM   28  C1  UNL     1      30.062  -1.207  53.788  1.00  0.00     0.048 C 
HETATM   29  C22 UNL     1      27.798  -0.844  53.010  1.00  0.00     0.007 A 
HETATM   30  C21 UNL     1      26.715  -0.030  52.695  1.00  0.00     0.017 A 
ENDBRANCH  21  24
ENDBRANCH   1  20
TORSDOF 5
ENDMDL
MODEL 5
REMARK VINA RESULT:      -8.7      2.313      7.197
REMARK  5 active torsions:
REMARK  status: ('A' for Active; 'I' for Inactive)
REMARK    1  A    between atoms: C5_5  and  C6_6 
REMARK       I    between atoms: C6_6  and  N1_8 
REMARK    2  A    between atoms: N1_8  and  C7_9 
REMARK    3  A    between atoms: C11_13  and  N2_14 
REMARK    4  A    between atoms: N2_14  and  C12_15 
REMARK    5  A    between atoms: C12_15  and  N3_16 
ROOT
HETATM    1  C7  UNL     1      23.621   3.460  52.590  1.00  0.00     0.037 A 
HETATM    2  C8  UNL     1      22.387   3.062  52.116  1.00  0.00     0.029 A 
HETATM    3  C9  UNL     1      21.664   4.053  51.498  1.00  0.00     0.004 A 
HETATM    4  C10 UNL     1      22.144   5.339  51.366  1.00  0.00     0.029 A 
HETATM    5  C11 UNL     1      23.390   5.690  51.858  1.00  0.00     0.031 A 
HETATM    6  C20 UNL     1      24.154   4.714  52.492  1.00  0.00     0.058 A 
ENDROOT
BRANCH   5   7
HETATM    7  N2  UNL     1      23.931   6.997  51.750  1.00  0.00    -0.372 N 
HETATM    8  H10 UNL     1      24.056   7.522  52.662  1.00  0.00     0.161 HD
BRANCH   7   9
HETATM    9  C12 UNL     1      24.316   7.651  50.524  1.00  0.00     0.271 C 
BRANCH   9  10
HETATM   10  N3  UNL     1      25.245   6.828  49.769  1.00  0.00    -0.270 NA
HETATM   11  C13 UNL     1      26.410   7.199  49.430  1.00  0.00     0.055 C 
HETATM   12  C14 UNL     1      27.046   6.096  48.680  1.00  0.00     0.050 C 
HETATM   13  C19 UNL     1      26.888   8.525  49.796  1.00  0.00     0.048 C 
HETATM   14  C15 UNL     1      28.277   5.886  48.225  1.00  0.00     0.120 C 
HETATM   15  N4  UNL     1      29.528   6.593  48.238  1.00  0.00    -0.256 NA
HETATM   16  C16 UNL     1      29.925   7.764  48.620  1.00  0.00     0.208 C 
HETATM   17  N5  UNL     1      29.322   8.923  49.213  1.00  0.00    -0.356 N 
HETATM   18  C17 UNL     1      30.189  10.073  49.347  1.00  0.00     0.156 C 
HETATM   19  C18 UNL     1      28.016   9.212  49.720  1.00  0.00     0.093 C 
ENDBRANCH   9  10
ENDBRANCH   7   9
ENDBRANCH   5   7
BRANCH   1  20
HETATM   20  N1  UNL     1      24.425   2.461  53.250  1.00  0.00    -0.323 N 
HETATM   21  C6  UNL     1      25.443   2.058  52.341  1.00  0.00     0.256 C 
HETATM   22  O1  UNL     1      25.352   2.682  51.228  1.00  0.00    -0.267 OA
HETATM   23  H6  UNL     1      24.419   1.996  54.206  1.00  0.00     0.169 HD
BRANCH  21  24
HETATM   24  C5  UNL     1      26.478   1.044  52.639  1.00  0.00     0.032 A 
HETATM   25  C4  UNL     1      26.281  -0.323  52.480  1.00  0.00     0.017 A 
HETATM   26  C3  UNL     1      27.353  -1.146  52.803  1.00  0.00     0.007 A 
HETATM   27  C2  UNL     1      28.548  -0.654  53.255  1.00  0.00    -0.062 A 
HETATM   28  C1  UNL     1      29.712  -1.500  53.609  1.00  0.00     0.048 C 
HETATM   29  C22 UNL     1      28.721   0.700  53.405  1.00  0.00     0.007 A 
HETATM   30  C21 UNL     1      27.674   1.559  53.093  1.00  0.00     0.017 A 
ENDBRANCH  21  24
ENDBRANCH   1  20
TORSDOF 5
ENDMDL
MODEL 6
REMARK VINA RESULT:      -8.6      3.820      8.345
REMARK  5 active torsions:
REMARK  status: ('A' for Active; 'I' for Inactive)
REMARK    1  A    between atoms: C5_5  and  C6_6 
REMARK       I    between atoms: C6_6  and  N1_8 
REMARK    2  A    between atoms: N1_8  and  C7_9 
REMARK    3  A    between atoms: C11_13  and  N2_14 
REMARK    4  A    between atoms: N2_14  and  C12_15 
REMARK    5  A    between atoms: C12_15  and  N3_16 
ROOT
HETATM    1  C7  UNL     1      24.868   4.123  49.383  1.00  0.00     0.037 A 
HETATM    2  C8  UNL     1      23.906   5.022  48.972  1.00  0.00     0.029 A 
HETATM    3  C9  UNL     1      24.397   6.233  48.548  1.00  0.00     0.004 A 
HETATM    4  C10 UNL     1      25.747   6.515  48.537  1.00  0.00     0.029 A 
HETATM    5  C11 UNL     1      26.676   5.577  48.960  1.00  0.00     0.031 A 
HETATM    6  C20 UNL     1      26.216   4.338  49.397  1.00  0.00     0.058 A 
ENDROOT
BRANCH   5   7
HETATM    7  N2  UNL     1      28.074   5.814  48.970  1.00  0.00    -0.372 N 
HETATM    8  H10 UNL     1      28.552   5.717  49.911  1.00  0.00     0.161 HD
BRANCH   7   9
HETATM    9  C12 UNL     1      28.877   6.169  47.827  1.00  0.00     0.271 C 
BRANCH   9  10
HETATM   10  N3  UNL     1      30.028   6.959  48.229  1.00  0.00    -0.270 NA
HETATM   11  C13 UNL     1      31.211   6.509  48.296  1.00  0.00     0.055 C 
HETATM   12  C14 UNL     1      32.099   7.604  48.739  1.00  0.00     0.050 C 
HETATM   13  C19 UNL     1      31.482   5.117  47.960  1.00  0.00     0.048 C 
HETATM   14  C15 UNL     1      33.418   7.732  48.840  1.00  0.00     0.120 C 
HETATM   15  N4  UNL     1      34.568   6.910  48.581  1.00  0.00    -0.256 NA
HETATM   16  C16 UNL     1      34.767   5.679  48.235  1.00  0.00     0.208 C 
HETATM   17  N5  UNL     1      33.949   4.539  47.940  1.00  0.00    -0.356 N 
HETATM   18  C17 UNL     1      34.667   3.304  47.709  1.00  0.00     0.156 C 
HETATM   19  C18 UNL     1      32.538   4.334  47.816  1.00  0.00     0.093 C 
ENDBRANCH   9  10
ENDBRANCH   7   9
ENDBRANCH   5   7
BRANCH   1  20
HETATM   20  N1  UNL     1      24.411   2.834  49.840  1.00  0.00    -0.323 N 
HETATM   21  C6  UNL     1      24.194   2.925  51.243  1.00  0.00     0.256 C 
HETATM   22  O1  UNL     1      24.461   4.096  51.683  1.00  0.00    -0.267 OA
HETATM   23  H6  UNL     1      24.214   1.895  49.381  1.00  0.00     0.169 HD
BRANCH  21  24
HETATM   24  C5  UNL     1      23.719   1.811  52.092  1.00  0.00     0.032 A 
HETATM   25  C4  UNL     1      24.564   0.856  52.646  1.00  0.00     0.017 A 
HETATM   26  C3  UNL     1      23.965  -0.129  53.422  1.00  0.00     0.007 A 
HETATM   27  C2  UNL     1      22.612  -0.171  53.639  1.00  0.00    -0.062 A 
HETATM   28  C1  UNL     1      21.938  -1.205  54.459  1.00  0.00     0.048 C 
HETATM   29  C22 UNL     1      21.797   0.782  53.082  1.00  0.00     0.007 A 
HETATM   30  C21 UNL     1      22.357   1.785  52.300  1.00  0.00     0.017 A 
ENDBRANCH  21  24
ENDBRANCH   1  20
TORSDOF 5
ENDMDL
MODEL 7
REMARK VINA RESULT:      -8.2      1.739      3.176
REMARK  5 active torsions:
REMARK  status: ('A' for Active; 'I' for Inactive)
REMARK    1  A    between atoms: C5_5  and  C6_6 
REMARK       I    between atoms: C6_6  and  N1_8 
REMARK    2  A    between atoms: N1_8  and  C7_9 
REMARK    3  A    between atoms: C11_13  and  N2_14 
REMARK    4  A    between atoms: N2_14  and  C12_15 
REMARK    5  A    between atoms: C12_15  and  N3_16 
ROOT
HETATM    1  C7  UNL     1      24.219   6.917  50.744  1.00  0.00     0.037 A 
HETATM    2  C8  UNL     1      23.438   7.985  50.354  1.00  0.00     0.029 A 
HETATM    3  C9  UNL     1      22.086   7.792  50.506  1.00  0.00     0.004 A 
HETATM    4  C10 UNL     1      21.564   6.620  51.011  1.00  0.00     0.029 A 
HETATM    5  C11 UNL     1      22.391   5.574  51.390  1.00  0.00     0.031 A 
HETATM    6  C20 UNL     1      23.767   5.733  51.251  1.00  0.00     0.058 A 
ENDROOT
BRANCH   5   7
HETATM    7  N2  UNL     1      21.908   4.349  51.915  1.00  0.00    -0.372 N 
HETATM    8  H10 UNL     1      21.492   4.396  52.888  1.00  0.00     0.161 HD
BRANCH   7   9
HETATM    9  C12 UNL     1      21.936   3.074  51.242  1.00  0.00     0.271 C 
BRANCH   9  10
HETATM   10  N3  UNL     1      21.842   1.984  52.197  1.00  0.00    -0.270 NA
HETATM   11  C13 UNL     1      22.825   1.270  52.560  1.00  0.00     0.055 C 
HETATM   12  C14 UNL     1      22.338   0.273  53.536  1.00  0.00     0.050 C 
HETATM   13  C19 UNL     1      24.151   1.521  52.011  1.00  0.00     0.048 C 
HETATM   14  C15 UNL     1      22.941  -0.610  54.325  1.00  0.00     0.120 C 
HETATM   15  N4  UNL     1      24.294  -1.005  54.604  1.00  0.00    -0.256 NA
HETATM   16  C16 UNL     1      25.460  -0.720  54.120  1.00  0.00     0.208 C 
HETATM   17  N5  UNL     1      25.974   0.123  53.079  1.00  0.00    -0.356 N 
HETATM   18  C17 UNL     1      27.395   0.006  52.833  1.00  0.00     0.156 C 
HETATM   19  C18 UNL     1      25.386   1.086  52.200  1.00  0.00     0.093 C 
ENDBRANCH   9  10
ENDBRANCH   7   9
ENDBRANCH   5   7
BRANCH   1  20
HETATM   20  N1  UNL     1      25.647   7.063  50.606  1.00  0.00    -0.323 N 
HETATM   21  C6  UNL     1      26.001   6.630  49.298  1.00  0.00     0.256 C 
HETATM   22  O1  UNL     1      24.974   6.247  48.638  1.00  0.00    -0.267 OA
HETATM   23  H6  UNL     1      26.436   7.402  51.233  1.00  0.00     0.169 HD
BRANCH  21  24
HETATM   24  C5  UNL     1      27.379   6.623  48.762  1.00  0.00     0.032 A 
HETATM   25  C4  UNL     1      28.093   7.778  48.466  1.00  0.00     0.017 A 
HETATM   26  C3  UNL     1      29.379   7.604  47.969  1.00  0.00     0.007 A 
HETATM   27  C2  UNL     1      29.930   6.364  47.775  1.00  0.00    -0.062 A 
HETATM   28  C1  UNL     1      31.296   6.139  47.247  1.00  0.00     0.048 C 
HETATM   29  C22 UNL     1      29.207   5.236  48.074  1.00  0.00     0.007 A 
HETATM   30  C21 UNL     1      27.917   5.367  48.573  1.00  0.00     0.017 A 
ENDBRANCH  21  24
ENDBRANCH   1  20
TORSDOF 5
ENDMDL
MODEL 8
REMARK VINA RESULT:      -8.0      2.324      5.840
REMARK  5 active torsions:
REMARK  status: ('A' for Active; 'I' for Inactive)
REMARK    1  A    between atoms: C5_5  and  C6_6 
REMARK       I    between atoms: C6_6  and  N1_8 
REMARK    2  A    between atoms: N1_8  and  C7_9 
REMARK    3  A    between atoms: C11_13  and  N2_14 
REMARK    4  A    between atoms: N2_14  and  C12_15 
REMARK    5  A    between atoms: C12_15  and  N3_16 
ROOT
HETATM    1  C7  UNL     1      26.068   1.613  52.139  1.00  0.00     0.037 A 
HETATM    2  C8  UNL     1      26.816   0.472  51.934  1.00  0.00     0.029 A 
HETATM    3  C9  UNL     1      26.254  -0.679  52.431  1.00  0.00     0.004 A 
HETATM    4  C10 UNL     1      25.038  -0.681  53.081  1.00  0.00     0.029 A 
HETATM    5  C11 UNL     1      24.323   0.493  53.263  1.00  0.00     0.031 A 
HETATM    6  C20 UNL     1      24.861   1.680  52.773  1.00  0.00     0.058 A 
ENDROOT
BRANCH   5   7
HETATM    7  N2  UNL     1      23.070   0.548  53.924  1.00  0.00    -0.372 N 
HETATM    8  H10 UNL     1      23.108   0.619  54.981  1.00  0.00     0.161 HD
BRANCH   7   9
HETATM    9  C12 UNL     1      21.778   0.516  53.286  1.00  0.00     0.271 C 
BRANCH   9  10
HETATM   10  N3  UNL     1      21.917   0.485  51.840  1.00  0.00    -0.270 NA
HETATM   11  C13 UNL     1      21.232   1.197  51.045  1.00  0.00     0.055 C 
HETATM   12  C14 UNL     1      21.658   0.887  49.664  1.00  0.00     0.050 C 
HETATM   13  C19 UNL     1      20.231   2.117  51.568  1.00  0.00     0.048 C 
HETATM   14  C15 UNL     1      21.388   1.424  48.478  1.00  0.00     0.120 C 
HETATM   15  N4  UNL     1      20.591   2.513  47.984  1.00  0.00    -0.256 NA
HETATM   16  C16 UNL     1      19.742   3.345  48.496  1.00  0.00     0.208 C 
HETATM   17  N5  UNL     1      19.182   3.591  49.794  1.00  0.00    -0.356 N 
HETATM   18  C17 UNL     1      18.142   4.595  49.839  1.00  0.00     0.156 C 
HETATM   19  C18 UNL     1      19.425   3.054  51.097  1.00  0.00     0.093 C 
ENDBRANCH   9  10
ENDBRANCH   7   9
ENDBRANCH   5   7
BRANCH   1  20
HETATM   20  N1  UNL     1      26.609   2.853  51.639  1.00  0.00    -0.323 N 
HETATM   21  C6  UNL     1      25.818   3.250  50.526  1.00  0.00     0.256 C 
HETATM   22  O1  UNL     1      24.879   2.414  50.296  1.00  0.00    -0.267 OA
HETATM   23  H6  UNL     1      27.418   3.488  51.909  1.00  0.00     0.169 HD
BRANCH  21  24
HETATM   24  C5  UNL     1      26.048   4.476  49.730  1.00  0.00     0.032 A 
HETATM   25  C4  UNL     1      25.105   5.488  49.590  1.00  0.00     0.017 A 
HETATM   26  C3  UNL     1      25.473   6.576  48.809  1.00  0.00     0.007 A 
HETATM   27  C2  UNL     1      26.697   6.664  48.201  1.00  0.00    -0.062 A 
HETATM   28  C1  UNL     1      27.124   7.808  47.361  1.00  0.00     0.048 C 
HETATM   29  C22 UNL     1      27.614   5.653  48.352  1.00  0.00     0.007 A 
HETATM   30  C21 UNL     1      27.285   4.546  49.126  1.00  0.00     0.017 A 
ENDBRANCH  21  24
ENDBRANCH   1  20
TORSDOF 5
ENDMDL
MODEL 9
REMARK VINA RESULT:      -7.9      3.328      9.265
REMARK  5 active torsions:
REMARK  status: ('A' for Active; 'I' for Inactive)
REMARK    1  A    between atoms: C5_5  and  C6_6 
REMARK       I    between atoms: C6_6  and  N1_8 
REMARK    2  A    between atoms: N1_8  and  C7_9 
REMARK    3  A    between atoms: C11_13  and  N2_14 
REMARK    4  A    between atoms: N2_14  and  C12_15 
REMARK    5  A    between atoms: C12_15  and  N3_16 
ROOT
HETATM    1  C7  UNL     1      25.183   3.837  49.868  1.00  0.00     0.037 A 
HETATM    2  C8  UNL     1      26.379   3.389  49.345  1.00  0.00     0.029 A 
HETATM    3  C9  UNL     1      27.229   4.383  48.924  1.00  0.00     0.004 A 
HETATM    4  C10 UNL     1      26.902   5.719  49.023  1.00  0.00     0.029 A 
HETATM    5  C11 UNL     1      25.688   6.120  49.556  1.00  0.00     0.031 A 
HETATM    6  C20 UNL     1      24.799   5.142  49.994  1.00  0.00     0.058 A 
ENDROOT
BRANCH   5   7
HETATM    7  N2  UNL     1      25.302   7.479  49.681  1.00  0.00    -0.372 N 
HETATM    8  H10 UNL     1      24.426   7.760  49.156  1.00  0.00     0.161 HD
BRANCH   7   9
HETATM    9  C12 UNL     1      25.993   8.485  50.449  1.00  0.00     0.271 C 
BRANCH   9  10
HETATM   10  N3  UNL     1      26.252   9.664  49.641  1.00  0.00    -0.270 NA
HETATM   11  C13 UNL     1      27.384   9.955  49.151  1.00  0.00     0.055 C 
HETATM   12  C14 UNL     1      27.251  11.218  48.396  1.00  0.00     0.050 C 
HETATM   13  C19 UNL     1      28.527   9.082  49.387  1.00  0.00     0.048 C 
HETATM   14  C15 UNL     1      28.060  11.893  47.585  1.00  0.00     0.120 C 
HETATM   15  N4  UNL     1      29.392  11.730  47.070  1.00  0.00    -0.256 NA
HETATM   16  C16 UNL     1      30.368  10.905  47.272  1.00  0.00     0.208 C 
HETATM   17  N5  UNL     1      30.602   9.756  48.099  1.00  0.00    -0.356 N 
HETATM   18  C17 UNL     1      31.947   9.225  48.054  1.00  0.00     0.156 C 
HETATM   19  C18 UNL     1      29.784   8.989  48.986  1.00  0.00     0.093 C 
ENDBRANCH   9  10
ENDBRANCH   7   9
ENDBRANCH   5   7
BRANCH   1  20
HETATM   20  N1  UNL     1      24.249   2.838  50.325  1.00  0.00    -0.323 N 
HETATM   21  C6  UNL     1      24.741   2.320  51.555  1.00  0.00     0.256 C 
HETATM   22  O1  UNL     1      25.842   2.876  51.892  1.00  0.00    -0.267 OA
HETATM   23  H6  UNL     1      23.335   2.435  49.962  1.00  0.00     0.169 HD
BRANCH  21  24
HETATM   24  C5  UNL     1      24.068   1.269  52.350  1.00  0.00     0.032 A 
HETATM   25  C4  UNL     1      24.746   0.382  53.179  1.00  0.00     0.017 A 
HETATM   26  C3  UNL     1      23.971  -0.548  53.860  1.00  0.00     0.007 A 
HETATM   27  C2  UNL     1      22.608  -0.602  53.734  1.00  0.00    -0.062 A 
HETATM   28  C1  UNL     1      21.748  -1.579  54.443  1.00  0.00     0.048 C 
HETATM   29  C22 UNL     1      21.958   0.283  52.910  1.00  0.00     0.007 A 
HETATM   30  C21 UNL     1      22.697   1.230  52.210  1.00  0.00     0.017 A 
ENDBRANCH  21  24
ENDBRANCH   1  20
TORSDOF 5
ENDMDL
