MODEL 1
REMARK VINA RESULT:      -8.7      0.000      0.000
REMARK  5 active torsions:
REMARK  status: ('A' for Active; 'I' for Inactive)
REMARK    1  A    between atoms: O1_2  and  C2_3 
REMARK    2  A    between atoms: C13_17  and  O2_18 
REMARK    3  A    between atoms: O2_18  and  C14_19 
REMARK    4  A    between atoms: C14_19  and  C15_20 
REMARK    5  A    between atoms: C15_20  and  N3_21 
ROOT
HETATM    1  C2  UNL     1      27.291   0.701  53.410  1.00  0.00     0.103 C 
HETATM    2  C3  UNL     1      26.949   0.068  54.548  1.00  0.00     0.069 C 
HETATM    3  C4  UNL     1      25.531  -0.249  54.545  1.00  0.00     0.069 C 
HETATM    4  N1  UNL     1      25.188  -1.109  55.476  1.00  0.00    -0.178 NA
HETATM    5  N2  UNL     1      23.886  -1.581  55.644  1.00  0.00    -0.278 N 
HETATM    6  C5  UNL     1      22.896  -1.114  54.738  1.00  0.00     0.057 A 
HETATM    7  C6  UNL     1      21.612  -1.639  54.867  1.00  0.00     0.034 A 
HETATM    8  C7  UNL     1      20.642  -1.241  53.937  1.00  0.00     0.044 A 
HETATM    9  C8  UNL     1      20.952  -0.343  52.910  1.00  0.00     0.117 A 
HETATM   10  F1  UNL     1      19.978   0.008  52.037  1.00  0.00    -0.206 F 
HETATM   11  C9  UNL     1      22.241   0.181  52.788  1.00  0.00     0.052 A 
HETATM   12  C10 UNL     1      23.169  -0.231  53.718  1.00  0.00    -0.013 A 
HETATM   13  C11 UNL     1      24.494   0.324  53.698  1.00  0.00     0.100 C 
HETATM   14  C12 UNL     1      25.045   0.917  52.480  1.00  0.00     0.028 C 
HETATM   15  C13 UNL     1      26.353   1.102  52.368  1.00  0.00     0.099 C 
HETATM   16  H5  UNL     1      23.644  -2.242  56.393  1.00  0.00     0.189 HD
ENDROOT
BRANCH  15  17
HETATM   17  O2  UNL     1      26.809   1.704  51.201  1.00  0.00    -0.347 OA
BRANCH  17  18
HETATM   18  C14 UNL     1      26.658   3.080  50.915  1.00  0.00     0.196 C 
BRANCH  18  19
HETATM   19  C15 UNL     1      26.520   3.208  49.414  1.00  0.00     0.156 C 
BRANCH  19  20
HETATM   20  N3  UNL     1      26.859   4.546  49.024  1.00  0.00    -0.348 N 
HETATM   21  C16 UNL     1      26.078   5.623  49.078  1.00  0.00     0.111 A 
HETATM   22  C17 UNL     1      26.740   6.741  48.620  1.00  0.00     0.135 A 
HETATM   23  N4  UNL     1      27.984   6.322  48.270  1.00  0.00    -0.255 NA
HETATM   24  C18 UNL     1      28.013   5.005  48.526  1.00  0.00     0.209 A 
ENDBRANCH  19  20
ENDBRANCH  18  19
ENDBRANCH  17  18
ENDBRANCH  15  17
BRANCH   1  25
HETATM   25  O1  UNL     1      28.617   1.051  53.200  1.00  0.00    -0.353 OA
HETATM   26  C1  UNL     1      29.669   0.197  53.651  1.00  0.00     0.210 C 
ENDBRANCH   1  25
TORSDOF 5
ENDMDL
MODEL 2
REMARK VINA RESULT:      -8.5      1.622      2.169
REMARK  5 active torsions:
REMARK  status: ('A' for Active; 'I' for Inactive)
REMARK    1  A    between atoms: O1_2  and  C2_3 
REMARK    2  A    between atoms: C13_17  and  O2_18 
REMARK    3  A    between atoms: O2_18  and  C14_19 
REMARK    4  A    between atoms: C14_19  and  C15_20 
REMARK    5  A    between atoms: C15_20  and  N3_21 
ROOT
HETATM    1  C2  UNL     1      27.253   0.627  53.344  1.00  0.00     0.103 C 
HETATM    2  C3  UNL     1      26.904   0.004  54.485  1.00  0.00     0.069 C 
HETATM    3  C4  UNL     1      25.481  -0.284  54.492  1.00  0.00     0.069 C 
HETATM    4  N1  UNL     1      25.126  -1.135  55.427  1.00  0.00    -0.178 NA
HETATM    5  N2  UNL     1      23.816  -1.580  55.605  1.00  0.00    -0.278 N 
HETATM    6  C5  UNL     1      22.829  -1.095  54.703  1.00  0.00     0.057 A 
HETATM    7  C6  UNL     1      21.536  -1.594  54.841  1.00  0.00     0.034 A 
HETATM    8  C7  UNL     1      20.569  -1.178  53.916  1.00  0.00     0.044 A 
HETATM    9  C8  UNL     1      20.891  -0.289  52.885  1.00  0.00     0.117 A 
HETATM   10  F1  UNL     1      19.919   0.079  52.017  1.00  0.00    -0.206 F 
HETATM   11  C9  UNL     1      22.190   0.208  52.754  1.00  0.00     0.052 A 
HETATM   12  C10 UNL     1      23.114  -0.220  53.679  1.00  0.00    -0.013 A 
HETATM   13  C11 UNL     1      24.451   0.308  53.650  1.00  0.00     0.100 C 
HETATM   14  C12 UNL     1      25.006   0.887  52.427  1.00  0.00     0.028 C 
HETATM   15  C13 UNL     1      26.316   1.045  52.306  1.00  0.00     0.099 C 
HETATM   16  H5  UNL     1      23.565  -2.234  56.356  1.00  0.00     0.189 HD
ENDROOT
BRANCH  15  17
HETATM   17  O2  UNL     1      26.778   1.635  51.136  1.00  0.00    -0.347 OA
BRANCH  17  18
HETATM   18  C14 UNL     1      26.749   3.027  50.892  1.00  0.00     0.196 C 
BRANCH  18  19
HETATM   19  C15 UNL     1      25.906   3.243  49.655  1.00  0.00     0.156 C 
BRANCH  19  20
HETATM   20  N3  UNL     1      24.542   3.454  50.047  1.00  0.00    -0.348 N 
HETATM   21  C16 UNL     1      24.099   4.224  51.039  1.00  0.00     0.111 A 
HETATM   22  C17 UNL     1      22.724   4.185  51.123  1.00  0.00     0.135 A 
HETATM   23  N4  UNL     1      22.312   3.352  50.133  1.00  0.00    -0.255 NA
HETATM   24  C18 UNL     1      23.429   2.936  49.514  1.00  0.00     0.209 A 
ENDBRANCH  19  20
ENDBRANCH  18  19
ENDBRANCH  17  18
ENDBRANCH  15  17
BRANCH   1  25
HETATM   25  O1  UNL     1      28.584   0.950  53.125  1.00  0.00    -0.353 OA
HETATM   26  C1  UNL     1      29.621   0.201  53.760  1.00  0.00     0.210 C 
ENDBRANCH   1  25
TORSDOF 5
ENDMDL
MODEL 3
REMARK VINA RESULT:      -8.3      2.995      4.402
REMARK  5 active torsions:
REMARK  status: ('A' for Active; 'I' for Inactive)
REMARK    1  A    between atoms: O1_2  and  C2_3 
REMARK    2  A    between atoms: C13_17  and  O2_18 
REMARK    3  A    between atoms: O2_18  and  C14_19 
REMARK    4  A    between atoms: C14_19  and  C15_20 
REMARK    5  A    between atoms: C15_20  and  N3_21 
ROOT
HETATM    1  C2  UNL     1      24.138  -0.651  54.101  1.00  0.00     0.103 C 
HETATM    2  C3  UNL     1      23.146  -1.215  54.815  1.00  0.00     0.069 C 
HETATM    3  C4  UNL     1      21.862  -0.964  54.186  1.00  0.00     0.069 C 
HETATM    4  N1  UNL     1      20.894  -1.716  54.658  1.00  0.00    -0.178 NA
HETATM    5  N2  UNL     1      19.583  -1.667  54.185  1.00  0.00    -0.278 N 
HETATM    6  C5  UNL     1      19.301  -0.769  53.120  1.00  0.00     0.057 A 
HETATM    7  C6  UNL     1      18.006  -0.772  52.606  1.00  0.00     0.034 A 
HETATM    8  C7  UNL     1      17.732   0.057  51.511  1.00  0.00     0.044 A 
HETATM    9  C8  UNL     1      18.726   0.866  50.950  1.00  0.00     0.117 A 
HETATM   10  F1  UNL     1      18.408   1.649  49.892  1.00  0.00    -0.206 F 
HETATM   11  C9  UNL     1      20.022   0.866  51.472  1.00  0.00     0.052 A 
HETATM   12  C10 UNL     1      20.256   0.040  52.548  1.00  0.00    -0.013 A 
HETATM   13  C11 UNL     1      21.546   0.045  53.183  1.00  0.00     0.100 C 
HETATM   14  C12 UNL     1      22.737   0.501  52.467  1.00  0.00     0.028 C 
HETATM   15  C13 UNL     1      23.942   0.181  52.919  1.00  0.00     0.099 C 
HETATM   16  H5  UNL     1      18.843  -2.257  54.585  1.00  0.00     0.189 HD
ENDROOT
BRANCH  15  17
HETATM   17  O2  UNL     1      25.034   0.676  52.215  1.00  0.00    -0.347 OA
BRANCH  17  18
HETATM   18  C14 UNL     1      25.566   1.972  52.400  1.00  0.00     0.196 C 
BRANCH  18  19
HETATM   19  C15 UNL     1      26.958   1.968  51.806  1.00  0.00     0.156 C 
BRANCH  19  20
HETATM   20  N3  UNL     1      27.908   1.674  52.840  1.00  0.00    -0.348 N 
HETATM   21  C16 UNL     1      28.453   0.492  53.120  1.00  0.00     0.111 A 
HETATM   22  C17 UNL     1      29.327   0.587  54.181  1.00  0.00     0.135 A 
HETATM   23  N4  UNL     1      29.312   1.890  54.564  1.00  0.00    -0.255 NA
HETATM   24  C18 UNL     1      28.451   2.505  53.737  1.00  0.00     0.209 A 
ENDBRANCH  19  20
ENDBRANCH  18  19
ENDBRANCH  17  18
ENDBRANCH  15  17
BRANCH   1  25
HETATM   25  O1  UNL     1      25.452  -0.815  54.515  1.00  0.00    -0.353 OA
HETATM   26  C1  UNL     1      25.959  -0.066  55.620  1.00  0.00     0.210 C 
ENDBRANCH   1  25
TORSDOF 5
ENDMDL
MODEL 4
REMARK VINA RESULT:      -8.1      3.723      5.880
REMARK  5 active torsions:
REMARK  status: ('A' for Active; 'I' for Inactive)
REMARK    1  A    between atoms: O1_2  and  C2_3 
REMARK    2  A    between atoms: C13_17  and  O2_18 
REMARK    3  A    between atoms: O2_18  and  C14_19 
REMARK    4  A    between atoms: C14_19  and  C15_20 
REMARK    5  A    between atoms: C15_20  and  N3_21 
ROOT
HETATM    1  C2  UNL     1      20.011  -0.682  53.311  1.00  0.00     0.103 C 
HETATM    2  C3  UNL     1      20.597  -1.411  54.279  1.00  0.00     0.069 C 
HETATM    3  C4  UNL     1      22.024  -1.144  54.323  1.00  0.00     0.069 C 
HETATM    4  N1  UNL     1      22.605  -1.590  55.413  1.00  0.00    -0.178 NA
HETATM    5  N2  UNL     1      23.962  -1.423  55.684  1.00  0.00    -0.278 N 
HETATM    6  C5  UNL     1      24.740  -0.709  54.732  1.00  0.00     0.057 A 
HETATM    7  C6  UNL     1      26.080  -0.485  55.038  1.00  0.00     0.034 A 
HETATM    8  C7  UNL     1      26.841   0.278  54.142  1.00  0.00     0.044 A 
HETATM    9  C8  UNL     1      26.273   0.799  52.974  1.00  0.00     0.117 A 
HETATM   10  F1  UNL     1      27.052   1.530  52.143  1.00  0.00    -0.206 F 
HETATM   11  C9  UNL     1      24.929   0.569  52.672  1.00  0.00     0.052 A 
HETATM   12  C10 UNL     1      24.211  -0.184  53.574  1.00  0.00    -0.013 A 
HETATM   13  C11 UNL     1      22.843  -0.523  53.291  1.00  0.00     0.100 C 
HETATM   14  C12 UNL     1      22.045   0.276  52.362  1.00  0.00     0.028 C 
HETATM   15  C13 UNL     1      20.723   0.178  52.372  1.00  0.00     0.099 C 
HETATM   16  H5  UNL     1      24.392  -1.798  56.538  1.00  0.00     0.189 HD
ENDROOT
BRANCH  15  17
HETATM   17  O2  UNL     1      20.024   0.935  51.440  1.00  0.00    -0.347 OA
BRANCH  17  18
HETATM   18  C14 UNL     1      19.627   2.275  51.654  1.00  0.00     0.196 C 
BRANCH  18  19
HETATM   19  C15 UNL     1      20.308   3.113  50.595  1.00  0.00     0.156 C 
BRANCH  19  20
HETATM   20  N3  UNL     1      21.562   3.587  51.105  1.00  0.00    -0.348 N 
HETATM   21  C16 UNL     1      21.769   4.261  52.234  1.00  0.00     0.111 A 
HETATM   22  C17 UNL     1      23.106   4.550  52.402  1.00  0.00     0.135 A 
HETATM   23  N4  UNL     1      23.741   4.026  51.322  1.00  0.00    -0.255 NA
HETATM   24  C18 UNL     1      22.783   3.460  50.572  1.00  0.00     0.209 A 
ENDBRANCH  19  20
ENDBRANCH  18  19
ENDBRANCH  17  18
ENDBRANCH  15  17
BRANCH   1  25
HETATM   25  O1  UNL     1      18.637  -0.764  53.137  1.00  0.00    -0.353 OA
HETATM   26  C1  UNL     1      17.934  -1.953  53.497  1.00  0.00     0.210 C 
ENDBRANCH   1  25
TORSDOF 5
ENDMDL
MODEL 5
REMARK VINA RESULT:      -8.0      2.941      5.053
REMARK  5 active torsions:
REMARK  status: ('A' for Active; 'I' for Inactive)
REMARK    1  A    between atoms: O1_2  and  C2_3 
REMARK    2  A    between atoms: C13_17  and  O2_18 
REMARK    3  A    between atoms: O2_18  and  C14_19 
REMARK    4  A    between atoms: C14_19  and  C15_20 
REMARK    5  A    between atoms: C15_20  and  N3_21 
ROOT
HETATM    1  C2  UNL     1      22.256   1.227  52.719  1.00  0.00     0.103 C 
HETATM    2  C3  UNL     1      22.694   0.081  53.273  1.00  0.00     0.069 C 
HETATM    3  C4  UNL     1      24.113   0.170  53.567  1.00  0.00     0.069 C 
HETATM    4  N1  UNL     1      24.542  -0.784  54.361  1.00  0.00    -0.178 NA
HETATM    5  N2  UNL     1      25.861  -0.884  54.801  1.00  0.00    -0.278 N 
HETATM    6  C5  UNL     1      26.773   0.121  54.376  1.00  0.00     0.057 A 
HETATM    7  C6  UNL     1      28.074   0.056  54.871  1.00  0.00     0.034 A 
HETATM    8  C7  UNL     1      28.964   1.078  54.517  1.00  0.00     0.044 A 
HETATM    9  C8  UNL     1      28.561   2.132  53.690  1.00  0.00     0.117 A 
HETATM   10  F1  UNL     1      29.461   3.096  53.380  1.00  0.00    -0.206 F 
HETATM   11  C9  UNL     1      27.256   2.191  53.196  1.00  0.00     0.052 A 
HETATM   12  C10 UNL     1      26.408   1.170  53.563  1.00  0.00    -0.013 A 
HETATM   13  C11 UNL     1      25.073   1.126  53.032  1.00  0.00     0.100 C 
HETATM   14  C12 UNL     1      24.423   2.334  52.525  1.00  0.00     0.028 C 
HETATM   15  C13 UNL     1      23.107   2.359  52.368  1.00  0.00     0.099 C 
HETATM   16  H5  UNL     1      26.171  -1.651  55.409  1.00  0.00     0.189 HD
ENDROOT
BRANCH  15  17
HETATM   17  O2  UNL     1      22.553   3.524  51.848  1.00  0.00    -0.347 OA
BRANCH  17  18
HETATM   18  C14 UNL     1      23.309   4.668  51.505  1.00  0.00     0.196 C 
BRANCH  18  19
HETATM   19  C15 UNL     1      23.377   4.716  49.994  1.00  0.00     0.156 C 
BRANCH  19  20
HETATM   20  N3  UNL     1      24.751   4.772  49.588  1.00  0.00    -0.348 N 
HETATM   21  C16 UNL     1      25.403   5.823  49.095  1.00  0.00     0.111 A 
HETATM   22  C17 UNL     1      26.715   5.508  48.815  1.00  0.00     0.135 A 
HETATM   23  N4  UNL     1      26.867   4.202  49.155  1.00  0.00    -0.255 NA
HETATM   24  C18 UNL     1      25.671   3.800  49.611  1.00  0.00     0.209 A 
ENDBRANCH  19  20
ENDBRANCH  18  19
ENDBRANCH  17  18
ENDBRANCH  15  17
BRANCH   1  25
HETATM   25  O1  UNL     1      20.911   1.359  52.403  1.00  0.00    -0.353 OA
HETATM   26  C1  UNL     1      20.308   0.493  51.441  1.00  0.00     0.210 C 
ENDBRANCH   1  25
TORSDOF 5
ENDMDL
MODEL 6
REMARK VINA RESULT:      -8.0      2.321      3.076
REMARK  5 active torsions:
REMARK  status: ('A' for Active; 'I' for Inactive)
REMARK    1  A    between atoms: O1_2  and  C2_3 
REMARK    2  A    between atoms: C13_17  and  O2_18 
REMARK    3  A    between atoms: O2_18  and  C14_19 
REMARK    4  A    between atoms: C14_19  and  C15_20 
REMARK    5  A    between atoms: C15_20  and  N3_21 
ROOT
HETATM    1  C2  UNL     1      25.065  -0.503  54.015  1.00  0.00     0.103 C 
HETATM    2  C3  UNL     1      24.161  -1.050  54.850  1.00  0.00     0.069 C 
HETATM    3  C4  UNL     1      22.817  -0.875  54.329  1.00  0.00     0.069 C 
HETATM    4  N1  UNL     1      21.923  -1.624  54.932  1.00  0.00    -0.178 NA
HETATM    5  N2  UNL     1      20.573  -1.642  54.580  1.00  0.00    -0.278 N 
HETATM    6  C5  UNL     1      20.165  -0.820  53.496  1.00  0.00     0.057 A 
HETATM    7  C6  UNL     1      18.830  -0.893  53.104  1.00  0.00     0.034 A 
HETATM    8  C7  UNL     1      18.429  -0.140  51.992  1.00  0.00     0.044 A 
HETATM    9  C8  UNL     1      19.340   0.661  51.295  1.00  0.00     0.117 A 
HETATM   10  F1  UNL     1      18.901   1.367  50.227  1.00  0.00    -0.206 F 
HETATM   11  C9  UNL     1      20.677   0.730  51.694  1.00  0.00     0.052 A 
HETATM   12  C10 UNL     1      21.037  -0.021  52.790  1.00  0.00    -0.013 A 
HETATM   13  C11 UNL     1      22.377   0.060  53.302  1.00  0.00     0.100 C 
HETATM   14  C12 UNL     1      23.482   0.505  52.453  1.00  0.00     0.028 C 
HETATM   15  C13 UNL     1      24.733   0.248  52.809  1.00  0.00     0.099 C 
HETATM   16  H5  UNL     1      19.893  -2.227  55.082  1.00  0.00     0.189 HD
ENDROOT
BRANCH  15  17
HETATM   17  O2  UNL     1      25.739   0.730  51.979  1.00  0.00    -0.347 OA
BRANCH  17  18
HETATM   18  C14 UNL     1      26.359   1.990  52.145  1.00  0.00     0.196 C 
BRANCH  18  19
HETATM   19  C15 UNL     1      26.259   2.710  50.818  1.00  0.00     0.156 C 
BRANCH  19  20
HETATM   20  N3  UNL     1      24.942   3.262  50.681  1.00  0.00    -0.348 N 
HETATM   21  C16 UNL     1      24.270   3.976  51.582  1.00  0.00     0.111 A 
HETATM   22  C17 UNL     1      23.031   4.341  51.104  1.00  0.00     0.135 A 
HETATM   23  N4  UNL     1      22.946   3.824  49.850  1.00  0.00    -0.255 NA
HETATM   24  C18 UNL     1      24.108   3.187  49.637  1.00  0.00     0.209 A 
ENDBRANCH  19  20
ENDBRANCH  18  19
ENDBRANCH  17  18
ENDBRANCH  15  17
BRANCH   1  25
HETATM   25  O1  UNL     1      26.415  -0.604  54.315  1.00  0.00    -0.353 OA
HETATM   26  C1  UNL     1      26.996   0.232  55.316  1.00  0.00     0.210 C 
ENDBRANCH   1  25
TORSDOF 5
ENDMDL
MODEL 7
REMARK VINA RESULT:      -7.9      3.541      6.462
REMARK  5 active torsions:
REMARK  status: ('A' for Active; 'I' for Inactive)
REMARK    1  A    between atoms: O1_2  and  C2_3 
REMARK    2  A    between atoms: C13_17  and  O2_18 
REMARK    3  A    between atoms: O2_18  and  C14_19 
REMARK    4  A    between atoms: C14_19  and  C15_20 
REMARK    5  A    between atoms: C15_20  and  N3_21 
ROOT
HETATM    1  C2  UNL     1      22.227   0.480  53.515  1.00  0.00     0.103 C 
HETATM    2  C3  UNL     1      21.326   1.427  53.193  1.00  0.00     0.069 C 
HETATM    3  C4  UNL     1      21.886   2.353  52.225  1.00  0.00     0.069 C 
HETATM    4  N1  UNL     1      20.985   3.119  51.654  1.00  0.00    -0.178 NA
HETATM    5  N2  UNL     1      21.288   4.063  50.674  1.00  0.00    -0.278 N 
HETATM    6  C5  UNL     1      22.645   4.174  50.265  1.00  0.00     0.057 A 
HETATM    7  C6  UNL     1      22.934   5.070  49.238  1.00  0.00     0.034 A 
HETATM    8  C7  UNL     1      24.255   5.139  48.778  1.00  0.00     0.044 A 
HETATM    9  C8  UNL     1      25.256   4.333  49.332  1.00  0.00     0.117 A 
HETATM   10  F1  UNL     1      26.516   4.438  48.848  1.00  0.00    -0.206 F 
HETATM   11  C9  UNL     1      24.960   3.438  50.362  1.00  0.00     0.052 A 
HETATM   12  C10 UNL     1      23.652   3.397  50.791  1.00  0.00    -0.013 A 
HETATM   13  C11 UNL     1      23.291   2.553  51.897  1.00  0.00     0.100 C 
HETATM   14  C12 UNL     1      24.112   1.401  52.266  1.00  0.00     0.028 C 
HETATM   15  C13 UNL     1      23.605   0.448  53.037  1.00  0.00     0.099 C 
HETATM   16  H5  UNL     1      20.563   4.660  50.257  1.00  0.00     0.189 HD
ENDROOT
BRANCH  15  17
HETATM   17  O2  UNL     1      24.447  -0.602  53.382  1.00  0.00    -0.347 OA
BRANCH  17  18
HETATM   18  C14 UNL     1      25.530  -0.479  54.283  1.00  0.00     0.196 C 
BRANCH  18  19
HETATM   19  C15 UNL     1      26.799  -0.635  53.474  1.00  0.00     0.156 C 
BRANCH  19  20
HETATM   20  N3  UNL     1      27.671   0.469  53.750  1.00  0.00    -0.348 N 
HETATM   21  C16 UNL     1      27.701   1.647  53.130  1.00  0.00     0.111 A 
HETATM   22  C17 UNL     1      28.671   2.466  53.664  1.00  0.00     0.135 A 
HETATM   23  N4  UNL     1      29.259   1.752  54.658  1.00  0.00    -0.255 NA
HETATM   24  C18 UNL     1      28.632   0.565  54.676  1.00  0.00     0.209 A 
ENDBRANCH  19  20
ENDBRANCH  18  19
ENDBRANCH  17  18
ENDBRANCH  15  17
BRANCH   1  25
HETATM   25  O1  UNL     1      21.868  -0.528  54.397  1.00  0.00    -0.353 OA
HETATM   26  C1  UNL     1      20.795  -1.416  54.079  1.00  0.00     0.210 C 
ENDBRANCH   1  25
TORSDOF 5
ENDMDL
MODEL 8
REMARK VINA RESULT:      -7.8      2.940      5.450
REMARK  5 active torsions:
REMARK  status: ('A' for Active; 'I' for Inactive)
REMARK    1  A    between atoms: O1_2  and  C2_3 
REMARK    2  A    between atoms: C13_17  and  O2_18 
REMARK    3  A    between atoms: O2_18  and  C14_19 
REMARK    4  A    between atoms: C14_19  and  C15_20 
REMARK    5  A    between atoms: C15_20  and  N3_21 
ROOT
HETATM    1  C2  UNL     1      23.370   3.228  49.930  1.00  0.00     0.103 C 
HETATM    2  C3  UNL     1      22.088   2.899  49.683  1.00  0.00     0.069 C 
HETATM    3  C4  UNL     1      21.629   1.898  50.630  1.00  0.00     0.069 C 
HETATM    4  N1  UNL     1      20.325   1.744  50.635  1.00  0.00    -0.178 NA
HETATM    5  N2  UNL     1      19.659   0.859  51.482  1.00  0.00    -0.278 N 
HETATM    6  C5  UNL     1      20.445   0.108  52.398  1.00  0.00     0.057 A 
HETATM    7  C6  UNL     1      19.770  -0.724  53.288  1.00  0.00     0.034 A 
HETATM    8  C7  UNL     1      20.526  -1.416  54.243  1.00  0.00     0.044 A 
HETATM    9  C8  UNL     1      21.917  -1.278  54.301  1.00  0.00     0.117 A 
HETATM   10  F1  UNL     1      22.601  -1.968  55.245  1.00  0.00    -0.206 F 
HETATM   11  C9  UNL     1      22.588  -0.442  53.405  1.00  0.00     0.052 A 
HETATM   12  C10 UNL     1      21.814   0.222  52.480  1.00  0.00    -0.013 A 
HETATM   13  C11 UNL     1      22.444   1.040  51.480  1.00  0.00     0.100 C 
HETATM   14  C12 UNL     1      23.786   1.583  51.685  1.00  0.00     0.028 C 
HETATM   15  C13 UNL     1      24.210   2.595  50.941  1.00  0.00     0.099 C 
HETATM   16  H5  UNL     1      18.638   0.748  51.451  1.00  0.00     0.189 HD
ENDROOT
BRANCH  15  17
HETATM   17  O2  UNL     1      25.508   3.041  51.159  1.00  0.00    -0.347 OA
BRANCH  17  18
HETATM   18  C14 UNL     1      26.655   2.228  51.009  1.00  0.00     0.196 C 
BRANCH  18  19
HETATM   19  C15 UNL     1      27.356   2.200  52.349  1.00  0.00     0.156 C 
BRANCH  19  20
HETATM   20  N3  UNL     1      26.902   1.061  53.093  1.00  0.00    -0.348 N 
HETATM   21  C16 UNL     1      26.376   1.056  54.316  1.00  0.00     0.111 A 
HETATM   22  C17 UNL     1      26.053  -0.223  54.714  1.00  0.00     0.135 A 
HETATM   23  N4  UNL     1      26.400  -1.035  53.681  1.00  0.00    -0.255 NA
HETATM   24  C18 UNL     1      26.903  -0.228  52.734  1.00  0.00     0.209 A 
ENDBRANCH  19  20
ENDBRANCH  18  19
ENDBRANCH  17  18
ENDBRANCH  15  17
BRANCH   1  25
HETATM   25  O1  UNL     1      23.982   4.205  49.158  1.00  0.00    -0.353 OA
HETATM   26  C1  UNL     1      23.198   5.067  48.332  1.00  0.00     0.210 C 
ENDBRANCH   1  25
TORSDOF 5
ENDMDL
MODEL 9
REMARK VINA RESULT:      -7.7      3.340      5.976
REMARK  5 active torsions:
REMARK  status: ('A' for Active; 'I' for Inactive)
REMARK    1  A    between atoms: O1_2  and  C2_3 
REMARK    2  A    between atoms: C13_17  and  O2_18 
REMARK    3  A    between atoms: O2_18  and  C14_19 
REMARK    4  A    between atoms: C14_19  and  C15_20 
REMARK    5  A    between atoms: C15_20  and  N3_21 
ROOT
HETATM    1  C2  UNL     1      23.416   1.892  50.782  1.00  0.00     0.103 C 
HETATM    2  C3  UNL     1      22.569   1.994  49.741  1.00  0.00     0.069 C 
HETATM    3  C4  UNL     1      21.279   1.418  50.078  1.00  0.00     0.069 C 
HETATM    4  N1  UNL     1      20.328   1.736  49.230  1.00  0.00    -0.178 NA
HETATM    5  N2  UNL     1      19.004   1.321  49.368  1.00  0.00    -0.278 N 
HETATM    6  C5  UNL     1      18.677   0.532  50.504  1.00  0.00     0.057 A 
HETATM    7  C6  UNL     1      17.341   0.177  50.674  1.00  0.00     0.034 A 
HETATM    8  C7  UNL     1      16.993  -0.541  51.826  1.00  0.00     0.044 A 
HETATM    9  C8  UNL     1      17.958  -0.892  52.777  1.00  0.00     0.117 A 
HETATM   10  F1  UNL     1      17.567  -1.584  53.874  1.00  0.00    -0.206 F 
HETATM   11  C9  UNL     1      19.296  -0.533  52.600  1.00  0.00     0.052 A 
HETATM   12  C10 UNL     1      19.603   0.171  51.457  1.00  0.00    -0.013 A 
HETATM   13  C11 UNL     1      20.971   0.508  51.173  1.00  0.00     0.100 C 
HETATM   14  C12 UNL     1      21.969   0.573  52.240  1.00  0.00     0.028 C 
HETATM   15  C13 UNL     1      23.114   1.210  52.036  1.00  0.00     0.099 C 
HETATM   16  H5  UNL     1      18.285   1.572  48.678  1.00  0.00     0.189 HD
ENDROOT
BRANCH  15  17
HETATM   17  O2  UNL     1      24.035   1.204  53.076  1.00  0.00    -0.347 OA
BRANCH  17  18
HETATM   18  C14 UNL     1      24.559   0.026  53.656  1.00  0.00     0.196 C 
BRANCH  18  19
HETATM   19  C15 UNL     1      25.742  -0.394  52.812  1.00  0.00     0.156 C 
BRANCH  19  20
HETATM   20  N3  UNL     1      26.949  -0.191  53.560  1.00  0.00    -0.348 N 
HETATM   21  C16 UNL     1      28.179  -0.578  53.227  1.00  0.00     0.111 A 
HETATM   22  C17 UNL     1      29.094  -0.210  54.189  1.00  0.00     0.135 A 
HETATM   23  N4  UNL     1      28.385   0.433  55.153  1.00  0.00    -0.255 NA
HETATM   24  C18 UNL     1      27.109   0.422  54.739  1.00  0.00     0.209 A 
ENDBRANCH  19  20
ENDBRANCH  18  19
ENDBRANCH  17  18
ENDBRANCH  15  17
BRANCH   1  25
HETATM   25  O1  UNL     1      24.692   2.424  50.674  1.00  0.00    -0.353 OA
HETATM   26  C1  UNL     1      24.885   3.839  50.664  1.00  0.00     0.210 C 
ENDBRANCH   1  25
TORSDOF 5
ENDMDL
