MODEL 1
REMARK VINA RESULT:      -7.4      0.000      0.000
REMARK  4 active torsions:
REMARK  status: ('A' for Active; 'I' for Inactive)
REMARK    1  A    between atoms: C2_2  and  C3_3 
REMARK    2  A    between atoms: C6_8  and  C7_9 
REMARK    3  A    between atoms: C12_14  and  C13_15 
REMARK    4  A    between atoms: C13_15  and  S1_16 
ROOT
HETATM    1  C7  UNL     1      25.118   1.623  53.241  1.00  0.00     0.076 C 
HETATM    2  C8  UNL     1      24.758   3.164  53.561  1.00  0.00     0.042 C 
HETATM    3  C9  UNL     1      23.305   3.192  53.119  1.00  0.00    -0.029 C 
HETATM    4  C10 UNL     1      22.660   3.811  52.133  1.00  0.00    -0.025 C 
HETATM    5  C11 UNL     1      22.495   4.682  50.952  1.00  0.00     0.082 C 
HETATM    6  C12 UNL     1      22.066   3.884  49.723  1.00  0.00     0.025 C 
HETATM    7  N3  UNL     1      22.275   2.582  49.416  1.00  0.00    -0.257 NA
HETATM    8  C14 UNL     1      23.031   1.848  50.418  1.00  0.00     0.058 A 
HETATM    9  C15 UNL     1      22.227   1.062  51.166  1.00  0.00     0.032 A 
HETATM   10  C16 UNL     1      23.277   0.932  52.033  1.00  0.00     0.012 A 
HETATM   11  C17 UNL     1      24.489   1.512  51.865  1.00  0.00    -0.026 A 
HETATM   12  C18 UNL     1      25.319   2.282  51.136  1.00  0.00     0.043 A 
HETATM   13 CL1  UNL     1      26.915   2.873  51.142  1.00  0.00    -0.084 Cl
HETATM   14  C19 UNL     1      24.261   2.418  50.265  1.00  0.00     0.056 A 
ENDROOT
BRANCH   1  15
HETATM   15  C6  UNL     1      26.506   1.486  53.374  1.00  0.00     0.056 A 
HETATM   16  C3  UNL     1      27.047   0.234  53.204  1.00  0.00     0.006 A 
HETATM   17  C4  UNL     1      28.376  -0.107  53.335  1.00  0.00     0.131 A 
HETATM   18  N1  UNL     1      29.210   0.905  53.664  1.00  0.00    -0.253 NA
HETATM   19  C5  UNL     1      28.698   2.156  53.838  1.00  0.00     0.232 A 
HETATM   20  N2  UNL     1      27.393   2.457  53.702  1.00  0.00    -0.245 NA
BRANCH  16  21
HETATM   21  C2  UNL     1      26.152  -0.836  52.851  1.00  0.00     0.005 C 
HETATM   22  C1  UNL     1      26.612  -1.966  52.364  1.00  0.00     0.012 C 
ENDBRANCH  16  21
ENDBRANCH   1  15
BRANCH   6  23
HETATM   23  C13 UNL     1      21.418   4.673  48.641  1.00  0.00     0.125 C 
BRANCH  23  24
HETATM   24  S1  UNL     1      21.673   3.857  47.020  1.00  0.00    -0.176 SA
HETATM   25  H15 UNL     1      22.558   2.783  47.219  1.00  0.00     0.102 HD
ENDBRANCH  23  24
ENDBRANCH   6  23
TORSDOF 4
ENDMDL
MODEL 2
REMARK VINA RESULT:      -7.4      3.667      5.856
REMARK  4 active torsions:
REMARK  status: ('A' for Active; 'I' for Inactive)
REMARK    1  A    between atoms: C2_2  and  C3_3 
REMARK    2  A    between atoms: C6_8  and  C7_9 
REMARK    3  A    between atoms: C12_14  and  C13_15 
REMARK    4  A    between atoms: C13_15  and  S1_16 
ROOT
HETATM    1  C7  UNL     1      21.650   0.872  51.556  1.00  0.00     0.076 C 
HETATM    2  C8  UNL     1      21.693   1.417  50.037  1.00  0.00     0.042 C 
HETATM    3  C9  UNL     1      23.026   2.143  50.056  1.00  0.00    -0.029 C 
HETATM    4  C10 UNL     1      23.372   3.425  49.952  1.00  0.00    -0.025 C 
HETATM    5  C11 UNL     1      23.171   4.880  49.793  1.00  0.00     0.082 C 
HETATM    6  C12 UNL     1      23.595   5.643  51.046  1.00  0.00     0.025 C 
HETATM    7  N3  UNL     1      23.645   5.236  52.336  1.00  0.00    -0.257 NA
HETATM    8  C14 UNL     1      23.222   3.861  52.544  1.00  0.00     0.058 A 
HETATM    9  C15 UNL     1      24.278   3.040  52.729  1.00  0.00     0.032 A 
HETATM   10  C16 UNL     1      23.415   1.998  52.529  1.00  0.00     0.012 A 
HETATM   11  C17 UNL     1      22.092   2.134  52.274  1.00  0.00    -0.026 A 
HETATM   12  C18 UNL     1      21.017   2.924  52.096  1.00  0.00     0.043 A 
HETATM   13 CL1  UNL     1      19.345   2.828  51.793  1.00  0.00    -0.084 Cl
HETATM   14  C19 UNL     1      21.885   3.974  52.293  1.00  0.00     0.056 A 
ENDROOT
BRANCH   1  15
HETATM   15  C6  UNL     1      20.361   0.370  51.781  1.00  0.00     0.056 A 
HETATM   16  C3  UNL     1      20.113  -0.249  52.982  1.00  0.00     0.006 A 
HETATM   17  C4  UNL     1      18.929  -0.838  53.368  1.00  0.00     0.131 A 
HETATM   18  N1  UNL     1      17.928  -0.791  52.460  1.00  0.00    -0.253 NA
HETATM   19  C5  UNL     1      18.149  -0.183  51.261  1.00  0.00     0.232 A 
HETATM   20  N2  UNL     1      19.320   0.385  50.913  1.00  0.00    -0.245 NA
BRANCH  16  21
HETATM   21  C2  UNL     1      21.183  -0.291  53.943  1.00  0.00     0.005 C 
HETATM   22  C1  UNL     1      21.473  -1.404  54.580  1.00  0.00     0.012 C 
ENDBRANCH  16  21
ENDBRANCH   1  15
BRANCH   6  23
HETATM   23  C13 UNL     1      23.891   7.087  50.846  1.00  0.00     0.125 C 
BRANCH  23  24
HETATM   24  S1  UNL     1      25.580   7.301  50.167  1.00  0.00    -0.176 SA
HETATM   25  H15 UNL     1      25.528   8.338  49.219  1.00  0.00     0.102 HD
ENDBRANCH  23  24
ENDBRANCH   6  23
TORSDOF 4
ENDMDL
MODEL 3
REMARK VINA RESULT:      -7.3      1.928      2.325
REMARK  4 active torsions:
REMARK  status: ('A' for Active; 'I' for Inactive)
REMARK    1  A    between atoms: C2_2  and  C3_3 
REMARK    2  A    between atoms: C6_8  and  C7_9 
REMARK    3  A    between atoms: C12_14  and  C13_15 
REMARK    4  A    between atoms: C13_15  and  S1_16 
ROOT
HETATM    1  C7  UNL     1      24.029   2.264  53.018  1.00  0.00     0.076 C 
HETATM    2  C8  UNL     1      24.448   3.785  53.362  1.00  0.00     0.042 C 
HETATM    3  C9  UNL     1      23.403   4.535  52.555  1.00  0.00    -0.029 C 
HETATM    4  C10 UNL     1      23.466   5.331  51.489  1.00  0.00    -0.025 C 
HETATM    5  C11 UNL     1      24.101   6.078  50.385  1.00  0.00     0.082 C 
HETATM    6  C12 UNL     1      23.671   5.538  49.024  1.00  0.00     0.025 C 
HETATM    7  N3  UNL     1      23.248   4.300  48.673  1.00  0.00    -0.257 NA
HETATM    8  C14 UNL     1      23.211   3.350  49.773  1.00  0.00     0.058 A 
HETATM    9  C15 UNL     1      21.950   3.150  50.213  1.00  0.00     0.032 A 
HETATM   10  C16 UNL     1      22.501   2.552  51.312  1.00  0.00     0.012 A 
HETATM   11  C17 UNL     1      23.831   2.404  51.520  1.00  0.00    -0.026 A 
HETATM   12  C18 UNL     1      25.100   2.577  51.106  1.00  0.00     0.043 A 
HETATM   13 CL1  UNL     1      26.700   2.249  51.583  1.00  0.00    -0.084 Cl
HETATM   14  C19 UNL     1      24.546   3.184  50.001  1.00  0.00     0.056 A 
ENDROOT
BRANCH   1  15
HETATM   15  C6  UNL     1      25.048   1.433  53.502  1.00  0.00     0.056 A 
HETATM   16  C3  UNL     1      24.827   0.077  53.499  1.00  0.00     0.006 A 
HETATM   17  C4  UNL     1      25.687  -0.891  53.970  1.00  0.00     0.131 A 
HETATM   18  N1  UNL     1      26.855  -0.440  54.479  1.00  0.00    -0.253 NA
HETATM   19  C5  UNL     1      27.098   0.901  54.493  1.00  0.00     0.232 A 
HETATM   20  N2  UNL     1      26.237   1.823  54.024  1.00  0.00    -0.245 NA
BRANCH  16  21
HETATM   21  C2  UNL     1      23.582  -0.394  52.953  1.00  0.00     0.005 C 
HETATM   22  C1  UNL     1      22.670  -0.938  53.727  1.00  0.00     0.012 C 
ENDBRANCH  16  21
ENDBRANCH   1  15
BRANCH   6  23
HETATM   23  C13 UNL     1      23.845   6.473  47.880  1.00  0.00     0.125 C 
BRANCH  23  24
HETATM   24  S1  UNL     1      25.451   7.346  48.012  1.00  0.00    -0.176 SA
HETATM   25  H15 UNL     1      25.607   8.126  46.852  1.00  0.00     0.102 HD
ENDBRANCH  23  24
ENDBRANCH   6  23
TORSDOF 4
ENDMDL
MODEL 4
REMARK VINA RESULT:      -7.1      3.311      4.510
REMARK  4 active torsions:
REMARK  status: ('A' for Active; 'I' for Inactive)
REMARK    1  A    between atoms: C2_2  and  C3_3 
REMARK    2  A    between atoms: C6_8  and  C7_9 
REMARK    3  A    between atoms: C12_14  and  C13_15 
REMARK    4  A    between atoms: C13_15  and  S1_16 
ROOT
HETATM    1  C7  UNL     1      22.682   0.628  51.594  1.00  0.00     0.076 C 
HETATM    2  C8  UNL     1      21.543   0.731  50.454  1.00  0.00     0.042 C 
HETATM    3  C9  UNL     1      22.207   1.713  49.506  1.00  0.00    -0.029 C 
HETATM    4  C10 UNL     1      21.926   2.961  49.136  1.00  0.00    -0.025 C 
HETATM    5  C11 UNL     1      21.178   4.234  49.101  1.00  0.00     0.082 C 
HETATM    6  C12 UNL     1      22.006   5.385  49.667  1.00  0.00     0.025 C 
HETATM    7  N3  UNL     1      23.014   5.368  50.571  1.00  0.00    -0.257 NA
HETATM    8  C14 UNL     1      23.341   4.044  51.074  1.00  0.00     0.058 A 
HETATM    9  C15 UNL     1      24.466   3.562  50.504  1.00  0.00     0.032 A 
HETATM   10  C16 UNL     1      24.115   2.340  51.008  1.00  0.00     0.012 A 
HETATM   11  C17 UNL     1      23.003   2.103  51.744  1.00  0.00    -0.026 A 
HETATM   12  C18 UNL     1      21.881   2.555  52.334  1.00  0.00     0.043 A 
HETATM   13 CL1  UNL     1      20.582   2.009  53.289  1.00  0.00    -0.084 Cl
HETATM   14  C19 UNL     1      22.230   3.784  51.823  1.00  0.00     0.056 A 
ENDROOT
BRANCH   1  15
HETATM   15  C6  UNL     1      22.126  -0.067  52.676  1.00  0.00     0.056 A 
HETATM   16  C3  UNL     1      22.969  -0.470  53.682  1.00  0.00     0.006 A 
HETATM   17  C4  UNL     1      22.619  -1.196  54.800  1.00  0.00     0.131 A 
HETATM   18  N1  UNL     1      21.313  -1.534  54.893  1.00  0.00    -0.253 NA
HETATM   19  C5  UNL     1      20.456  -1.146  53.907  1.00  0.00     0.232 A 
HETATM   20  N2  UNL     1      20.830  -0.436  52.826  1.00  0.00    -0.245 NA
BRANCH  16  21
HETATM   21  C2  UNL     1      24.357  -0.105  53.576  1.00  0.00     0.005 C 
HETATM   22  C1  UNL     1      25.238  -0.544  54.446  1.00  0.00     0.012 C 
ENDBRANCH  16  21
ENDBRANCH   1  15
BRANCH   6  23
HETATM   23  C13 UNL     1      21.574   6.747  49.255  1.00  0.00     0.125 C 
BRANCH  23  24
HETATM   24  S1  UNL     1      22.964   7.931  49.416  1.00  0.00    -0.176 SA
HETATM   25  H15 UNL     1      23.292   8.379  48.124  1.00  0.00     0.102 HD
ENDBRANCH  23  24
ENDBRANCH   6  23
TORSDOF 4
ENDMDL
MODEL 5
REMARK VINA RESULT:      -7.0      2.958      3.832
REMARK  4 active torsions:
REMARK  status: ('A' for Active; 'I' for Inactive)
REMARK    1  A    between atoms: C2_2  and  C3_3 
REMARK    2  A    between atoms: C6_8  and  C7_9 
REMARK    3  A    between atoms: C12_14  and  C13_15 
REMARK    4  A    between atoms: C13_15  and  S1_16 
ROOT
HETATM    1  C7  UNL     1      23.174   2.612  52.338  1.00  0.00     0.076 C 
HETATM    2  C8  UNL     1      22.143   3.810  52.005  1.00  0.00     0.042 C 
HETATM    3  C9  UNL     1      20.874   3.242  52.615  1.00  0.00    -0.029 C 
HETATM    4  C10 UNL     1      19.716   2.830  52.102  1.00  0.00    -0.025 C 
HETATM    5  C11 UNL     1      18.723   2.536  51.050  1.00  0.00     0.082 C 
HETATM    6  C12 UNL     1      18.442   1.039  50.947  1.00  0.00     0.025 C 
HETATM    7  N3  UNL     1      19.229  -0.017  51.265  1.00  0.00    -0.257 NA
HETATM    8  C14 UNL     1      20.539   0.350  51.776  1.00  0.00     0.058 A 
HETATM    9  C15 UNL     1      20.605   0.210  53.118  1.00  0.00     0.032 A 
HETATM   10  C16 UNL     1      21.761   0.940  53.068  1.00  0.00     0.012 A 
HETATM   11  C17 UNL     1      22.309   1.434  51.932  1.00  0.00    -0.026 A 
HETATM   12  C18 UNL     1      22.279   1.581  50.595  1.00  0.00     0.043 A 
HETATM   13 CL1  UNL     1      23.173   2.277  49.325  1.00  0.00    -0.084 Cl
HETATM   14  C19 UNL     1      21.113   0.851  50.644  1.00  0.00     0.056 A 
ENDROOT
BRANCH   1  15
HETATM   15  C6  UNL     1      24.355   2.873  51.631  1.00  0.00     0.056 A 
HETATM   16  C3  UNL     1      25.419   2.025  51.823  1.00  0.00     0.006 A 
HETATM   17  C4  UNL     1      26.669   2.140  51.253  1.00  0.00     0.131 A 
HETATM   18  N1  UNL     1      26.841   3.198  50.429  1.00  0.00    -0.253 NA
HETATM   19  C5  UNL     1      25.801   4.054  50.223  1.00  0.00     0.232 A 
HETATM   20  N2  UNL     1      24.591   3.913  50.795  1.00  0.00    -0.245 NA
BRANCH  16  21
HETATM   21  C2  UNL     1      25.225   0.900  52.699  1.00  0.00     0.005 C 
HETATM   22  C1  UNL     1      25.964  -0.180  52.582  1.00  0.00     0.012 C 
ENDBRANCH  16  21
ENDBRANCH   1  15
BRANCH   6  23
HETATM   23  C13 UNL     1      17.157   0.672  50.294  1.00  0.00     0.125 C 
BRANCH  23  24
HETATM   24  S1  UNL     1      15.778   1.640  51.014  1.00  0.00    -0.176 SA
HETATM   25  H15 UNL     1      15.892   1.566  52.413  1.00  0.00     0.102 HD
ENDBRANCH  23  24
ENDBRANCH   6  23
TORSDOF 4
ENDMDL
MODEL 6
REMARK VINA RESULT:      -6.9      3.035      4.432
REMARK  4 active torsions:
REMARK  status: ('A' for Active; 'I' for Inactive)
REMARK    1  A    between atoms: C2_2  and  C3_3 
REMARK    2  A    between atoms: C6_8  and  C7_9 
REMARK    3  A    between atoms: C12_14  and  C13_15 
REMARK    4  A    between atoms: C13_15  and  S1_16 
ROOT
HETATM    1  C7  UNL     1      23.875   2.017  50.498  1.00  0.00     0.076 C 
HETATM    2  C8  UNL     1      22.630   2.588  49.642  1.00  0.00     0.042 C 
HETATM    3  C9  UNL     1      23.374   3.467  48.652  1.00  0.00    -0.029 C 
HETATM    4  C10 UNL     1      23.418   4.783  48.449  1.00  0.00    -0.025 C 
HETATM    5  C11 UNL     1      23.093   6.205  48.675  1.00  0.00     0.082 C 
HETATM    6  C12 UNL     1      24.317   6.992  49.137  1.00  0.00     0.025 C 
HETATM    7  N3  UNL     1      25.422   6.572  49.799  1.00  0.00    -0.257 NA
HETATM    8  C14 UNL     1      25.422   5.153  50.116  1.00  0.00     0.058 A 
HETATM    9  C15 UNL     1      26.226   4.460  49.281  1.00  0.00     0.032 A 
HETATM   10  C16 UNL     1      25.623   3.326  49.753  1.00  0.00     0.012 A 
HETATM   11  C17 UNL     1      24.646   3.309  50.690  1.00  0.00    -0.026 A 
HETATM   12  C18 UNL     1      23.838   3.970  51.541  1.00  0.00     0.043 A 
HETATM   13 CL1  UNL     1      22.634   3.682  52.708  1.00  0.00    -0.084 Cl
HETATM   14  C19 UNL     1      24.441   5.112  51.063  1.00  0.00     0.056 A 
ENDROOT
BRANCH   1  15
HETATM   15  C6  UNL     1      23.343   1.362  51.617  1.00  0.00     0.056 A 
HETATM   16  C3  UNL     1      24.218   0.730  52.467  1.00  0.00     0.006 A 
HETATM   17  C4  UNL     1      23.884   0.003  53.590  1.00  0.00     0.131 A 
HETATM   18  N1  UNL     1      22.563  -0.083  53.860  1.00  0.00    -0.253 NA
HETATM   19  C5  UNL     1      21.675   0.534  53.031  1.00  0.00     0.232 A 
HETATM   20  N2  UNL     1      22.033   1.239  51.941  1.00  0.00    -0.245 NA
BRANCH  16  21
HETATM   21  C2  UNL     1      25.622   0.830  52.174  1.00  0.00     0.005 C 
HETATM   22  C1  UNL     1      26.419  -0.202  52.333  1.00  0.00     0.012 C 
ENDBRANCH  16  21
ENDBRANCH   1  15
BRANCH   6  23
HETATM   23  C13 UNL     1      24.246   8.464  48.935  1.00  0.00     0.125 C 
BRANCH  23  24
HETATM   24  S1  UNL     1      25.824   9.251  49.436  1.00  0.00    -0.176 SA
HETATM   25  H15 UNL     1      26.222   8.669  50.652  1.00  0.00     0.102 HD
ENDBRANCH  23  24
ENDBRANCH   6  23
TORSDOF 4
ENDMDL
MODEL 7
REMARK VINA RESULT:      -6.9      1.829      2.708
REMARK  4 active torsions:
REMARK  status: ('A' for Active; 'I' for Inactive)
REMARK    1  A    between atoms: C2_2  and  C3_3 
REMARK    2  A    between atoms: C6_8  and  C7_9 
REMARK    3  A    between atoms: C12_14  and  C13_15 
REMARK    4  A    between atoms: C13_15  and  S1_16 
ROOT
HETATM    1  C7  UNL     1      22.455   1.909  52.561  1.00  0.00     0.076 C 
HETATM    2  C8  UNL     1      22.267   3.505  52.397  1.00  0.00     0.042 C 
HETATM    3  C9  UNL     1      20.952   3.538  51.639  1.00  0.00    -0.029 C 
HETATM    4  C10 UNL     1      20.615   3.918  50.408  1.00  0.00    -0.025 C 
HETATM    5  C11 UNL     1      20.818   4.444  49.043  1.00  0.00     0.082 C 
HETATM    6  C12 UNL     1      20.532   3.381  47.985  1.00  0.00     0.025 C 
HETATM    7  N3  UNL     1      20.605   2.031  48.067  1.00  0.00    -0.257 NA
HETATM    8  C14 UNL     1      21.029   1.536  49.366  1.00  0.00     0.058 A 
HETATM    9  C15 UNL     1      19.986   1.058  50.079  1.00  0.00     0.032 A 
HETATM   10  C16 UNL     1      20.811   1.079  51.170  1.00  0.00     0.012 A 
HETATM   11  C17 UNL     1      22.104   1.482  51.148  1.00  0.00    -0.026 A 
HETATM   12  C18 UNL     1      23.166   1.947  50.464  1.00  0.00     0.043 A 
HETATM   13 CL1  UNL     1      24.798   2.373  50.692  1.00  0.00    -0.084 Cl
HETATM   14  C19 UNL     1      22.335   1.931  49.366  1.00  0.00     0.056 A 
ENDROOT
BRANCH   1  15
HETATM   15  C6  UNL     1      23.753   1.691  53.041  1.00  0.00     0.056 A 
HETATM   16  C3  UNL     1      24.096   0.412  53.405  1.00  0.00     0.006 A 
HETATM   17  C4  UNL     1      25.304   0.010  53.935  1.00  0.00     0.131 A 
HETATM   18  N1  UNL     1      26.223   0.986  54.105  1.00  0.00    -0.253 NA
HETATM   19  C5  UNL     1      25.906   2.264  53.752  1.00  0.00     0.232 A 
HETATM   20  N2  UNL     1      24.716   2.625  53.235  1.00  0.00    -0.245 NA
BRANCH  16  21
HETATM   21  C2  UNL     1      23.113  -0.622  53.219  1.00  0.00     0.005 C 
HETATM   22  C1  UNL     1      22.501  -1.164  54.248  1.00  0.00     0.012 C 
ENDBRANCH  16  21
ENDBRANCH   1  15
BRANCH   6  23
HETATM   23  C13 UNL     1      20.235   3.897  46.622  1.00  0.00     0.125 C 
BRANCH  23  24
HETATM   24  S1  UNL     1      21.762   3.931  45.609  1.00  0.00    -0.176 SA
HETATM   25  H15 UNL     1      22.141   5.276  45.454  1.00  0.00     0.102 HD
ENDBRANCH  23  24
ENDBRANCH   6  23
TORSDOF 4
ENDMDL
MODEL 8
REMARK VINA RESULT:      -6.5      9.644     10.771
REMARK  4 active torsions:
REMARK  status: ('A' for Active; 'I' for Inactive)
REMARK    1  A    between atoms: C2_2  and  C3_3 
REMARK    2  A    between atoms: C6_8  and  C7_9 
REMARK    3  A    between atoms: C12_14  and  C13_15 
REMARK    4  A    between atoms: C13_15  and  S1_16 
ROOT
HETATM    1  C7  UNL     1      32.009   5.725  46.726  1.00  0.00     0.076 C 
HETATM    2  C8  UNL     1      31.320   5.755  48.186  1.00  0.00     0.042 C 
HETATM    3  C9  UNL     1      30.302   6.862  47.974  1.00  0.00    -0.029 C 
HETATM    4  C10 UNL     1      30.163   8.086  48.480  1.00  0.00    -0.025 C 
HETATM    5  C11 UNL     1      30.493   9.259  49.313  1.00  0.00     0.082 C 
HETATM    6  C12 UNL     1      30.863  10.468  48.456  1.00  0.00     0.025 C 
HETATM    7  N3  UNL     1      31.382  10.521  47.207  1.00  0.00    -0.257 NA
HETATM    8  C14 UNL     1      31.624   9.220  46.606  1.00  0.00     0.058 A 
HETATM    9  C15 UNL     1      30.675   8.910  45.697  1.00  0.00     0.032 A 
HETATM   10  C16 UNL     1      31.150   7.628  45.742  1.00  0.00     0.012 A 
HETATM   11  C17 UNL     1      32.183   7.217  46.514  1.00  0.00    -0.026 A 
HETATM   12  C18 UNL     1      33.147   7.496  47.412  1.00  0.00     0.043 A 
HETATM   13 CL1  UNL     1      34.419   6.745  48.257  1.00  0.00    -0.084 Cl
HETATM   14  C19 UNL     1      32.667   8.786  47.371  1.00  0.00     0.056 A 
ENDROOT
BRANCH   1  15
HETATM   15  C6  UNL     1      33.143   4.908  46.819  1.00  0.00     0.056 A 
HETATM   16  C3  UNL     1      33.853   4.662  45.669  1.00  0.00     0.006 A 
HETATM   17  C4  UNL     1      34.965   3.855  45.552  1.00  0.00     0.131 A 
HETATM   18  N1  UNL     1      35.377   3.258  46.693  1.00  0.00    -0.253 NA
HETATM   19  C5  UNL     1      34.689   3.486  47.847  1.00  0.00     0.232 A 
HETATM   20  N2  UNL     1      33.606   4.281  47.928  1.00  0.00    -0.245 NA
BRANCH  16  21
HETATM   21  C2  UNL     1      33.409   5.303  44.460  1.00  0.00     0.005 C 
HETATM   22  C1  UNL     1      33.473   4.682  43.305  1.00  0.00     0.012 C 
ENDBRANCH  16  21
ENDBRANCH   1  15
BRANCH   6  23
HETATM   23  C13 UNL     1      30.744  11.789  49.129  1.00  0.00     0.125 C 
BRANCH  23  24
HETATM   24  S1  UNL     1      29.103  12.531  48.789  1.00  0.00    -0.176 SA
HETATM   25  H15 UNL     1      28.279  11.519  48.267  1.00  0.00     0.102 HD
ENDBRANCH  23  24
ENDBRANCH   6  23
TORSDOF 4
ENDMDL
MODEL 9
REMARK VINA RESULT:      -6.5      5.715      7.527
REMARK  4 active torsions:
REMARK  status: ('A' for Active; 'I' for Inactive)
REMARK    1  A    between atoms: C2_2  and  C3_3 
REMARK    2  A    between atoms: C6_8  and  C7_9 
REMARK    3  A    between atoms: C12_14  and  C13_15 
REMARK    4  A    between atoms: C13_15  and  S1_16 
ROOT
HETATM    1  C7  UNL     1      25.201   5.964  48.498  1.00  0.00     0.076 C 
HETATM    2  C8  UNL     1      24.445   7.190  47.768  1.00  0.00     0.042 C 
HETATM    3  C9  UNL     1      25.630   7.874  47.108  1.00  0.00    -0.029 C 
HETATM    4  C10 UNL     1      26.221   9.053  47.285  1.00  0.00    -0.025 C 
HETATM    5  C11 UNL     1      26.449  10.385  47.882  1.00  0.00     0.082 C 
HETATM    6  C12 UNL     1      27.787  10.447  48.615  1.00  0.00     0.025 C 
HETATM    7  N3  UNL     1      28.508   9.458  49.195  1.00  0.00    -0.257 NA
HETATM    8  C14 UNL     1      27.897   8.142  49.100  1.00  0.00     0.058 A 
HETATM    9  C15 UNL     1      28.492   7.387  48.151  1.00  0.00     0.032 A 
HETATM   10  C16 UNL     1      27.421   6.542  48.251  1.00  0.00     0.012 A 
HETATM   11  C17 UNL     1      26.373   6.725  49.089  1.00  0.00    -0.026 A 
HETATM   12  C18 UNL     1      25.760   7.449  50.043  1.00  0.00     0.043 A 
HETATM   13 CL1  UNL     1      24.361   7.437  51.012  1.00  0.00    -0.084 Cl
HETATM   14  C19 UNL     1      26.835   8.303  49.941  1.00  0.00     0.056 A 
ENDROOT
BRANCH   1  15
HETATM   15  C6  UNL     1      24.274   5.358  49.357  1.00  0.00     0.056 A 
HETATM   16  C3  UNL     1      24.658   4.212  50.010  1.00  0.00     0.006 A 
HETATM   17  C4  UNL     1      23.878   3.454  50.856  1.00  0.00     0.131 A 
HETATM   18  N1  UNL     1      22.616   3.900  51.047  1.00  0.00    -0.253 NA
HETATM   19  C5  UNL     1      22.211   5.035  50.410  1.00  0.00     0.232 A 
HETATM   20  N2  UNL     1      22.999   5.754  49.588  1.00  0.00    -0.245 NA
BRANCH  16  21
HETATM   21  C2  UNL     1      26.003   3.745  49.804  1.00  0.00     0.005 C 
HETATM   22  C1  UNL     1      26.543   2.864  50.615  1.00  0.00     0.012 C 
ENDBRANCH  16  21
ENDBRANCH   1  15
BRANCH   6  23
HETATM   23  C13 UNL     1      28.336  11.813  48.831  1.00  0.00     0.125 C 
BRANCH  23  24
HETATM   24  S1  UNL     1      30.167  11.778  48.778  1.00  0.00    -0.176 SA
HETATM   25  H15 UNL     1      30.639  12.435  49.928  1.00  0.00     0.102 HD
ENDBRANCH  23  24
ENDBRANCH   6  23
TORSDOF 4
ENDMDL
