MODEL 1
REMARK VINA RESULT:      -7.8      0.000      0.000
REMARK  8 active torsions:
REMARK  status: ('A' for Active; 'I' for Inactive)
REMARK    1  A    between atoms: C1_2  and  C2_3 
REMARK    2  A    between atoms: C1_2  and  C12_17 
REMARK    3  A    between atoms: C2_3  and  C3_4 
REMARK    4  A    between atoms: C7_10  and  N3_11 
REMARK    5  A    between atoms: N3_11  and  C8_12 
REMARK    6  A    between atoms: C12_17  and  N4_18 
REMARK       I    between atoms: N4_18  and  C13_19 
REMARK    7  A    between atoms: C13_19  and  S1_21 
REMARK    8  A    between atoms: S1_21  and  C14_22 
ROOT
HETATM    1  C2  UNL     1      25.985   2.510  50.737  1.00  0.00     0.107 C 
ENDROOT
BRANCH   1   2
HETATM    2  C1  UNL     1      26.263   3.785  49.971  1.00  0.00     0.147 C 
HETATM    3  O1  UNL     1      27.200   3.453  49.237  1.00  0.00    -0.296 OA
BRANCH   2   4
HETATM    4  C12 UNL     1      25.454   5.034  50.217  1.00  0.00     0.202 C 
BRANCH   4   5
HETATM    5  N4  UNL     1      24.442   4.778  51.208  1.00  0.00    -0.345 N 
HETATM    6  C13 UNL     1      23.131   4.933  50.656  1.00  0.00     0.285 C 
HETATM    7  O2  UNL     1      23.013   5.260  49.425  1.00  0.00    -0.260 OA
HETATM    8  H12 UNL     1      24.548   4.510  52.211  1.00  0.00     0.163 HD
BRANCH   6   9
HETATM    9  S1  UNL     1      21.658   4.676  51.670  1.00  0.00    -0.030 SA
BRANCH   9  10
HETATM   10  C14 UNL     1      20.998   3.040  51.309  1.00  0.00     0.010 A 
HETATM   11  C15 UNL     1      19.815   2.694  51.959  1.00  0.00     0.019 A 
HETATM   12  C16 UNL     1      19.277   1.450  51.705  1.00  0.00     0.001 A 
HETATM   13  C17 UNL     1      19.910   0.583  50.825  1.00  0.00     0.000 A 
HETATM   14  C18 UNL     1      21.089   0.946  50.186  1.00  0.00     0.001 A 
HETATM   15  C19 UNL     1      21.659   2.189  50.417  1.00  0.00     0.019 A 
ENDBRANCH   9  10
ENDBRANCH   6   9
ENDBRANCH   4   5
ENDBRANCH   2   4
ENDBRANCH   1   2
BRANCH   1  16
HETATM   16  C3  UNL     1      26.909   2.306  51.845  1.00  0.00    -0.007 C 
HETATM   17  C4  UNL     1      27.519   1.698  52.877  1.00  0.00     0.004 A 
HETATM   18  C5  UNL     1      28.632   2.374  53.624  1.00  0.00     0.192 A 
HETATM   19  C7  UNL     1      27.085   0.341  53.277  1.00  0.00     0.137 A 
HETATM   20  N1  UNL     1      29.127   1.527  54.624  1.00  0.00    -0.278 NA
HETATM   21  C6  UNL     1      28.726   0.358  54.924  1.00  0.00     0.229 A 
HETATM   22  N2  UNL     1      27.665  -0.311  54.260  1.00  0.00    -0.224 NA
BRANCH  19  23
HETATM   23  N3  UNL     1      25.986  -0.326  52.620  1.00  0.00    -0.340 N 
HETATM   24  H7  UNL     1      26.293  -0.760  51.692  1.00  0.00     0.167 HD
BRANCH  23  25
HETATM   25  C8  UNL     1      24.687  -0.332  53.238  1.00  0.00     0.036 A 
HETATM   26  C9  UNL     1      23.698   0.409  52.736  1.00  0.00     0.048 A 
HETATM   27  C10 UNL     1      22.871  -0.128  53.827  1.00  0.00     0.015 A 
HETATM   28 BR1  UNL     1      21.121  -0.069  54.571  1.00  0.00    -0.051 Br
HETATM   29  C11 UNL     1      23.866  -0.864  54.321  1.00  0.00     0.048 A 
ENDBRANCH  23  25
ENDBRANCH  19  23
ENDBRANCH   1  16
TORSDOF 8
ENDMDL
MODEL 2
REMARK VINA RESULT:      -7.7      2.901      5.760
REMARK  8 active torsions:
REMARK  status: ('A' for Active; 'I' for Inactive)
REMARK    1  A    between atoms: C1_2  and  C2_3 
REMARK    2  A    between atoms: C1_2  and  C12_17 
REMARK    3  A    between atoms: C2_3  and  C3_4 
REMARK    4  A    between atoms: C7_10  and  N3_11 
REMARK    5  A    between atoms: N3_11  and  C8_12 
REMARK    6  A    between atoms: C12_17  and  N4_18 
REMARK       I    between atoms: N4_18  and  C13_19 
REMARK    7  A    between atoms: C13_19  and  S1_21 
REMARK    8  A    between atoms: S1_21  and  C14_22 
ROOT
HETATM    1  C2  UNL     1      22.459   2.573  51.477  1.00  0.00     0.107 C 
ENDROOT
BRANCH   1   2
HETATM    2  C1  UNL     1      23.444   3.640  51.905  1.00  0.00     0.147 C 
HETATM    3  O1  UNL     1      24.521   3.035  51.867  1.00  0.00    -0.296 OA
BRANCH   2   4
HETATM    4  C12 UNL     1      22.983   5.036  52.243  1.00  0.00     0.202 C 
BRANCH   4   5
HETATM    5  N4  UNL     1      24.005   5.989  51.897  1.00  0.00    -0.345 N 
HETATM    6  C13 UNL     1      23.812   6.488  50.570  1.00  0.00     0.285 C 
HETATM    7  O2  UNL     1      22.820   6.061  49.886  1.00  0.00    -0.260 OA
HETATM    8  H12 UNL     1      24.811   6.333  52.462  1.00  0.00     0.163 HD
BRANCH   6   9
HETATM    9  S1  UNL     1      24.946   7.703  49.859  1.00  0.00    -0.030 SA
BRANCH   9  10
HETATM   10  C14 UNL     1      26.381   6.830  49.211  1.00  0.00     0.010 A 
HETATM   11  C15 UNL     1      26.337   5.438  49.272  1.00  0.00     0.019 A 
HETATM   12  C16 UNL     1      27.417   4.735  48.783  1.00  0.00     0.001 A 
HETATM   13  C17 UNL     1      28.505   5.410  48.250  1.00  0.00     0.000 A 
HETATM   14  C18 UNL     1      28.531   6.798  48.196  1.00  0.00     0.001 A 
HETATM   15  C19 UNL     1      27.463   7.539  48.679  1.00  0.00     0.019 A 
ENDBRANCH   9  10
ENDBRANCH   6   9
ENDBRANCH   4   5
ENDBRANCH   2   4
ENDBRANCH   1   2
BRANCH   1  16
HETATM   16  C3  UNL     1      22.180   1.609  52.533  1.00  0.00    -0.007 C 
HETATM   17  C4  UNL     1      22.387   0.614  53.412  1.00  0.00     0.004 A 
HETATM   18  C5  UNL     1      21.291   0.152  54.329  1.00  0.00     0.192 A 
HETATM   19  C7  UNL     1      23.717  -0.032  53.476  1.00  0.00     0.137 A 
HETATM   20  N1  UNL     1      21.762  -0.863  55.171  1.00  0.00    -0.278 NA
HETATM   21  C6  UNL     1      22.924  -1.379  55.196  1.00  0.00     0.229 A 
HETATM   22  N2  UNL     1      23.982  -0.990  54.335  1.00  0.00    -0.224 NA
BRANCH  19  23
HETATM   23  N3  UNL     1      24.785   0.345  52.580  1.00  0.00    -0.340 N 
HETATM   24  H7  UNL     1      24.426   0.969  51.788  1.00  0.00     0.167 HD
BRANCH  23  25
HETATM   25  C8  UNL     1      26.121  -0.129  52.826  1.00  0.00     0.036 A 
HETATM   26  C9  UNL     1      27.050   0.692  53.316  1.00  0.00     0.048 A 
HETATM   27  C10 UNL     1      27.963  -0.458  53.254  1.00  0.00     0.015 A 
HETATM   28 BR1  UNL     1      29.754  -0.990  53.613  1.00  0.00    -0.051 Br
HETATM   29  C11 UNL     1      27.028  -1.271  52.764  1.00  0.00     0.048 A 
ENDBRANCH  23  25
ENDBRANCH  19  23
ENDBRANCH   1  16
TORSDOF 8
ENDMDL
MODEL 3
REMARK VINA RESULT:      -7.6      5.539      8.755
REMARK  8 active torsions:
REMARK  status: ('A' for Active; 'I' for Inactive)
REMARK    1  A    between atoms: C1_2  and  C2_3 
REMARK    2  A    between atoms: C1_2  and  C12_17 
REMARK    3  A    between atoms: C2_3  and  C3_4 
REMARK    4  A    between atoms: C7_10  and  N3_11 
REMARK    5  A    between atoms: N3_11  and  C8_12 
REMARK    6  A    between atoms: C12_17  and  N4_18 
REMARK       I    between atoms: N4_18  and  C13_19 
REMARK    7  A    between atoms: C13_19  and  S1_21 
REMARK    8  A    between atoms: S1_21  and  C14_22 
ROOT
HETATM    1  C2  UNL     1      27.830   4.914  48.560  1.00  0.00     0.107 C 
ENDROOT
BRANCH   1   2
HETATM    2  C1  UNL     1      26.532   4.757  49.325  1.00  0.00     0.147 C 
HETATM    3  O1  UNL     1      26.079   5.906  49.313  1.00  0.00    -0.296 OA
BRANCH   2   4
HETATM    4  C12 UNL     1      26.108   3.417  49.873  1.00  0.00     0.202 C 
BRANCH   4   5
HETATM    5  N4  UNL     1      26.712   3.197  51.160  1.00  0.00    -0.345 N 
HETATM    6  C13 UNL     1      25.936   2.284  51.942  1.00  0.00     0.285 C 
HETATM    7  O2  UNL     1      24.865   1.797  51.443  1.00  0.00    -0.260 OA
HETATM    8  H12 UNL     1      27.589   3.598  51.559  1.00  0.00     0.163 HD
BRANCH   6   9
HETATM    9  S1  UNL     1      26.451   1.818  53.611  1.00  0.00    -0.030 SA
BRANCH   9  10
HETATM   10  C14 UNL     1      27.622   0.457  53.485  1.00  0.00     0.010 A 
HETATM   11  C15 UNL     1      27.096  -0.779  53.115  1.00  0.00     0.019 A 
HETATM   12  C16 UNL     1      27.964  -1.845  53.005  1.00  0.00     0.001 A 
HETATM   13  C17 UNL     1      29.317  -1.672  53.259  1.00  0.00     0.000 A 
HETATM   14  C18 UNL     1      29.824  -0.431  53.626  1.00  0.00     0.001 A 
HETATM   15  C19 UNL     1      28.981   0.663  53.746  1.00  0.00     0.019 A 
ENDBRANCH   9  10
ENDBRANCH   6   9
ENDBRANCH   4   5
ENDBRANCH   2   4
ENDBRANCH   1   2
BRANCH   1  16
HETATM   16  C3  UNL     1      28.108   6.298  48.202  1.00  0.00    -0.007 C 
HETATM   17  C4  UNL     1      28.790   7.448  48.068  1.00  0.00     0.004 A 
HETATM   18  C5  UNL     1      28.155   8.654  47.437  1.00  0.00     0.192 A 
HETATM   19  C7  UNL     1      30.189   7.521  48.547  1.00  0.00     0.137 A 
HETATM   20  N1  UNL     1      29.076   9.709  47.378  1.00  0.00    -0.278 NA
HETATM   21  C6  UNL     1      30.278   9.719  47.795  1.00  0.00     0.229 A 
HETATM   22  N2  UNL     1      30.911   8.611  48.415  1.00  0.00    -0.224 NA
BRANCH  19  23
HETATM   23  N3  UNL     1      30.822   6.403  49.204  1.00  0.00    -0.340 N 
HETATM   24  H7  UNL     1      30.570   6.368  50.243  1.00  0.00     0.167 HD
BRANCH  23  25
HETATM   25  C8  UNL     1      31.671   5.521  48.447  1.00  0.00     0.036 A 
HETATM   26  C9  UNL     1      32.993   5.546  48.615  1.00  0.00     0.048 A 
HETATM   27  C10 UNL     1      33.047   4.486  47.598  1.00  0.00     0.015 A 
HETATM   28 BR1  UNL     1      34.250   3.361  46.646  1.00  0.00    -0.051 Br
HETATM   29  C11 UNL     1      31.724   4.469  47.437  1.00  0.00     0.048 A 
ENDBRANCH  23  25
ENDBRANCH  19  23
ENDBRANCH   1  16
TORSDOF 8
ENDMDL
MODEL 4
REMARK VINA RESULT:      -7.5      2.918      5.428
REMARK  8 active torsions:
REMARK  status: ('A' for Active; 'I' for Inactive)
REMARK    1  A    between atoms: C1_2  and  C2_3 
REMARK    2  A    between atoms: C1_2  and  C12_17 
REMARK    3  A    between atoms: C2_3  and  C3_4 
REMARK    4  A    between atoms: C7_10  and  N3_11 
REMARK    5  A    between atoms: N3_11  and  C8_12 
REMARK    6  A    between atoms: C12_17  and  N4_18 
REMARK       I    between atoms: N4_18  and  C13_19 
REMARK    7  A    between atoms: C13_19  and  S1_21 
REMARK    8  A    between atoms: S1_21  and  C14_22 
ROOT
HETATM    1  C2  UNL     1      21.997   1.146  50.590  1.00  0.00     0.107 C 
ENDROOT
BRANCH   1   2
HETATM    2  C1  UNL     1      20.702   1.697  50.032  1.00  0.00     0.147 C 
HETATM    3  O1  UNL     1      20.009   0.680  49.921  1.00  0.00    -0.296 OA
BRANCH   2   4
HETATM    4  C12 UNL     1      20.534   3.171  49.763  1.00  0.00     0.202 C 
BRANCH   4   5
HETATM    5  N4  UNL     1      21.809   3.834  49.842  1.00  0.00    -0.345 N 
HETATM    6  C13 UNL     1      21.896   4.640  51.022  1.00  0.00     0.285 C 
HETATM    7  O2  UNL     1      20.898   4.679  51.820  1.00  0.00    -0.260 OA
HETATM    8  H12 UNL     1      22.620   3.796  49.186  1.00  0.00     0.163 HD
BRANCH   6   9
HETATM    9  S1  UNL     1      23.386   5.595  51.388  1.00  0.00    -0.030 SA
BRANCH   9  10
HETATM   10  C14 UNL     1      24.787   4.788  50.598  1.00  0.00     0.010 A 
HETATM   11  C15 UNL     1      25.461   5.528  49.628  1.00  0.00     0.019 A 
HETATM   12  C16 UNL     1      26.542   4.943  49.003  1.00  0.00     0.001 A 
HETATM   13  C17 UNL     1      26.932   3.656  49.344  1.00  0.00     0.000 A 
HETATM   14  C18 UNL     1      26.249   2.933  50.315  1.00  0.00     0.001 A 
HETATM   15  C19 UNL     1      25.157   3.489  50.964  1.00  0.00     0.019 A 
ENDBRANCH   9  10
ENDBRANCH   6   9
ENDBRANCH   4   5
ENDBRANCH   2   4
ENDBRANCH   1   2
BRANCH   1  16
HETATM   16  C3  UNL     1      21.803   0.389  51.819  1.00  0.00    -0.007 C 
HETATM   17  C4  UNL     1      22.103  -0.235  52.972  1.00  0.00     0.004 A 
HETATM   18  C5  UNL     1      21.036  -0.905  53.789  1.00  0.00     0.192 A 
HETATM   19  C7  UNL     1      23.507  -0.255  53.440  1.00  0.00     0.137 A 
HETATM   20  N1  UNL     1      21.590  -1.446  54.956  1.00  0.00    -0.278 NA
HETATM   21  C6  UNL     1      22.808  -1.428  55.322  1.00  0.00     0.229 A 
HETATM   22  N2  UNL     1      23.852  -0.826  54.573  1.00  0.00    -0.224 NA
BRANCH  19  23
HETATM   23  N3  UNL     1      24.572   0.332  52.663  1.00  0.00    -0.340 N 
HETATM   24  H7  UNL     1      24.187   0.921  51.857  1.00  0.00     0.167 HD
BRANCH  23  25
HETATM   25  C8  UNL     1      25.941   0.077  53.026  1.00  0.00     0.036 A 
HETATM   26  C9  UNL     1      26.721  -0.666  52.240  1.00  0.00     0.048 A 
HETATM   27  C10 UNL     1      27.780  -0.436  53.234  1.00  0.00     0.015 A 
HETATM   28 BR1  UNL     1      29.599  -0.828  53.627  1.00  0.00    -0.051 Br
HETATM   29  C11 UNL     1      26.992   0.305  54.013  1.00  0.00     0.048 A 
ENDBRANCH  23  25
ENDBRANCH  19  23
ENDBRANCH   1  16
TORSDOF 8
ENDMDL
MODEL 5
REMARK VINA RESULT:      -7.4      3.126      5.687
REMARK  8 active torsions:
REMARK  status: ('A' for Active; 'I' for Inactive)
REMARK    1  A    between atoms: C1_2  and  C2_3 
REMARK    2  A    between atoms: C1_2  and  C12_17 
REMARK    3  A    between atoms: C2_3  and  C3_4 
REMARK    4  A    between atoms: C7_10  and  N3_11 
REMARK    5  A    between atoms: N3_11  and  C8_12 
REMARK    6  A    between atoms: C12_17  and  N4_18 
REMARK       I    between atoms: N4_18  and  C13_19 
REMARK    7  A    between atoms: C13_19  and  S1_21 
REMARK    8  A    between atoms: S1_21  and  C14_22 
ROOT
HETATM    1  C2  UNL     1      25.828   2.546  50.807  1.00  0.00     0.107 C 
ENDROOT
BRANCH   1   2
HETATM    2  C1  UNL     1      26.196   3.730  49.937  1.00  0.00     0.147 C 
HETATM    3  O1  UNL     1      27.065   3.255  49.199  1.00  0.00    -0.296 OA
BRANCH   2   4
HETATM    4  C12 UNL     1      25.521   5.067  50.116  1.00  0.00     0.202 C 
BRANCH   4   5
HETATM    5  N4  UNL     1      26.479   6.128  49.944  1.00  0.00    -0.345 N 
HETATM    6  C13 UNL     1      25.865   7.408  50.127  1.00  0.00     0.285 C 
HETATM    7  O2  UNL     1      24.618   7.462  50.406  1.00  0.00    -0.260 OA
HETATM    8  H12 UNL     1      27.496   6.075  49.718  1.00  0.00     0.163 HD
BRANCH   6   9
HETATM    9  S1  UNL     1      26.825   8.931  49.970  1.00  0.00    -0.030 SA
BRANCH   9  10
HETATM   10  C14 UNL     1      28.146   8.650  48.781  1.00  0.00     0.010 A 
HETATM   11  C15 UNL     1      27.767   8.111  47.553  1.00  0.00     0.019 A 
HETATM   12  C16 UNL     1      28.752   7.884  46.614  1.00  0.00     0.001 A 
HETATM   13  C17 UNL     1      30.074   8.191  46.903  1.00  0.00     0.000 A 
HETATM   14  C18 UNL     1      30.433   8.729  48.133  1.00  0.00     0.001 A 
HETATM   15  C19 UNL     1      29.470   8.970  49.101  1.00  0.00     0.019 A 
ENDBRANCH   9  10
ENDBRANCH   6   9
ENDBRANCH   4   5
ENDBRANCH   2   4
ENDBRANCH   1   2
BRANCH   1  16
HETATM   16  C3  UNL     1      26.777   2.328  51.890  1.00  0.00    -0.007 C 
HETATM   17  C4  UNL     1      27.413   1.705  52.897  1.00  0.00     0.004 A 
HETATM   18  C5  UNL     1      28.537   2.375  53.634  1.00  0.00     0.192 A 
HETATM   19  C7  UNL     1      26.998   0.336  53.280  1.00  0.00     0.137 A 
HETATM   20  N1  UNL     1      29.059   1.512  54.606  1.00  0.00    -0.278 NA
HETATM   21  C6  UNL     1      28.673   0.334  54.891  1.00  0.00     0.229 A 
HETATM   22  N2  UNL     1      27.604  -0.330  54.237  1.00  0.00    -0.224 NA
BRANCH  19  23
HETATM   23  N3  UNL     1      25.891  -0.327  52.633  1.00  0.00    -0.340 N 
HETATM   24  H7  UNL     1      26.188  -0.766  51.704  1.00  0.00     0.167 HD
BRANCH  23  25
HETATM   25  C8  UNL     1      24.595  -0.321  53.259  1.00  0.00     0.036 A 
HETATM   26  C9  UNL     1      23.589   0.373  52.725  1.00  0.00     0.048 A 
HETATM   27  C10 UNL     1      22.780  -0.118  53.850  1.00  0.00     0.015 A 
HETATM   28 BR1  UNL     1      21.034  -0.049  54.602  1.00  0.00    -0.051 Br
HETATM   29  C11 UNL     1      23.791  -0.808  54.376  1.00  0.00     0.048 A 
ENDBRANCH  23  25
ENDBRANCH  19  23
ENDBRANCH   1  16
TORSDOF 8
ENDMDL
MODEL 6
REMARK VINA RESULT:      -7.3      2.860      4.953
REMARK  8 active torsions:
REMARK  status: ('A' for Active; 'I' for Inactive)
REMARK    1  A    between atoms: C1_2  and  C2_3 
REMARK    2  A    between atoms: C1_2  and  C12_17 
REMARK    3  A    between atoms: C2_3  and  C3_4 
REMARK    4  A    between atoms: C7_10  and  N3_11 
REMARK    5  A    between atoms: N3_11  and  C8_12 
REMARK    6  A    between atoms: C12_17  and  N4_18 
REMARK       I    between atoms: N4_18  and  C13_19 
REMARK    7  A    between atoms: C13_19  and  S1_21 
REMARK    8  A    between atoms: S1_21  and  C14_22 
ROOT
HETATM    1  C2  UNL     1      23.007   4.911  51.692  1.00  0.00     0.107 C 
ENDROOT
BRANCH   1   2
HETATM    2  C1  UNL     1      21.723   5.561  51.222  1.00  0.00     0.147 C 
HETATM    3  O1  UNL     1      22.067   6.736  51.057  1.00  0.00    -0.296 OA
BRANCH   2   4
HETATM    4  C12 UNL     1      20.456   4.758  51.065  1.00  0.00     0.202 C 
BRANCH   4   5
HETATM    5  N4  UNL     1      20.768   3.432  50.602  1.00  0.00    -0.345 N 
HETATM    6  C13 UNL     1      20.371   2.446  51.560  1.00  0.00     0.285 C 
HETATM    7  O2  UNL     1      19.820   2.828  52.649  1.00  0.00    -0.260 OA
HETATM    8  H12 UNL     1      21.217   3.128  49.710  1.00  0.00     0.163 HD
BRANCH   6   9
HETATM    9  S1  UNL     1      20.639   0.686  51.251  1.00  0.00    -0.030 SA
BRANCH   9  10
HETATM   10  C14 UNL     1      21.546  -0.004  52.644  1.00  0.00     0.010 A 
HETATM   11  C15 UNL     1      20.793  -0.702  53.587  1.00  0.00     0.019 A 
HETATM   12  C16 UNL     1      21.454  -1.247  54.667  1.00  0.00     0.001 A 
HETATM   13  C17 UNL     1      22.827  -1.096  54.794  1.00  0.00     0.000 A 
HETATM   14  C18 UNL     1      23.562  -0.398  53.843  1.00  0.00     0.001 A 
HETATM   15  C19 UNL     1      22.931   0.164  52.744  1.00  0.00     0.019 A 
ENDBRANCH   9  10
ENDBRANCH   6   9
ENDBRANCH   4   5
ENDBRANCH   2   4
ENDBRANCH   1   2
BRANCH   1  16
HETATM   16  C3  UNL     1      24.157   5.284  50.879  1.00  0.00    -0.007 C 
HETATM   17  C4  UNL     1      25.289   5.149  50.168  1.00  0.00     0.004 A 
HETATM   18  C5  UNL     1      25.945   6.337  49.526  1.00  0.00     0.192 A 
HETATM   19  C7  UNL     1      25.894   3.806  50.016  1.00  0.00     0.137 A 
HETATM   20  N1  UNL     1      27.082   5.935  48.813  1.00  0.00    -0.278 NA
HETATM   21  C6  UNL     1      27.558   4.760  48.702  1.00  0.00     0.229 A 
HETATM   22  N2  UNL     1      26.984   3.613  49.309  1.00  0.00    -0.224 NA
BRANCH  19  23
HETATM   23  N3  UNL     1      25.326   2.644  50.657  1.00  0.00    -0.340 N 
HETATM   24  H7  UNL     1      24.434   2.323  50.162  1.00  0.00     0.167 HD
BRANCH  23  25
HETATM   25  C8  UNL     1      25.971   2.085  51.816  1.00  0.00     0.036 A 
HETATM   26  C9  UNL     1      26.604   0.913  51.737  1.00  0.00     0.048 A 
HETATM   27  C10 UNL     1      26.911   1.092  53.164  1.00  0.00     0.015 A 
HETATM   28 BR1  UNL     1      27.793   0.273  54.636  1.00  0.00    -0.051 Br
HETATM   29  C11 UNL     1      26.276   2.262  53.232  1.00  0.00     0.048 A 
ENDBRANCH  23  25
ENDBRANCH  19  23
ENDBRANCH   1  16
TORSDOF 8
ENDMDL
MODEL 7
REMARK VINA RESULT:      -7.3      3.180      4.971
REMARK  8 active torsions:
REMARK  status: ('A' for Active; 'I' for Inactive)
REMARK    1  A    between atoms: C1_2  and  C2_3 
REMARK    2  A    between atoms: C1_2  and  C12_17 
REMARK    3  A    between atoms: C2_3  and  C3_4 
REMARK    4  A    between atoms: C7_10  and  N3_11 
REMARK    5  A    between atoms: N3_11  and  C8_12 
REMARK    6  A    between atoms: C12_17  and  N4_18 
REMARK       I    between atoms: N4_18  and  C13_19 
REMARK    7  A    between atoms: C13_19  and  S1_21 
REMARK    8  A    between atoms: S1_21  and  C14_22 
ROOT
HETATM    1  C2  UNL     1      22.033   0.945  50.658  1.00  0.00     0.107 C 
ENDROOT
BRANCH   1   2
HETATM    2  C1  UNL     1      22.511   2.371  50.829  1.00  0.00     0.147 C 
HETATM    3  O1  UNL     1      23.735   2.230  50.924  1.00  0.00    -0.296 OA
BRANCH   2   4
HETATM    4  C12 UNL     1      21.537   3.523  50.844  1.00  0.00     0.202 C 
BRANCH   4   5
HETATM    5  N4  UNL     1      20.293   3.123  50.241  1.00  0.00    -0.345 N 
HETATM    6  C13 UNL     1      19.224   3.169  51.191  1.00  0.00     0.285 C 
HETATM    7  O2  UNL     1      19.476   3.537  52.390  1.00  0.00    -0.260 OA
HETATM    8  H12 UNL     1      20.095   2.825  49.261  1.00  0.00     0.163 HD
BRANCH   6   9
HETATM    9  S1  UNL     1      17.539   2.716  50.719  1.00  0.00    -0.030 SA
BRANCH   9  10
HETATM   10  C14 UNL     1      17.120   1.163  51.527  1.00  0.00     0.010 A 
HETATM   11  C15 UNL     1      18.161   0.251  51.690  1.00  0.00     0.019 A 
HETATM   12  C16 UNL     1      17.879  -0.949  52.307  1.00  0.00     0.001 A 
HETATM   13  C17 UNL     1      16.592  -1.222  52.747  1.00  0.00     0.000 A 
HETATM   14  C18 UNL     1      15.566  -0.299  52.577  1.00  0.00     0.001 A 
HETATM   15  C19 UNL     1      15.813   0.918  51.960  1.00  0.00     0.019 A 
ENDBRANCH   9  10
ENDBRANCH   6   9
ENDBRANCH   4   5
ENDBRANCH   2   4
ENDBRANCH   1   2
BRANCH   1  16
HETATM   16  C3  UNL     1      21.884   0.246  51.927  1.00  0.00    -0.007 C 
HETATM   17  C4  UNL     1      22.228  -0.335  53.089  1.00  0.00     0.004 A 
HETATM   18  C5  UNL     1      21.188  -0.943  53.986  1.00  0.00     0.192 A 
HETATM   19  C7  UNL     1      23.652  -0.369  53.490  1.00  0.00     0.137 A 
HETATM   20  N1  UNL     1      21.788  -1.447  55.148  1.00  0.00    -0.278 NA
HETATM   21  C6  UNL     1      23.023  -1.442  55.453  1.00  0.00     0.229 A 
HETATM   22  N2  UNL     1      24.040  -0.898  54.628  1.00  0.00    -0.224 NA
BRANCH  19  23
HETATM   23  N3  UNL     1      24.690   0.159  52.636  1.00  0.00    -0.340 N 
HETATM   24  H7  UNL     1      24.289   0.826  51.903  1.00  0.00     0.167 HD
BRANCH  23  25
HETATM   25  C8  UNL     1      26.056  -0.244  52.845  1.00  0.00     0.036 A 
HETATM   26  C9  UNL     1      26.957   0.630  53.292  1.00  0.00     0.048 A 
HETATM   27  C10 UNL     1      27.925  -0.474  53.216  1.00  0.00     0.015 A 
HETATM   28 BR1  UNL     1      29.751  -0.911  53.523  1.00  0.00    -0.051 Br
HETATM   29  C11 UNL     1      27.017  -1.340  52.768  1.00  0.00     0.048 A 
ENDBRANCH  23  25
ENDBRANCH  19  23
ENDBRANCH   1  16
TORSDOF 8
ENDMDL
MODEL 8
REMARK VINA RESULT:      -7.2      5.791      8.224
REMARK  8 active torsions:
REMARK  status: ('A' for Active; 'I' for Inactive)
REMARK    1  A    between atoms: C1_2  and  C2_3 
REMARK    2  A    between atoms: C1_2  and  C12_17 
REMARK    3  A    between atoms: C2_3  and  C3_4 
REMARK    4  A    between atoms: C7_10  and  N3_11 
REMARK    5  A    between atoms: N3_11  and  C8_12 
REMARK    6  A    between atoms: C12_17  and  N4_18 
REMARK       I    between atoms: N4_18  and  C13_19 
REMARK    7  A    between atoms: C13_19  and  S1_21 
REMARK    8  A    between atoms: S1_21  and  C14_22 
ROOT
HETATM    1  C2  UNL     1      27.704   6.218  48.208  1.00  0.00     0.107 C 
ENDROOT
BRANCH   1   2
HETATM    2  C1  UNL     1      26.880   5.132  48.866  1.00  0.00     0.147 C 
HETATM    3  O1  UNL     1      27.643   4.162  48.827  1.00  0.00    -0.296 OA
BRANCH   2   4
HETATM    4  C12 UNL     1      25.487   5.411  49.373  1.00  0.00     0.202 C 
BRANCH   4   5
HETATM    5  N4  UNL     1      25.374   5.005  50.750  1.00  0.00    -0.345 N 
HETATM    6  C13 UNL     1      24.535   3.852  50.877  1.00  0.00     0.285 C 
HETATM    7  O2  UNL     1      24.015   3.345  49.825  1.00  0.00    -0.260 OA
HETATM    8  H12 UNL     1      25.803   5.424  51.603  1.00  0.00     0.163 HD
BRANCH   6   9
HETATM    9  S1  UNL     1      24.206   3.115  52.494  1.00  0.00    -0.030 SA
BRANCH   9  10
HETATM   10  C14 UNL     1      25.043   1.524  52.574  1.00  0.00     0.010 A 
HETATM   11  C15 UNL     1      24.451   0.554  53.382  1.00  0.00     0.019 A 
HETATM   12  C16 UNL     1      25.062  -0.679  53.465  1.00  0.00     0.001 A 
HETATM   13  C17 UNL     1      26.230  -0.928  52.759  1.00  0.00     0.000 A 
HETATM   14  C18 UNL     1      26.805   0.050  51.958  1.00  0.00     0.001 A 
HETATM   15  C19 UNL     1      26.219   1.302  51.850  1.00  0.00     0.019 A 
ENDBRANCH   9  10
ENDBRANCH   6   9
ENDBRANCH   4   5
ENDBRANCH   2   4
ENDBRANCH   1   2
BRANCH   1  16
HETATM   16  C3  UNL     1      29.111   5.860  48.084  1.00  0.00    -0.007 C 
HETATM   17  C4  UNL     1      30.445   5.942  48.225  1.00  0.00     0.004 A 
HETATM   18  C5  UNL     1      31.349   4.892  47.645  1.00  0.00     0.192 A 
HETATM   19  C7  UNL     1      31.027   7.083  48.966  1.00  0.00     0.137 A 
HETATM   20  N1  UNL     1      32.684   5.179  47.957  1.00  0.00    -0.278 NA
HETATM   21  C6  UNL     1      33.136   6.172  48.611  1.00  0.00     0.229 A 
HETATM   22  N2  UNL     1      32.322   7.197  49.158  1.00  0.00    -0.224 NA
BRANCH  19  23
HETATM   23  N3  UNL     1      30.200   8.141  49.497  1.00  0.00    -0.340 N 
HETATM   24  H7  UNL     1      29.676   7.822  50.374  1.00  0.00     0.167 HD
BRANCH  23  25
HETATM   25  C8  UNL     1      30.168   9.418  48.835  1.00  0.00     0.036 A 
HETATM   26  C9  UNL     1      29.561   9.552  47.655  1.00  0.00     0.048 A 
HETATM   27  C10 UNL     1      29.960  10.966  47.718  1.00  0.00     0.015 A 
HETATM   28 BR1  UNL     1      29.863  12.610  46.766  1.00  0.00    -0.051 Br
HETATM   29  C11 UNL     1      30.563  10.821  48.898  1.00  0.00     0.048 A 
ENDBRANCH  23  25
ENDBRANCH  19  23
ENDBRANCH   1  16
TORSDOF 8
ENDMDL
MODEL 9
REMARK VINA RESULT:      -7.2      4.071      7.344
REMARK  8 active torsions:
REMARK  status: ('A' for Active; 'I' for Inactive)
REMARK    1  A    between atoms: C1_2  and  C2_3 
REMARK    2  A    between atoms: C1_2  and  C12_17 
REMARK    3  A    between atoms: C2_3  and  C3_4 
REMARK    4  A    between atoms: C7_10  and  N3_11 
REMARK    5  A    between atoms: N3_11  and  C8_12 
REMARK    6  A    between atoms: C12_17  and  N4_18 
REMARK       I    between atoms: N4_18  and  C13_19 
REMARK    7  A    between atoms: C13_19  and  S1_21 
REMARK    8  A    between atoms: S1_21  and  C14_22 
ROOT
HETATM    1  C2  UNL     1      22.447  -0.236  54.093  1.00  0.00     0.107 C 
ENDROOT
BRANCH   1   2
HETATM    2  C1  UNL     1      23.188  -1.163  55.034  1.00  0.00     0.147 C 
HETATM    3  O1  UNL     1      22.269  -1.819  55.534  1.00  0.00    -0.296 OA
BRANCH   2   4
HETATM    4  C12 UNL     1      24.691  -1.111  55.156  1.00  0.00     0.202 C 
BRANCH   4   5
HETATM    5  N4  UNL     1      25.274  -0.737  53.894  1.00  0.00    -0.345 N 
HETATM    6  C13 UNL     1      26.239   0.306  54.064  1.00  0.00     0.285 C 
HETATM    7  O2  UNL     1      26.461   0.758  55.239  1.00  0.00    -0.260 OA
HETATM    8  H12 UNL     1      25.088  -1.112  52.938  1.00  0.00     0.163 HD
BRANCH   6   9
HETATM    9  S1  UNL     1      27.137   0.983  52.649  1.00  0.00    -0.030 SA
BRANCH   9  10
HETATM   10  C14 UNL     1      26.079   2.187  51.829  1.00  0.00     0.010 A 
HETATM   11  C15 UNL     1      24.922   2.559  52.510  1.00  0.00     0.019 A 
HETATM   12  C16 UNL     1      24.088   3.482  51.915  1.00  0.00     0.001 A 
HETATM   13  C17 UNL     1      24.410   4.013  50.674  1.00  0.00     0.000 A 
HETATM   14  C18 UNL     1      25.569   3.631  50.009  1.00  0.00     0.001 A 
HETATM   15  C19 UNL     1      26.430   2.705  50.578  1.00  0.00     0.019 A 
ENDBRANCH   9  10
ENDBRANCH   6   9
ENDBRANCH   4   5
ENDBRANCH   2   4
ENDBRANCH   1   2
BRANCH   1  16
HETATM   16  C3  UNL     1      21.090  -0.685  53.814  1.00  0.00    -0.007 C 
HETATM   17  C4  UNL     1      19.836  -0.669  53.330  1.00  0.00     0.004 A 
HETATM   18  C5  UNL     1      18.899  -1.816  53.576  1.00  0.00     0.192 A 
HETATM   19  C7  UNL     1      19.378   0.495  52.540  1.00  0.00     0.137 A 
HETATM   20  N1  UNL     1      17.672  -1.582  52.941  1.00  0.00    -0.278 NA
HETATM   21  C6  UNL     1      17.329  -0.564  52.260  1.00  0.00     0.229 A 
HETATM   22  N2  UNL     1      18.173   0.550  52.019  1.00  0.00    -0.224 NA
BRANCH  19  23
HETATM   23  N3  UNL     1      20.229   1.642  52.320  1.00  0.00    -0.340 N 
HETATM   24  H7  UNL     1      20.343   2.218  53.214  1.00  0.00     0.167 HD
BRANCH  23  25
HETATM   25  C8  UNL     1      20.788   1.873  51.015  1.00  0.00     0.036 A 
HETATM   26  C9  UNL     1      21.650   1.004  50.486  1.00  0.00     0.048 A 
HETATM   27  C10 UNL     1      21.693   1.902  49.322  1.00  0.00     0.015 A 
HETATM   28 BR1  UNL     1      22.485   2.119  47.606  1.00  0.00    -0.051 Br
HETATM   29  C11 UNL     1      20.831   2.764  49.860  1.00  0.00     0.048 A 
ENDBRANCH  23  25
ENDBRANCH  19  23
ENDBRANCH   1  16
TORSDOF 8
ENDMDL
