MODEL 1
REMARK VINA RESULT:      -7.0      0.000      0.000
REMARK  7 active torsions:
REMARK  status: ('A' for Active; 'I' for Inactive)
REMARK    1  A    between atoms: C2_2  and  C3_3 
REMARK    2  A    between atoms: C2_2  and  N2_12 
REMARK    3  A    between atoms: C3_3  and  C4_4 
REMARK    4  A    between atoms: C4_4  and  N1_5 
REMARK    5  A    between atoms: N2_12  and  C9_13 
REMARK    6  A    between atoms: C11_15  and  N3_16 
REMARK    7  A    between atoms: N3_16  and  C12_17 
ROOT
HETATM    1  N2  UNL     1      26.373   3.311  49.361  1.00  0.00    -0.371 N 
HETATM    2  H15 UNL     1      26.658   2.414  48.920  1.00  0.00     0.161 HD
ENDROOT
BRANCH   1   3
HETATM    3  C2  UNL     1      25.337   3.454  50.354  1.00  0.00     0.080 C 
HETATM    4  C1  UNL     1      24.016   3.142  49.720  1.00  0.00     0.032 C 
BRANCH   3   5
HETATM    5  C3  UNL     1      25.605   2.648  51.596  1.00  0.00     0.044 C 
BRANCH   5   6
HETATM    6  C4  UNL     1      27.072   2.332  51.770  1.00  0.00     0.128 C 
BRANCH   6   7
HETATM    7  N1  UNL     1      27.290   1.314  52.751  1.00  0.00    -0.348 N 
HETATM    8  C5  UNL     1      26.700  -0.029  52.628  1.00  0.00     0.152 C 
HETATM    9  C6  UNL     1      26.088  -0.276  54.012  1.00  0.00     0.188 C 
HETATM   10  O1  UNL     1      27.028  -0.415  54.997  1.00  0.00    -0.380 OA
HETATM   11  C7  UNL     1      28.235   0.215  54.717  1.00  0.00     0.270 C 
HETATM   12  C8  UNL     1      28.075   1.468  53.929  1.00  0.00     0.243 C 
HETATM   13  O2  UNL     1      28.545   2.603  54.185  1.00  0.00    -0.271 OA
ENDBRANCH   6   7
ENDBRANCH   5   6
ENDBRANCH   3   5
ENDBRANCH   1   3
BRANCH   1  14
HETATM   14  C9  UNL     1      27.031   4.518  48.981  1.00  0.00     0.121 A 
HETATM   15  C10 UNL     1      26.417   5.707  49.058  1.00  0.00     0.053 A 
HETATM   16  C11 UNL     1      27.363   6.778  48.591  1.00  0.00     0.148 A 
HETATM   17  C14 UNL     1      28.556   5.989  48.261  1.00  0.00     0.121 A 
HETATM   18  N4  UNL     1      28.352   4.724  48.486  1.00  0.00    -0.246 NA
BRANCH  16  19
HETATM   19  N3  UNL     1      27.560   7.777  49.599  1.00  0.00    -0.389 N 
HETATM   20  H18 UNL     1      27.405   7.507  50.599  1.00  0.00     0.159 HD
BRANCH  19  21
HETATM   21  C12 UNL     1      27.957   9.084  49.178  1.00  0.00     0.074 C 
HETATM   22  C13 UNL     1      29.251   9.369  49.362  1.00  0.00     0.223 C 
HETATM   23 BR1  UNL     1      30.475  10.802  49.079  1.00  0.00    -0.192 Br
ENDBRANCH  19  21
ENDBRANCH  16  19
ENDBRANCH   1  14
TORSDOF 7
ENDMDL
MODEL 2
REMARK VINA RESULT:      -7.0      3.303      4.433
REMARK  7 active torsions:
REMARK  status: ('A' for Active; 'I' for Inactive)
REMARK    1  A    between atoms: C2_2  and  C3_3 
REMARK    2  A    between atoms: C2_2  and  N2_12 
REMARK    3  A    between atoms: C3_3  and  C4_4 
REMARK    4  A    between atoms: C4_4  and  N1_5 
REMARK    5  A    between atoms: N2_12  and  C9_13 
REMARK    6  A    between atoms: C11_15  and  N3_16 
REMARK    7  A    between atoms: N3_16  and  C12_17 
ROOT
HETATM    1  N2  UNL     1      24.226   1.272  51.815  1.00  0.00    -0.371 N 
HETATM    2  H15 UNL     1      24.724   1.011  50.941  1.00  0.00     0.161 HD
ENDROOT
BRANCH   1   3
HETATM    3  C2  UNL     1      24.122   0.441  52.990  1.00  0.00     0.080 C 
HETATM    4  C1  UNL     1      22.755  -0.170  53.027  1.00  0.00     0.032 C 
BRANCH   3   5
HETATM    5  C3  UNL     1      25.229  -0.572  53.087  1.00  0.00     0.044 C 
BRANCH   5   6
HETATM    6  C4  UNL     1      26.396  -0.236  52.188  1.00  0.00     0.128 C 
BRANCH   6   7
HETATM    7  N1  UNL     1      27.494   0.319  52.918  1.00  0.00    -0.348 N 
HETATM    8  C5  UNL     1      28.388  -0.515  53.738  1.00  0.00     0.152 C 
HETATM    9  C6  UNL     1      28.464   0.249  55.066  1.00  0.00     0.188 C 
HETATM   10  O1  UNL     1      29.126   1.441  54.962  1.00  0.00    -0.380 OA
HETATM   11  C7  UNL     1      29.105   1.989  53.683  1.00  0.00     0.270 C 
HETATM   12  C8  UNL     1      27.847   1.698  52.942  1.00  0.00     0.243 C 
HETATM   13  O2  UNL     1      27.094   2.514  52.355  1.00  0.00    -0.271 OA
ENDBRANCH   6   7
ENDBRANCH   5   6
ENDBRANCH   3   5
ENDBRANCH   1   3
BRANCH   1  14
HETATM   14  C9  UNL     1      23.583   2.541  51.900  1.00  0.00     0.121 A 
HETATM   15  C10 UNL     1      23.990   3.480  52.766  1.00  0.00     0.053 A 
HETATM   16  C11 UNL     1      23.120   4.696  52.617  1.00  0.00     0.148 A 
HETATM   17  C14 UNL     1      22.202   4.268  51.555  1.00  0.00     0.121 A 
HETATM   18  N4  UNL     1      22.475   3.059  51.165  1.00  0.00    -0.246 NA
BRANCH  16  19
HETATM   19  N3  UNL     1      23.897   5.860  52.312  1.00  0.00    -0.389 N 
HETATM   20  H18 UNL     1      24.380   6.353  53.100  1.00  0.00     0.159 HD
BRANCH  19  21
HETATM   21  C12 UNL     1      23.966   6.279  50.947  1.00  0.00     0.074 C 
HETATM   22  C13 UNL     1      25.160   6.122  50.366  1.00  0.00     0.223 C 
HETATM   23 BR1  UNL     1      26.006   6.419  48.684  1.00  0.00    -0.192 Br
ENDBRANCH  19  21
ENDBRANCH  16  19
ENDBRANCH   1  14
TORSDOF 7
ENDMDL
MODEL 3
REMARK VINA RESULT:      -6.6      4.494      6.462
REMARK  7 active torsions:
REMARK  status: ('A' for Active; 'I' for Inactive)
REMARK    1  A    between atoms: C2_2  and  C3_3 
REMARK    2  A    between atoms: C2_2  and  N2_12 
REMARK    3  A    between atoms: C3_3  and  C4_4 
REMARK    4  A    between atoms: C4_4  and  N1_5 
REMARK    5  A    between atoms: N2_12  and  C9_13 
REMARK    6  A    between atoms: C11_15  and  N3_16 
REMARK    7  A    between atoms: N3_16  and  C12_17 
ROOT
HETATM    1  N2  UNL     1      24.832   3.959  51.589  1.00  0.00    -0.371 N 
HETATM    2  H15 UNL     1      25.358   4.463  52.330  1.00  0.00     0.161 HD
ENDROOT
BRANCH   1   3
HETATM    3  C2  UNL     1      25.430   3.231  50.497  1.00  0.00     0.080 C 
HETATM    4  C1  UNL     1      26.208   4.190  49.648  1.00  0.00     0.032 C 
BRANCH   3   5
HETATM    5  C3  UNL     1      26.242   2.051  50.957  1.00  0.00     0.044 C 
BRANCH   5   6
HETATM    6  C4  UNL     1      27.274   2.433  51.992  1.00  0.00     0.128 C 
BRANCH   6   7
HETATM    7  N1  UNL     1      27.552   1.359  52.895  1.00  0.00    -0.348 N 
HETATM    8  C5  UNL     1      26.933   0.032  52.745  1.00  0.00     0.152 C 
HETATM    9  C6  UNL     1      26.429  -0.285  54.159  1.00  0.00     0.188 C 
HETATM   10  O1  UNL     1      27.442  -0.492  55.055  1.00  0.00    -0.380 OA
HETATM   11  C7  UNL     1      28.633   0.139  54.715  1.00  0.00     0.270 C 
HETATM   12  C8  UNL     1      28.432   1.436  54.012  1.00  0.00     0.243 C 
HETATM   13  O2  UNL     1      28.939   2.549  54.292  1.00  0.00    -0.271 OA
ENDBRANCH   6   7
ENDBRANCH   5   6
ENDBRANCH   3   5
ENDBRANCH   1   3
BRANCH   1  14
HETATM   14  C9  UNL     1      23.407   3.962  51.619  1.00  0.00     0.121 A 
HETATM   15  C10 UNL     1      22.701   2.822  51.600  1.00  0.00     0.053 A 
HETATM   16  C11 UNL     1      21.235   3.153  51.640  1.00  0.00     0.148 A 
HETATM   17  C14 UNL     1      21.269   4.620  51.684  1.00  0.00     0.121 A 
HETATM   18  N4  UNL     1      22.493   5.056  51.672  1.00  0.00    -0.246 NA
BRANCH  16  19
HETATM   19  N3  UNL     1      20.589   2.530  52.757  1.00  0.00    -0.389 N 
HETATM   20  H18 UNL     1      20.232   3.144  53.526  1.00  0.00     0.159 HD
BRANCH  19  21
HETATM   21  C12 UNL     1      20.470   1.105  52.752  1.00  0.00     0.074 C 
HETATM   22  C13 UNL     1      21.089   0.482  53.761  1.00  0.00     0.223 C 
HETATM   23 BR1  UNL     1      21.380  -1.284  54.415  1.00  0.00    -0.192 Br
ENDBRANCH  19  21
ENDBRANCH  16  19
ENDBRANCH   1  14
TORSDOF 7
ENDMDL
MODEL 4
REMARK VINA RESULT:      -6.6      5.791      8.235
REMARK  7 active torsions:
REMARK  status: ('A' for Active; 'I' for Inactive)
REMARK    1  A    between atoms: C2_2  and  C3_3 
REMARK    2  A    between atoms: C2_2  and  N2_12 
REMARK    3  A    between atoms: C3_3  and  C4_4 
REMARK    4  A    between atoms: C4_4  and  N1_5 
REMARK    5  A    between atoms: N2_12  and  C9_13 
REMARK    6  A    between atoms: C11_15  and  N3_16 
REMARK    7  A    between atoms: N3_16  and  C12_17 
ROOT
HETATM    1  N2  UNL     1      22.934   1.444  51.438  1.00  0.00    -0.371 N 
HETATM    2  H15 UNL     1      22.351   1.396  50.579  1.00  0.00     0.161 HD
ENDROOT
BRANCH   1   3
HETATM    3  C2  UNL     1      24.109   2.267  51.597  1.00  0.00     0.080 C 
HETATM    4  C1  UNL     1      24.037   2.957  52.924  1.00  0.00     0.032 C 
BRANCH   3   5
HETATM    5  C3  UNL     1      25.388   1.502  51.392  1.00  0.00     0.044 C 
BRANCH   5   6
HETATM    6  C4  UNL     1      26.577   2.194  52.018  1.00  0.00     0.128 C 
BRANCH   6   7
HETATM    7  N1  UNL     1      27.328   1.315  52.860  1.00  0.00    -0.348 N 
HETATM    8  C5  UNL     1      26.863  -0.044  53.184  1.00  0.00     0.152 C 
HETATM    9  C6  UNL     1      27.030  -0.122  54.707  1.00  0.00     0.188 C 
HETATM   10  O1  UNL     1      28.339  -0.116  55.103  1.00  0.00    -0.380 OA
HETATM   11  C7  UNL     1      29.200   0.495  54.199  1.00  0.00     0.270 C 
HETATM   12  C8  UNL     1      28.574   1.633  53.470  1.00  0.00     0.243 C 
HETATM   13  O2  UNL     1      29.017   2.801  53.341  1.00  0.00    -0.271 OA
ENDBRANCH   6   7
ENDBRANCH   5   6
ENDBRANCH   3   5
ENDBRANCH   1   3
BRANCH   1  14
HETATM   14  C9  UNL     1      22.580   0.652  52.569  1.00  0.00     0.121 A 
HETATM   15  C10 UNL     1      21.413   0.820  53.206  1.00  0.00     0.053 A 
HETATM   16  C11 UNL     1      21.333  -0.155  54.347  1.00  0.00     0.148 A 
HETATM   17  C14 UNL     1      22.616  -0.857  54.221  1.00  0.00     0.121 A 
HETATM   18  N4  UNL     1      23.302  -0.392  53.219  1.00  0.00    -0.246 NA
BRANCH  16  19
HETATM   19  N3  UNL     1      20.175  -0.992  54.241  1.00  0.00    -0.389 N 
HETATM   20  H18 UNL     1      20.104  -1.822  54.876  1.00  0.00     0.159 HD
BRANCH  19  21
HETATM   21  C12 UNL     1      19.183  -0.641  53.273  1.00  0.00     0.074 C 
HETATM   22  C13 UNL     1      18.052  -1.352  53.338  1.00  0.00     0.223 C 
HETATM   23 BR1  UNL     1      16.367  -1.482  52.457  1.00  0.00    -0.192 Br
ENDBRANCH  19  21
ENDBRANCH  16  19
ENDBRANCH   1  14
TORSDOF 7
ENDMDL
MODEL 5
REMARK VINA RESULT:      -6.6      5.140      6.889
REMARK  7 active torsions:
REMARK  status: ('A' for Active; 'I' for Inactive)
REMARK    1  A    between atoms: C2_2  and  C3_3 
REMARK    2  A    between atoms: C2_2  and  N2_12 
REMARK    3  A    between atoms: C3_3  and  C4_4 
REMARK    4  A    between atoms: C4_4  and  N1_5 
REMARK    5  A    between atoms: N2_12  and  C9_13 
REMARK    6  A    between atoms: C11_15  and  N3_16 
REMARK    7  A    between atoms: N3_16  and  C12_17 
ROOT
HETATM    1  N2  UNL     1      24.798   3.314  52.079  1.00  0.00    -0.371 N 
HETATM    2  H15 UNL     1      25.069   4.313  52.161  1.00  0.00     0.161 HD
ENDROOT
BRANCH   1   3
HETATM    3  C2  UNL     1      25.675   2.194  52.321  1.00  0.00     0.080 C 
HETATM    4  C1  UNL     1      26.879   2.326  51.439  1.00  0.00     0.032 C 
BRANCH   3   5
HETATM    5  C3  UNL     1      26.019   2.027  53.776  1.00  0.00     0.044 C 
BRANCH   5   6
HETATM    6  C4  UNL     1      26.005   0.579  54.207  1.00  0.00     0.128 C 
BRANCH   6   7
HETATM    7  N1  UNL     1      27.287  -0.039  54.057  1.00  0.00    -0.348 N 
HETATM    8  C5  UNL     1      28.434   0.328  54.903  1.00  0.00     0.152 C 
HETATM    9  C6  UNL     1      29.568   0.536  53.892  1.00  0.00     0.188 C 
HETATM   10  O1  UNL     1      29.963  -0.624  53.283  1.00  0.00    -0.380 OA
HETATM   11  C7  UNL     1      28.977  -1.604  53.243  1.00  0.00     0.270 C 
HETATM   12  C8  UNL     1      27.602  -1.048  53.104  1.00  0.00     0.243 C 
HETATM   13  O2  UNL     1      26.725  -1.368  52.265  1.00  0.00    -0.271 OA
ENDBRANCH   6   7
ENDBRANCH   5   6
ENDBRANCH   3   5
ENDBRANCH   1   3
BRANCH   1  14
HETATM   14  C9  UNL     1      23.465   2.980  51.699  1.00  0.00     0.121 A 
HETATM   15  C10 UNL     1      23.211   2.050  50.767  1.00  0.00     0.053 A 
HETATM   16  C11 UNL     1      21.724   1.926  50.590  1.00  0.00     0.148 A 
HETATM   17  C14 UNL     1      21.232   2.915  51.557  1.00  0.00     0.121 A 
HETATM   18  N4  UNL     1      22.221   3.496  52.169  1.00  0.00    -0.246 NA
BRANCH  16  19
HETATM   19  N3  UNL     1      21.280   0.583  50.822  1.00  0.00    -0.389 N 
HETATM   20  H18 UNL     1      21.316  -0.094  50.023  1.00  0.00     0.159 HD
BRANCH  19  21
HETATM   21  C12 UNL     1      20.816   0.248  52.132  1.00  0.00     0.074 C 
HETATM   22  C13 UNL     1      21.681  -0.445  52.879  1.00  0.00     0.223 C 
HETATM   23 BR1  UNL     1      21.803  -1.216  54.618  1.00  0.00    -0.192 Br
ENDBRANCH  19  21
ENDBRANCH  16  19
ENDBRANCH   1  14
TORSDOF 7
ENDMDL
MODEL 6
REMARK VINA RESULT:      -6.6      1.503      1.765
REMARK  7 active torsions:
REMARK  status: ('A' for Active; 'I' for Inactive)
REMARK    1  A    between atoms: C2_2  and  C3_3 
REMARK    2  A    between atoms: C2_2  and  N2_12 
REMARK    3  A    between atoms: C3_3  and  C4_4 
REMARK    4  A    between atoms: C4_4  and  N1_5 
REMARK    5  A    between atoms: N2_12  and  C9_13 
REMARK    6  A    between atoms: C11_15  and  N3_16 
REMARK    7  A    between atoms: N3_16  and  C12_17 
ROOT
HETATM    1  N2  UNL     1      24.667   2.973  50.601  1.00  0.00    -0.371 N 
HETATM    2  H15 UNL     1      24.115   2.280  50.058  1.00  0.00     0.161 HD
ENDROOT
BRANCH   1   3
HETATM    3  C2  UNL     1      24.577   3.170  52.027  1.00  0.00     0.080 C 
HETATM    4  C1  UNL     1      23.209   3.683  52.358  1.00  0.00     0.032 C 
BRANCH   3   5
HETATM    5  C3  UNL     1      24.957   1.943  52.810  1.00  0.00     0.044 C 
BRANCH   5   6
HETATM    6  C4  UNL     1      26.364   2.022  53.355  1.00  0.00     0.128 C 
BRANCH   6   7
HETATM    7  N1  UNL     1      27.084   0.801  53.163  1.00  0.00    -0.348 N 
HETATM    8  C5  UNL     1      26.771  -0.126  52.063  1.00  0.00     0.152 C 
HETATM    9  C6  UNL     1      26.695  -1.490  52.761  1.00  0.00     0.188 C 
HETATM   10  O1  UNL     1      27.907  -1.924  53.225  1.00  0.00    -0.380 OA
HETATM   11  C7  UNL     1      28.808  -0.899  53.490  1.00  0.00     0.270 C 
HETATM   12  C8  UNL     1      28.155   0.345  53.983  1.00  0.00     0.243 C 
HETATM   13  O2  UNL     1      28.442   1.010  55.009  1.00  0.00    -0.271 OA
ENDBRANCH   6   7
ENDBRANCH   5   6
ENDBRANCH   3   5
ENDBRANCH   1   3
BRANCH   1  14
HETATM   14  C9  UNL     1      25.595   3.815  49.921  1.00  0.00     0.121 A 
HETATM   15  C10 UNL     1      25.305   5.092  49.632  1.00  0.00     0.053 A 
HETATM   16  C11 UNL     1      26.474   5.711  48.919  1.00  0.00     0.148 A 
HETATM   17  C14 UNL     1      27.416   4.587  48.874  1.00  0.00     0.121 A 
HETATM   18  N4  UNL     1      26.907   3.533  49.440  1.00  0.00    -0.246 NA
BRANCH  16  19
HETATM   19  N3  UNL     1      26.952   6.873  49.609  1.00  0.00    -0.389 N 
HETATM   20  H18 UNL     1      27.010   6.837  50.655  1.00  0.00     0.159 HD
BRANCH  19  21
HETATM   21  C12 UNL     1      27.322   8.011  48.828  1.00  0.00     0.074 C 
HETATM   22  C13 UNL     1      28.625   8.099  48.538  1.00  0.00     0.223 C 
HETATM   23 BR1  UNL     1      29.829   9.243  47.603  1.00  0.00    -0.192 Br
ENDBRANCH  19  21
ENDBRANCH  16  19
ENDBRANCH   1  14
TORSDOF 7
ENDMDL
MODEL 7
REMARK VINA RESULT:      -6.3      2.285      3.290
REMARK  7 active torsions:
REMARK  status: ('A' for Active; 'I' for Inactive)
REMARK    1  A    between atoms: C2_2  and  C3_3 
REMARK    2  A    between atoms: C2_2  and  N2_12 
REMARK    3  A    between atoms: C3_3  and  C4_4 
REMARK    4  A    between atoms: C4_4  and  N1_5 
REMARK    5  A    between atoms: N2_12  and  C9_13 
REMARK    6  A    between atoms: C11_15  and  N3_16 
REMARK    7  A    between atoms: N3_16  and  C12_17 
ROOT
HETATM    1  N2  UNL     1      24.044   3.819  52.887  1.00  0.00    -0.371 N 
HETATM    2  H15 UNL     1      23.907   4.365  53.760  1.00  0.00     0.161 HD
ENDROOT
BRANCH   1   3
HETATM    3  C2  UNL     1      24.561   2.474  52.822  1.00  0.00     0.080 C 
HETATM    4  C1  UNL     1      23.427   1.512  53.006  1.00  0.00     0.032 C 
BRANCH   3   5
HETATM    5  C3  UNL     1      25.362   2.216  51.575  1.00  0.00     0.044 C 
BRANCH   5   6
HETATM    6  C4  UNL     1      26.849   2.348  51.811  1.00  0.00     0.128 C 
BRANCH   6   7
HETATM    7  N1  UNL     1      27.355   1.306  52.650  1.00  0.00    -0.348 N 
HETATM    8  C5  UNL     1      27.038  -0.112  52.413  1.00  0.00     0.152 C 
HETATM    9  C6  UNL     1      26.616  -0.617  53.798  1.00  0.00     0.188 C 
HETATM   10  O1  UNL     1      27.650  -0.654  54.693  1.00  0.00    -0.380 OA
HETATM   11  C7  UNL     1      28.676   0.239  54.407  1.00  0.00     0.270 C 
HETATM   12  C8  UNL     1      28.197   1.503  53.781  1.00  0.00     0.243 C 
HETATM   13  O2  UNL     1      28.451   2.680  54.135  1.00  0.00    -0.271 OA
ENDBRANCH   6   7
ENDBRANCH   5   6
ENDBRANCH   3   5
ENDBRANCH   1   3
BRANCH   1  14
HETATM   14  C9  UNL     1      23.708   4.410  51.633  1.00  0.00     0.121 A 
HETATM   15  C10 UNL     1      24.282   5.547  51.216  1.00  0.00     0.053 A 
HETATM   16  C11 UNL     1      23.725   5.912  49.869  1.00  0.00     0.148 A 
HETATM   17  C14 UNL     1      22.782   4.812  49.636  1.00  0.00     0.121 A 
HETATM   18  N4  UNL     1      22.786   3.979  50.635  1.00  0.00    -0.246 NA
BRANCH  16  19
HETATM   19  N3  UNL     1      24.763   6.035  48.889  1.00  0.00    -0.389 N 
HETATM   20  H18 UNL     1      24.488   6.066  47.879  1.00  0.00     0.159 HD
BRANCH  19  21
HETATM   21  C12 UNL     1      26.114   6.109  49.351  1.00  0.00     0.074 C 
HETATM   22  C13 UNL     1      27.044   5.855  48.424  1.00  0.00     0.223 C 
HETATM   23 BR1  UNL     1      28.940   5.760  48.260  1.00  0.00    -0.192 Br
ENDBRANCH  19  21
ENDBRANCH  16  19
ENDBRANCH   1  14
TORSDOF 7
ENDMDL
MODEL 8
REMARK VINA RESULT:      -6.2      4.097      5.798
REMARK  7 active torsions:
REMARK  status: ('A' for Active; 'I' for Inactive)
REMARK    1  A    between atoms: C2_2  and  C3_3 
REMARK    2  A    between atoms: C2_2  and  N2_12 
REMARK    3  A    between atoms: C3_3  and  C4_4 
REMARK    4  A    between atoms: C4_4  and  N1_5 
REMARK    5  A    between atoms: N2_12  and  C9_13 
REMARK    6  A    between atoms: C11_15  and  N3_16 
REMARK    7  A    between atoms: N3_16  and  C12_17 
ROOT
HETATM    1  N2  UNL     1      22.365  -0.459  52.572  1.00  0.00    -0.371 N 
HETATM    2  H15 UNL     1      22.308  -1.392  52.118  1.00  0.00     0.161 HD
ENDROOT
BRANCH   1   3
HETATM    3  C2  UNL     1      22.818  -0.220  53.921  1.00  0.00     0.080 C 
HETATM    4  C1  UNL     1      21.846  -0.848  54.873  1.00  0.00     0.032 C 
BRANCH   3   5
HETATM    5  C3  UNL     1      24.239  -0.659  54.146  1.00  0.00     0.044 C 
BRANCH   5   6
HETATM    6  C4  UNL     1      25.156  -0.231  53.025  1.00  0.00     0.128 C 
BRANCH   6   7
HETATM    7  N1  UNL     1      26.361   0.365  53.514  1.00  0.00    -0.348 N 
HETATM    8  C5  UNL     1      26.470   1.811  53.768  1.00  0.00     0.152 C 
HETATM    9  C6  UNL     1      27.786   2.194  53.079  1.00  0.00     0.188 C 
HETATM   10  O1  UNL     1      28.887   1.665  53.695  1.00  0.00    -0.380 OA
HETATM   11  C7  UNL     1      28.628   0.504  54.414  1.00  0.00     0.270 C 
HETATM   12  C8  UNL     1      27.563  -0.340  53.804  1.00  0.00     0.243 C 
HETATM   13  O2  UNL     1      27.614  -1.564  53.531  1.00  0.00    -0.271 OA
ENDBRANCH   6   7
ENDBRANCH   5   6
ENDBRANCH   3   5
ENDBRANCH   1   3
BRANCH   1  14
HETATM   14  C9  UNL     1      21.975   0.701  51.840  1.00  0.00     0.121 A 
HETATM   15  C10 UNL     1      21.987   1.920  52.396  1.00  0.00     0.053 A 
HETATM   16  C11 UNL     1      21.527   2.927  51.380  1.00  0.00     0.148 A 
HETATM   17  C14 UNL     1      21.273   2.070  50.216  1.00  0.00     0.121 A 
HETATM   18  N4  UNL     1      21.530   0.826  50.491  1.00  0.00    -0.246 NA
BRANCH  16  19
HETATM   19  N3  UNL     1      22.510   3.950  51.175  1.00  0.00    -0.389 N 
HETATM   20  H18 UNL     1      22.509   4.773  51.822  1.00  0.00     0.159 HD
BRANCH  19  21
HETATM   21  C12 UNL     1      23.433   3.783  50.097  1.00  0.00     0.074 C 
HETATM   22  C13 UNL     1      24.715   3.665  50.462  1.00  0.00     0.223 C 
HETATM   23 BR1  UNL     1      26.433   3.429  49.672  1.00  0.00    -0.192 Br
ENDBRANCH  19  21
ENDBRANCH  16  19
ENDBRANCH   1  14
TORSDOF 7
ENDMDL
MODEL 9
REMARK VINA RESULT:      -6.2      4.267      7.075
REMARK  7 active torsions:
REMARK  status: ('A' for Active; 'I' for Inactive)
REMARK    1  A    between atoms: C2_2  and  C3_3 
REMARK    2  A    between atoms: C2_2  and  N2_12 
REMARK    3  A    between atoms: C3_3  and  C4_4 
REMARK    4  A    between atoms: C4_4  and  N1_5 
REMARK    5  A    between atoms: N2_12  and  C9_13 
REMARK    6  A    between atoms: C11_15  and  N3_16 
REMARK    7  A    between atoms: N3_16  and  C12_17 
ROOT
HETATM    1  N2  UNL     1      25.594   3.675  49.689  1.00  0.00    -0.371 N 
HETATM    2  H15 UNL     1      25.301   3.083  48.887  1.00  0.00     0.161 HD
ENDROOT
BRANCH   1   3
HETATM    3  C2  UNL     1      25.980   5.062  49.597  1.00  0.00     0.080 C 
HETATM    4  C1  UNL     1      27.144   5.177  48.661  1.00  0.00     0.032 C 
BRANCH   3   5
HETATM    5  C3  UNL     1      24.832   5.964  49.233  1.00  0.00     0.044 C 
BRANCH   5   6
HETATM    6  C4  UNL     1      23.751   5.236  48.469  1.00  0.00     0.128 C 
BRANCH   6   7
HETATM    7  N1  UNL     1      22.575   5.038  49.259  1.00  0.00    -0.348 N 
HETATM    8  C5  UNL     1      21.825   6.163  49.841  1.00  0.00     0.152 C 
HETATM    9  C6  UNL     1      21.623   5.736  51.301  1.00  0.00     0.188 C 
HETATM   10  O1  UNL     1      20.777   4.670  51.435  1.00  0.00    -0.380 OA
HETATM   11  C7  UNL     1      20.713   3.855  50.310  1.00  0.00     0.270 C 
HETATM   12  C8  UNL     1      22.004   3.771  49.572  1.00  0.00     0.243 C 
HETATM   13  O2  UNL     1      22.617   2.738  49.210  1.00  0.00    -0.271 OA
ENDBRANCH   6   7
ENDBRANCH   5   6
ENDBRANCH   3   5
ENDBRANCH   1   3
BRANCH   1  14
HETATM   14  C9  UNL     1      25.633   3.111  50.998  1.00  0.00     0.121 A 
HETATM   15  C10 UNL     1      26.723   2.485  51.462  1.00  0.00     0.053 A 
HETATM   16  C11 UNL     1      26.455   2.005  52.860  1.00  0.00     0.148 A 
HETATM   17  C14 UNL     1      25.077   2.465  53.067  1.00  0.00     0.121 A 
HETATM   18  N4  UNL     1      24.632   3.083  52.014  1.00  0.00    -0.246 NA
BRANCH  16  19
HETATM   19  N3  UNL     1      27.413   2.532  53.787  1.00  0.00    -0.389 N 
HETATM   20  H18 UNL     1      27.126   3.341  54.387  1.00  0.00     0.159 HD
BRANCH  19  21
HETATM   21  C12 UNL     1      28.704   1.919  53.836  1.00  0.00     0.074 C 
HETATM   22  C13 UNL     1      28.705   0.589  53.695  1.00  0.00     0.223 C 
HETATM   23 BR1  UNL     1      29.937  -0.864  53.649  1.00  0.00    -0.192 Br
ENDBRANCH  19  21
ENDBRANCH  16  19
ENDBRANCH   1  14
TORSDOF 7
ENDMDL
