MODEL 1
REMARK VINA RESULT:      -7.7      0.000      0.000
REMARK  0 active torsions:
REMARK  status: ('A' for Active; 'I' for Inactive)
ROOT
HETATM    1  N1  UNL     1      21.168  -1.582  54.943  1.00  0.00    -0.196 NA
HETATM    2  C1  UNL     1      21.971  -1.276  54.160  1.00  0.00     0.075 C 
HETATM    3  C2  UNL     1      22.982  -0.893  53.205  1.00  0.00     0.160 C 
HETATM    4  C3  UNL     1      24.169  -0.208  53.837  1.00  0.00     0.058 C 
HETATM    5  C4  UNL     1      25.256   0.011  52.840  1.00  0.00     0.117 C 
HETATM    6  C5  UNL     1      26.300  -1.044  53.058  1.00  0.00     0.236 C 
HETATM    7  O1  UNL     1      27.059  -0.861  54.212  1.00  0.00    -0.234 OA
HETATM    8  O2  UNL     1      28.207  -0.207  53.900  1.00  0.00    -0.209 OA
HETATM    9  C6  UNL     1      28.246   1.030  53.286  1.00  0.00     0.193 C 
HETATM   10  C7  UNL     1      27.223   1.732  52.789  1.00  0.00     0.118 C 
HETATM   11  N2  UNL     1      25.838   1.318  52.797  1.00  0.00    -0.356 N 
HETATM   12  C8  UNL     1      24.954   2.456  52.752  1.00  0.00     0.110 C 
HETATM   13  C9  UNL     1      24.167   3.464  53.082  1.00  0.00     0.133 C 
HETATM   14  N3  UNL     1      23.603   4.196  51.988  1.00  0.00    -0.276 NA
HETATM   15  C10 UNL     1      22.957   3.533  51.053  1.00  0.00     0.093 C 
HETATM   16  C11 UNL     1      22.441   2.255  50.469  1.00  0.00     0.074 C 
HETATM   17  C12 UNL     1      21.008   2.075  50.598  1.00  0.00    -0.009 C 
HETATM   18  C13 UNL     1      20.523   1.827  51.797  1.00  0.00    -0.023 C 
HETATM   19  C14 UNL     1      21.449   1.603  52.713  1.00  0.00     0.058 C 
HETATM   20  S1  UNL     1      22.155   0.147  51.966  1.00  0.00    -0.121 SA
ENDROOT
TORSDOF 0
ENDMDL
MODEL 2
REMARK VINA RESULT:      -7.2      1.308      1.455
REMARK  0 active torsions:
REMARK  status: ('A' for Active; 'I' for Inactive)
ROOT
HETATM    1  N1  UNL     1      19.576  -0.462  53.412  1.00  0.00    -0.196 NA
HETATM    2  C1  UNL     1      20.657  -0.363  52.995  1.00  0.00     0.075 C 
HETATM    3  C2  UNL     1      22.005  -0.237  52.498  1.00  0.00     0.160 C 
HETATM    4  C3  UNL     1      22.973   0.290  53.528  1.00  0.00     0.058 C 
HETATM    5  C4  UNL     1      24.375   0.238  53.025  1.00  0.00     0.117 C 
HETATM    6  C5  UNL     1      25.042  -0.956  53.643  1.00  0.00     0.236 C 
HETATM    7  O1  UNL     1      25.331  -0.806  54.998  1.00  0.00    -0.234 OA
HETATM    8  O2  UNL     1      26.614  -0.383  55.143  1.00  0.00    -0.209 OA
HETATM    9  C6  UNL     1      27.111   0.773  54.575  1.00  0.00     0.193 C 
HETATM   10  C7  UNL     1      26.502   1.592  53.713  1.00  0.00     0.118 C 
HETATM   11  N2  UNL     1      25.165   1.420  53.192  1.00  0.00    -0.356 N 
HETATM   12  C8  UNL     1      24.593   2.682  52.794  1.00  0.00     0.110 C 
HETATM   13  C9  UNL     1      23.945   3.832  52.782  1.00  0.00     0.133 C 
HETATM   14  N3  UNL     1      23.982   4.553  51.544  1.00  0.00    -0.276 NA
HETATM   15  C10 UNL     1      23.622   3.931  50.441  1.00  0.00     0.093 C 
HETATM   16  C11 UNL     1      23.134   2.713  49.722  1.00  0.00     0.074 C 
HETATM   17  C12 UNL     1      21.752   2.788  49.291  1.00  0.00    -0.009 C 
HETATM   18  C13 UNL     1      20.814   2.727  50.213  1.00  0.00    -0.023 C 
HETATM   19  C14 UNL     1      21.268   2.430  51.419  1.00  0.00     0.058 C 
HETATM   20  S1  UNL     1      21.916   0.817  51.022  1.00  0.00    -0.121 SA
ENDROOT
TORSDOF 0
ENDMDL
MODEL 3
REMARK VINA RESULT:      -7.1      2.331      3.144
REMARK  0 active torsions:
REMARK  status: ('A' for Active; 'I' for Inactive)
ROOT
HETATM    1  N1  UNL     1      25.067  -1.098  55.965  1.00  0.00    -0.196 NA
HETATM    2  C1  UNL     1      24.886  -0.791  54.858  1.00  0.00     0.075 C 
HETATM    3  C2  UNL     1      24.674  -0.392  53.489  1.00  0.00     0.160 C 
HETATM    4  C3  UNL     1      25.084   1.033  53.213  1.00  0.00     0.058 C 
HETATM    5  C4  UNL     1      25.009   1.342  51.756  1.00  0.00     0.117 C 
HETATM    6  C5  UNL     1      26.403   1.292  51.202  1.00  0.00     0.236 C 
HETATM    7  O1  UNL     1      27.204   2.366  51.584  1.00  0.00    -0.234 OA
HETATM    8  O2  UNL     1      27.171   3.321  50.619  1.00  0.00    -0.209 OA
HETATM    9  C6  UNL     1      26.011   3.923  50.172  1.00  0.00     0.193 C 
HETATM   10  C7  UNL     1      24.750   3.613  50.489  1.00  0.00     0.118 C 
HETATM   11  N2  UNL     1      24.346   2.555  51.387  1.00  0.00    -0.356 N 
HETATM   12  C8  UNL     1      23.056   2.830  51.969  1.00  0.00     0.110 C 
HETATM   13  C9  UNL     1      22.087   3.239  52.768  1.00  0.00     0.133 C 
HETATM   14  N3  UNL     1      20.756   2.936  52.334  1.00  0.00    -0.276 NA
HETATM   15  C10 UNL     1      20.461   1.691  52.028  1.00  0.00     0.093 C 
HETATM   16  C11 UNL     1      20.841   0.251  51.881  1.00  0.00     0.074 C 
HETATM   17  C12 UNL     1      20.302  -0.617  52.909  1.00  0.00    -0.009 C 
HETATM   18  C13 UNL     1      20.800  -0.518  54.125  1.00  0.00    -0.023 C 
HETATM   19  C14 UNL     1      21.866   0.260  54.204  1.00  0.00     0.058 C 
HETATM   20  S1  UNL     1      22.919  -0.695  53.128  1.00  0.00    -0.121 SA
ENDROOT
TORSDOF 0
ENDMDL
MODEL 4
REMARK VINA RESULT:      -6.9      2.956      5.789
REMARK  0 active torsions:
REMARK  status: ('A' for Active; 'I' for Inactive)
ROOT
HETATM    1  N1  UNL     1      23.565   5.011  52.203  1.00  0.00    -0.196 NA
HETATM    2  C1  UNL     1      23.440   3.872  52.006  1.00  0.00     0.075 C 
HETATM    3  C2  UNL     1      23.270   2.459  51.776  1.00  0.00     0.160 C 
HETATM    4  C3  UNL     1      22.489   1.768  52.867  1.00  0.00     0.058 C 
HETATM    5  C4  UNL     1      22.193   0.353  52.502  1.00  0.00     0.117 C 
HETATM    6  C5  UNL     1      20.767   0.286  52.038  1.00  0.00     0.236 C 
HETATM    7  O1  UNL     1      19.831   0.421  53.062  1.00  0.00    -0.234 OA
HETATM    8  O2  UNL     1      19.442  -0.811  53.484  1.00  0.00    -0.209 OA
HETATM    9  C6  UNL     1      20.313  -1.770  53.963  1.00  0.00     0.193 C 
HETATM   10  C7  UNL     1      21.648  -1.729  53.985  1.00  0.00     0.118 C 
HETATM   11  N2  UNL     1      22.463  -0.640  53.497  1.00  0.00    -0.356 N 
HETATM   12  C8  UNL     1      23.743  -0.609  54.159  1.00  0.00     0.110 C 
HETATM   13  C9  UNL     1      24.730  -0.351  54.997  1.00  0.00     0.133 C 
HETATM   14  N3  UNL     1      25.979  -0.987  54.700  1.00  0.00    -0.276 NA
HETATM   15  C10 UNL     1      26.489  -0.843  53.496  1.00  0.00     0.093 C 
HETATM   16  C11 UNL     1      26.436  -0.290  52.107  1.00  0.00     0.074 C 
HETATM   17  C12 UNL     1      27.362   0.798  51.861  1.00  0.00    -0.009 C 
HETATM   18  C13 UNL     1      27.111   1.960  52.428  1.00  0.00    -0.023 C 
HETATM   19  C14 UNL     1      25.931   2.023  53.021  1.00  0.00     0.058 C 
HETATM   20  S1  UNL     1      24.936   1.765  51.565  1.00  0.00    -0.121 SA
ENDROOT
TORSDOF 0
ENDMDL
MODEL 5
REMARK VINA RESULT:      -6.9      2.944      5.161
REMARK  0 active torsions:
REMARK  status: ('A' for Active; 'I' for Inactive)
ROOT
HETATM    1  N1  UNL     1      21.143   5.573  50.316  1.00  0.00    -0.196 NA
HETATM    2  C1  UNL     1      21.594   4.502  50.324  1.00  0.00     0.075 C 
HETATM    3  C2  UNL     1      22.144   3.169  50.353  1.00  0.00     0.160 C 
HETATM    4  C3  UNL     1      22.037   2.509  51.705  1.00  0.00     0.058 C 
HETATM    5  C4  UNL     1      22.458   1.081  51.642  1.00  0.00     0.117 C 
HETATM    6  C5  UNL     1      21.218   0.236  51.615  1.00  0.00     0.236 C 
HETATM    7  O1  UNL     1      20.542   0.182  52.832  1.00  0.00    -0.234 OA
HETATM    8  O2  UNL     1      20.927  -0.927  53.515  1.00  0.00    -0.209 OA
HETATM    9  C6  UNL     1      22.236  -1.203  53.858  1.00  0.00     0.193 C 
HETATM   10  C7  UNL     1      23.337  -0.539  53.495  1.00  0.00     0.118 C 
HETATM   11  N2  UNL     1      23.371   0.631  52.648  1.00  0.00    -0.356 N 
HETATM   12  C8  UNL     1      24.542   1.431  52.910  1.00  0.00     0.110 C 
HETATM   13  C9  UNL     1      25.380   2.331  53.390  1.00  0.00     0.133 C 
HETATM   14  N3  UNL     1      26.705   2.299  52.844  1.00  0.00    -0.276 NA
HETATM   15  C10 UNL     1      26.849   2.341  51.537  1.00  0.00     0.093 C 
HETATM   16  C11 UNL     1      26.277   2.415  50.156  1.00  0.00     0.074 C 
HETATM   17  C12 UNL     1      26.446   3.701  49.508  1.00  0.00    -0.009 C 
HETATM   18  C13 UNL     1      25.733   4.715  49.954  1.00  0.00    -0.023 C 
HETATM   19  C14 UNL     1      24.814   4.374  50.842  1.00  0.00     0.058 C 
HETATM   20  S1  UNL     1      23.862   3.306  49.778  1.00  0.00    -0.121 SA
ENDROOT
TORSDOF 0
ENDMDL
MODEL 6
REMARK VINA RESULT:      -6.7      2.631      4.025
REMARK  0 active torsions:
REMARK  status: ('A' for Active; 'I' for Inactive)
ROOT
HETATM    1  N1  UNL     1      18.477   3.644  51.960  1.00  0.00    -0.196 NA
HETATM    2  C1  UNL     1      19.287   2.820  51.830  1.00  0.00     0.075 C 
HETATM    3  C2  UNL     1      20.294   1.797  51.690  1.00  0.00     0.160 C 
HETATM    4  C3  UNL     1      21.025   1.501  52.975  1.00  0.00     0.058 C 
HETATM    5  C4  UNL     1      21.928   0.325  52.821  1.00  0.00     0.117 C 
HETATM    6  C5  UNL     1      21.250  -0.861  53.443  1.00  0.00     0.236 C 
HETATM    7  O1  UNL     1      21.214  -0.828  54.835  1.00  0.00    -0.234 OA
HETATM    8  O2  UNL     1      22.260  -1.538  55.332  1.00  0.00    -0.209 OA
HETATM    9  C6  UNL     1      23.582  -1.270  55.034  1.00  0.00     0.193 C 
HETATM   10  C7  UNL     1      24.063  -0.392  54.149  1.00  0.00     0.118 C 
HETATM   11  N2  UNL     1      23.267   0.471  53.306  1.00  0.00    -0.356 N 
HETATM   12  C8  UNL     1      24.002   1.652  52.927  1.00  0.00     0.110 C 
HETATM   13  C9  UNL     1      24.514   2.869  52.889  1.00  0.00     0.133 C 
HETATM   14  N3  UNL     1      25.387   3.141  51.786  1.00  0.00    -0.276 NA
HETATM   15  C10 UNL     1      24.957   2.899  50.566  1.00  0.00     0.093 C 
HETATM   16  C11 UNL     1      23.898   2.431  49.618  1.00  0.00     0.074 C 
HETATM   17  C12 UNL     1      23.247   3.494  48.878  1.00  0.00    -0.009 C 
HETATM   18  C13 UNL     1      22.430   4.291  49.535  1.00  0.00    -0.023 C 
HETATM   19  C14 UNL     1      22.180   3.900  50.773  1.00  0.00     0.058 C 
HETATM   20  S1  UNL     1      21.407   2.347  50.364  1.00  0.00    -0.121 SA
ENDROOT
TORSDOF 0
ENDMDL
MODEL 7
REMARK VINA RESULT:      -6.6      2.748      4.969
REMARK  0 active torsions:
REMARK  status: ('A' for Active; 'I' for Inactive)
ROOT
HETATM    1  N1  UNL     1      26.880   0.022  52.338  1.00  0.00    -0.196 NA
HETATM    2  C1  UNL     1      25.863   0.428  52.728  1.00  0.00     0.075 C 
HETATM    3  C2  UNL     1      24.592   0.914  53.206  1.00  0.00     0.160 C 
HETATM    4  C3  UNL     1      23.427   0.055  52.778  1.00  0.00     0.058 C 
HETATM    5  C4  UNL     1      22.164   0.496  53.436  1.00  0.00     0.117 C 
HETATM    6  C5  UNL     1      21.882  -0.446  54.570  1.00  0.00     0.236 C 
HETATM    7  O1  UNL     1      21.455  -1.709  54.164  1.00  0.00    -0.234 OA
HETATM    8  O2  UNL     1      20.098  -1.754  54.177  1.00  0.00    -0.209 OA
HETATM    9  C6  UNL     1      19.293  -0.892  53.458  1.00  0.00     0.193 C 
HETATM   10  C7  UNL     1      19.663   0.177  52.748  1.00  0.00     0.118 C 
HETATM   11  N2  UNL     1      21.018   0.654  52.593  1.00  0.00    -0.356 N 
HETATM   12  C8  UNL     1      21.171   1.403  51.371  1.00  0.00     0.110 C 
HETATM   13  C9  UNL     1      21.403   1.752  50.119  1.00  0.00     0.133 C 
HETATM   14  N3  UNL     1      21.227   3.142  49.818  1.00  0.00    -0.276 NA
HETATM   15  C10 UNL     1      21.856   4.031  50.556  1.00  0.00     0.093 C 
HETATM   16  C11 UNL     1      22.773   4.387  51.684  1.00  0.00     0.074 C 
HETATM   17  C12 UNL     1      24.082   4.849  51.267  1.00  0.00    -0.009 C 
HETATM   18  C13 UNL     1      24.913   3.965  50.753  1.00  0.00    -0.023 C 
HETATM   19  C14 UNL     1      24.490   2.716  50.847  1.00  0.00     0.058 C 
HETATM   20  S1  UNL     1      24.443   2.629  52.627  1.00  0.00    -0.121 SA
ENDROOT
TORSDOF 0
ENDMDL
MODEL 8
REMARK VINA RESULT:      -6.5      3.994      6.905
REMARK  0 active torsions:
REMARK  status: ('A' for Active; 'I' for Inactive)
ROOT
HETATM    1  N1  UNL     1      21.742   4.756  50.941  1.00  0.00    -0.196 NA
HETATM    2  C1  UNL     1      21.483   3.623  50.911  1.00  0.00     0.075 C 
HETATM    3  C2  UNL     1      21.142   2.222  50.882  1.00  0.00     0.160 C 
HETATM    4  C3  UNL     1      19.914   1.891  51.692  1.00  0.00     0.058 C 
HETATM    5  C4  UNL     1      19.505   0.471  51.493  1.00  0.00     0.117 C 
HETATM    6  C5  UNL     1      18.347   0.455  50.537  1.00  0.00     0.236 C 
HETATM    7  O1  UNL     1      17.154   0.923  51.085  1.00  0.00    -0.234 OA
HETATM    8  O2  UNL     1      16.419  -0.128  51.532  1.00  0.00    -0.209 OA
HETATM    9  C6  UNL     1      16.869  -1.040  52.466  1.00  0.00     0.193 C 
HETATM   10  C7  UNL     1      18.094  -1.141  52.991  1.00  0.00     0.118 C 
HETATM   11  N2  UNL     1      19.217  -0.290  52.671  1.00  0.00    -0.356 N 
HETATM   12  C8  UNL     1      20.164  -0.246  53.756  1.00  0.00     0.110 C 
HETATM   13  C9  UNL     1      20.824   0.089  54.851  1.00  0.00     0.133 C 
HETATM   14  N3  UNL     1      21.954  -0.732  55.170  1.00  0.00    -0.276 NA
HETATM   15  C10 UNL     1      22.873  -0.925  54.248  1.00  0.00     0.093 C 
HETATM   16  C11 UNL     1      23.415  -0.705  52.870  1.00  0.00     0.074 C 
HETATM   17  C12 UNL     1      24.555   0.189  52.813  1.00  0.00    -0.009 C 
HETATM   18  C13 UNL     1      24.344   1.471  53.031  1.00  0.00    -0.023 C 
HETATM   19  C14 UNL     1      23.065   1.797  53.106  1.00  0.00     0.058 C 
HETATM   20  S1  UNL     1      22.615   1.321  51.449  1.00  0.00    -0.121 SA
ENDROOT
TORSDOF 0
ENDMDL
MODEL 9
REMARK VINA RESULT:      -6.4      2.070      3.972
REMARK  0 active torsions:
REMARK  status: ('A' for Active; 'I' for Inactive)
ROOT
HETATM    1  N1  UNL     1      22.022   1.634  47.893  1.00  0.00    -0.196 NA
HETATM    2  C1  UNL     1      22.366   1.962  48.954  1.00  0.00     0.075 C 
HETATM    3  C2  UNL     1      22.812   2.360  50.266  1.00  0.00     0.160 C 
HETATM    4  C3  UNL     1      24.118   1.723  50.670  1.00  0.00     0.058 C 
HETATM    5  C4  UNL     1      24.621   2.295  51.952  1.00  0.00     0.117 C 
HETATM    6  C5  UNL     1      25.704   3.280  51.623  1.00  0.00     0.236 C 
HETATM    7  O1  UNL     1      26.893   2.693  51.194  1.00  0.00    -0.234 OA
HETATM    8  O2  UNL     1      27.739   2.563  52.250  1.00  0.00    -0.209 OA
HETATM    9  C6  UNL     1      27.430   1.868  53.402  1.00  0.00     0.193 C 
HETATM   10  C7  UNL     1      26.258   1.325  53.744  1.00  0.00     0.118 C 
HETATM   11  N2  UNL     1      25.051   1.363  52.950  1.00  0.00    -0.356 N 
HETATM   12  C8  UNL     1      24.185   0.255  53.265  1.00  0.00     0.110 C 
HETATM   13  C9  UNL     1      23.582  -0.920  53.274  1.00  0.00     0.133 C 
HETATM   14  N3  UNL     1      22.545  -1.078  54.250  1.00  0.00    -0.276 NA
HETATM   15  C10 UNL     1      21.580  -0.184  54.295  1.00  0.00     0.093 C 
HETATM   16  C11 UNL     1      20.924   1.064  53.794  1.00  0.00     0.074 C 
HETATM   17  C12 UNL     1      19.717   0.836  53.024  1.00  0.00    -0.009 C 
HETATM   18  C13 UNL     1      19.842   0.312  51.821  1.00  0.00    -0.023 C 
HETATM   19  C14 UNL     1      21.094   0.222  51.405  1.00  0.00     0.058 C 
HETATM   20  S1  UNL     1      21.459   1.966  51.413  1.00  0.00    -0.121 SA
ENDROOT
TORSDOF 0
ENDMDL
