MODEL 1
REMARK VINA RESULT:      -7.8      0.000      0.000
REMARK  6 active torsions:
REMARK  status: ('A' for Active; 'I' for Inactive)
REMARK    1  A    between atoms: C3_3  and  C4_5 
REMARK    2  A    between atoms: C4_5  and  C5_7 
REMARK    3  A    between atoms: C5_7  and  C6_8 
REMARK    4  A    between atoms: C6_8  and  N1_9 
REMARK    5  A    between atoms: N1_9  and  C7_10 
REMARK    6  A    between atoms: C15_21  and  N5_22 
ROOT
HETATM    1  C1  UNL     1      28.775   2.195  53.677  1.00  0.00     0.100 C 
HETATM    2  C2  UNL     1      27.457   2.106  53.716  1.00  0.00    -0.112 C 
HETATM    3  C3  UNL     1      26.176   1.865  53.682  1.00  0.00     0.179 C 
HETATM    4  F1  UNL     1      25.494   2.891  54.214  1.00  0.00    -0.195 F 
ENDROOT
BRANCH   3   5
HETATM    5  C4  UNL     1      25.729   0.614  53.114  1.00  0.00     0.078 C 
HETATM    6 CL1  UNL     1      26.795  -0.114  51.934  1.00  0.00    -0.081 Cl
BRANCH   5   7
HETATM    7  C5  UNL     1      24.568   0.065  53.483  1.00  0.00     0.020 C 
BRANCH   7   8
HETATM    8  C6  UNL     1      23.313   0.667  52.982  1.00  0.00     0.150 C 
BRANCH   8   9
HETATM    9  N1  UNL     1      23.531   1.301  51.695  1.00  0.00    -0.369 N 
HETATM   10  H6  UNL     1      23.879   0.598  51.017  1.00  0.00     0.161 HD
BRANCH   9  11
HETATM   11  C7  UNL     1      23.236   2.691  51.600  1.00  0.00     0.156 A 
HETATM   12  N2  UNL     1      22.085   3.163  52.075  1.00  0.00    -0.222 NA
HETATM   13  C8  UNL     1      21.762   4.456  51.998  1.00  0.00     0.238 A 
HETATM   14  N3  UNL     1      22.575   5.393  51.430  1.00  0.00    -0.215 NA
HETATM   15  C9  UNL     1      23.754   4.978  50.931  1.00  0.00     0.202 A 
HETATM   16  C10 UNL     1      24.081   3.621  51.019  1.00  0.00     0.128 A 
HETATM   17  O1  UNL     1      24.506   6.028  50.372  1.00  0.00    -0.289 OA
HETATM   18  N4  UNL     1      25.281   3.000  50.560  1.00  0.00    -0.379 N 
HETATM   19  C11 UNL     1      26.072   3.359  49.391  1.00  0.00     0.161 C 
HETATM   20  H8  UNL     1      25.534   2.201  51.218  1.00  0.00     0.160 HD
HETATM   21  C12 UNL     1      26.363   4.790  49.283  1.00  0.00    -0.006 A 
HETATM   22  C13 UNL     1      27.574   4.898  48.608  1.00  0.00     0.014 A 
HETATM   23  C18 UNL     1      25.713   5.936  49.692  1.00  0.00     0.088 A 
HETATM   24  C14 UNL     1      28.085   6.177  48.371  1.00  0.00     0.030 A 
HETATM   25  C15 UNL     1      27.436   7.347  48.780  1.00  0.00     0.030 A 
HETATM   26  C17 UNL     1      26.234   7.207  49.449  1.00  0.00     0.067 A 
BRANCH  25  27
HETATM   27  N5  UNL     1      28.006   8.621  48.510  1.00  0.00    -0.394 N 
HETATM   28  C16 UNL     1      29.034   9.171  49.342  1.00  0.00     0.146 C 
HETATM   29  H13 UNL     1      27.668   9.157  47.700  1.00  0.00     0.159 HD
ENDBRANCH  25  27
ENDBRANCH   9  11
ENDBRANCH   8   9
ENDBRANCH   7   8
ENDBRANCH   5   7
ENDBRANCH   3   5
TORSDOF 6
ENDMDL
MODEL 2
REMARK VINA RESULT:      -7.4      1.840      2.353
REMARK  6 active torsions:
REMARK  status: ('A' for Active; 'I' for Inactive)
REMARK    1  A    between atoms: C3_3  and  C4_5 
REMARK    2  A    between atoms: C4_5  and  C5_7 
REMARK    3  A    between atoms: C5_7  and  C6_8 
REMARK    4  A    between atoms: C6_8  and  N1_9 
REMARK    5  A    between atoms: N1_9  and  C7_10 
REMARK    6  A    between atoms: C15_21  and  N5_22 
ROOT
HETATM    1  C1  UNL     1      28.607   2.334  53.467  1.00  0.00     0.100 C 
HETATM    2  C2  UNL     1      27.637   1.630  52.911  1.00  0.00    -0.112 C 
HETATM    3  C3  UNL     1      26.572   1.029  52.457  1.00  0.00     0.179 C 
HETATM    4  F1  UNL     1      26.912   0.093  51.558  1.00  0.00    -0.195 F 
ENDROOT
BRANCH   3   5
HETATM    5  C4  UNL     1      25.284   1.443  52.964  1.00  0.00     0.078 C 
HETATM    6 CL1  UNL     1      24.030   0.224  52.950  1.00  0.00    -0.081 Cl
BRANCH   5   7
HETATM    7  C5  UNL     1      25.085   2.686  53.411  1.00  0.00     0.020 C 
BRANCH   7   8
HETATM    8  C6  UNL     1      23.905   3.432  52.922  1.00  0.00     0.150 C 
BRANCH   8   9
HETATM    9  N1  UNL     1      23.977   3.610  51.483  1.00  0.00    -0.369 N 
HETATM   10  H6  UNL     1      23.989   2.683  51.019  1.00  0.00     0.161 HD
BRANCH   9  11
HETATM   11  C7  UNL     1      24.005   4.948  50.997  1.00  0.00     0.156 A 
HETATM   12  N2  UNL     1      22.955   5.746  51.178  1.00  0.00    -0.222 NA
HETATM   13  C8  UNL     1      22.933   7.004  50.730  1.00  0.00     0.238 A 
HETATM   14  N3  UNL     1      23.974   7.571  50.056  1.00  0.00    -0.215 NA
HETATM   15  C9  UNL     1      25.066   6.814  49.841  1.00  0.00     0.202 A 
HETATM   16  C10 UNL     1      25.077   5.499  50.316  1.00  0.00     0.128 A 
HETATM   17  O1  UNL     1      26.073   7.503  49.138  1.00  0.00    -0.289 OA
HETATM   18  N4  UNL     1      26.141   4.556  50.195  1.00  0.00    -0.379 N 
HETATM   19  C11 UNL     1      27.079   4.416  49.090  1.00  0.00     0.161 C 
HETATM   20  H8  UNL     1      26.160   3.939  51.064  1.00  0.00     0.160 HD
HETATM   21  C12 UNL     1      27.686   5.677  48.659  1.00  0.00    -0.006 A 
HETATM   22  C13 UNL     1      28.940   5.358  48.147  1.00  0.00     0.014 A 
HETATM   23  C18 UNL     1      27.278   6.995  48.671  1.00  0.00     0.088 A 
HETATM   24  C14 UNL     1      29.737   6.396  47.661  1.00  0.00     0.030 A 
HETATM   25  C15 UNL     1      29.334   7.737  47.666  1.00  0.00     0.030 A 
HETATM   26  C17 UNL     1      28.084   8.023  48.183  1.00  0.00     0.067 A 
BRANCH  25  27
HETATM   27  N5  UNL     1      30.191   8.751  47.158  1.00  0.00    -0.394 N 
HETATM   28  C16 UNL     1      29.689  10.046  46.807  1.00  0.00     0.146 C 
HETATM   29  H13 UNL     1      31.192   8.546  47.039  1.00  0.00     0.159 HD
ENDBRANCH  25  27
ENDBRANCH   9  11
ENDBRANCH   8   9
ENDBRANCH   7   8
ENDBRANCH   5   7
ENDBRANCH   3   5
TORSDOF 6
ENDMDL
MODEL 3
REMARK VINA RESULT:      -7.3      4.242      6.991
REMARK  6 active torsions:
REMARK  status: ('A' for Active; 'I' for Inactive)
REMARK    1  A    between atoms: C3_3  and  C4_5 
REMARK    2  A    between atoms: C4_5  and  C5_7 
REMARK    3  A    between atoms: C5_7  and  C6_8 
REMARK    4  A    between atoms: C6_8  and  N1_9 
REMARK    5  A    between atoms: N1_9  and  C7_10 
REMARK    6  A    between atoms: C15_21  and  N5_22 
ROOT
HETATM    1  C1  UNL     1      18.609  -0.517  52.915  1.00  0.00     0.100 C 
HETATM    2  C2  UNL     1      18.296  -0.219  51.666  1.00  0.00    -0.112 C 
HETATM    3  C3  UNL     1      18.098   0.203  50.449  1.00  0.00     0.179 C 
HETATM    4  F1  UNL     1      17.204  -0.577  49.823  1.00  0.00    -0.195 F 
ENDROOT
BRANCH   3   5
HETATM    5  C4  UNL     1      18.828   1.368  50.002  1.00  0.00     0.078 C 
HETATM    6 CL1  UNL     1      20.456   1.078  49.433  1.00  0.00    -0.081 Cl
BRANCH   5   7
HETATM    7  C5  UNL     1      18.273   2.582  50.030  1.00  0.00     0.020 C 
BRANCH   7   8
HETATM    8  C6  UNL     1      19.115   3.735  50.418  1.00  0.00     0.150 C 
BRANCH   8   9
HETATM    9  N1  UNL     1      19.812   3.460  51.661  1.00  0.00    -0.369 N 
HETATM   10  H6  UNL     1      19.194   2.916  52.291  1.00  0.00     0.161 HD
BRANCH   9  11
HETATM   11  C7  UNL     1      21.143   3.949  51.779  1.00  0.00     0.156 A 
HETATM   12  N2  UNL     1      21.435   5.189  51.391  1.00  0.00    -0.222 NA
HETATM   13  C8  UNL     1      22.672   5.686  51.473  1.00  0.00     0.238 A 
HETATM   14  N3  UNL     1      23.730   4.973  51.956  1.00  0.00    -0.215 NA
HETATM   15  C9  UNL     1      23.498   3.711  52.365  1.00  0.00     0.202 A 
HETATM   16  C10 UNL     1      22.199   3.203  52.274  1.00  0.00     0.128 A 
HETATM   17  O1  UNL     1      24.660   3.074  52.841  1.00  0.00    -0.289 OA
HETATM   18  N4  UNL     1      21.762   1.902  52.665  1.00  0.00    -0.379 N 
HETATM   19  C11 UNL     1      22.509   0.655  52.586  1.00  0.00     0.161 C 
HETATM   20  H8  UNL     1      20.767   1.967  53.043  1.00  0.00     0.160 HD
HETATM   21  C12 UNL     1      23.868   0.738  53.126  1.00  0.00    -0.006 A 
HETATM   22  C13 UNL     1      24.187  -0.533  53.592  1.00  0.00     0.014 A 
HETATM   23  C18 UNL     1      24.795   1.753  53.245  1.00  0.00     0.088 A 
HETATM   24  C14 UNL     1      25.446  -0.729  54.165  1.00  0.00     0.030 A 
HETATM   25  C15 UNL     1      26.396   0.292  54.291  1.00  0.00     0.030 A 
HETATM   26  C17 UNL     1      26.049   1.544  53.819  1.00  0.00     0.067 A 
BRANCH  25  27
HETATM   27  N5  UNL     1      27.661   0.032  54.884  1.00  0.00    -0.394 N 
HETATM   28  C16 UNL     1      28.773  -0.423  54.103  1.00  0.00     0.146 C 
HETATM   29  H13 UNL     1      27.776   0.172  55.896  1.00  0.00     0.159 HD
ENDBRANCH  25  27
ENDBRANCH   9  11
ENDBRANCH   8   9
ENDBRANCH   7   8
ENDBRANCH   5   7
ENDBRANCH   3   5
TORSDOF 6
ENDMDL
MODEL 4
REMARK VINA RESULT:      -7.2      4.730      6.783
REMARK  6 active torsions:
REMARK  status: ('A' for Active; 'I' for Inactive)
REMARK    1  A    between atoms: C3_3  and  C4_5 
REMARK    2  A    between atoms: C4_5  and  C5_7 
REMARK    3  A    between atoms: C5_7  and  C6_8 
REMARK    4  A    between atoms: C6_8  and  N1_9 
REMARK    5  A    between atoms: N1_9  and  C7_10 
REMARK    6  A    between atoms: C15_21  and  N5_22 
ROOT
HETATM    1  C1  UNL     1      22.416   2.004  48.394  1.00  0.00     0.100 C 
HETATM    2  C2  UNL     1      22.081   3.157  48.946  1.00  0.00    -0.112 C 
HETATM    3  C3  UNL     1      21.681   4.201  49.617  1.00  0.00     0.179 C 
HETATM    4  F1  UNL     1      22.041   5.328  48.984  1.00  0.00    -0.195 F 
ENDROOT
BRANCH   3   5
HETATM    5  C4  UNL     1      20.963   3.987  50.852  1.00  0.00     0.078 C 
HETATM    6 CL1  UNL     1      21.770   4.523  52.308  1.00  0.00    -0.081 Cl
BRANCH   5   7
HETATM    7  C5  UNL     1      19.757   3.414  50.858  1.00  0.00     0.020 C 
BRANCH   7   8
HETATM    8  C6  UNL     1      19.491   2.338  51.838  1.00  0.00     0.150 C 
BRANCH   8   9
HETATM    9  N1  UNL     1      20.097   1.093  51.403  1.00  0.00    -0.369 N 
HETATM   10  H6  UNL     1      20.020   1.012  50.373  1.00  0.00     0.161 HD
BRANCH   9  11
HETATM   11  C7  UNL     1      20.664   0.263  52.411  1.00  0.00     0.156 A 
HETATM   12  N2  UNL     1      19.877  -0.488  53.178  1.00  0.00    -0.222 NA
HETATM   13  C8  UNL     1      20.364  -1.274  54.142  1.00  0.00     0.238 A 
HETATM   14  N3  UNL     1      21.696  -1.371  54.420  1.00  0.00    -0.215 NA
HETATM   15  C9  UNL     1      22.544  -0.635  53.678  1.00  0.00     0.202 A 
HETATM   16  C10 UNL     1      22.022   0.182  52.672  1.00  0.00     0.128 A 
HETATM   17  O1  UNL     1      23.889  -0.816  54.054  1.00  0.00    -0.289 OA
HETATM   18  N4  UNL     1      22.760   1.020  51.782  1.00  0.00    -0.379 N 
HETATM   19  C11 UNL     1      23.987   1.750  52.067  1.00  0.00     0.161 C 
HETATM   20  H8  UNL     1      22.271   1.039  50.835  1.00  0.00     0.160 HD
HETATM   21  C12 UNL     1      25.022   0.946  52.721  1.00  0.00    -0.006 A 
HETATM   22  C13 UNL     1      26.244   1.488  52.337  1.00  0.00     0.014 A 
HETATM   23  C18 UNL     1      25.002  -0.144  53.565  1.00  0.00     0.088 A 
HETATM   24  C14 UNL     1      27.410   0.897  52.830  1.00  0.00     0.030 A 
HETATM   25  C15 UNL     1      27.404  -0.209  53.688  1.00  0.00     0.030 A 
HETATM   26  C17 UNL     1      26.173  -0.725  54.051  1.00  0.00     0.067 A 
BRANCH  25  27
HETATM   27  N5  UNL     1      28.624  -0.767  54.157  1.00  0.00    -0.394 N 
HETATM   28  C16 UNL     1      29.825  -0.696  53.379  1.00  0.00     0.146 C 
HETATM   29  H13 UNL     1      28.641  -1.233  55.073  1.00  0.00     0.159 HD
ENDBRANCH  25  27
ENDBRANCH   9  11
ENDBRANCH   8   9
ENDBRANCH   7   8
ENDBRANCH   5   7
ENDBRANCH   3   5
TORSDOF 6
ENDMDL
MODEL 5
REMARK VINA RESULT:      -7.1      5.199      8.837
REMARK  6 active torsions:
REMARK  status: ('A' for Active; 'I' for Inactive)
REMARK    1  A    between atoms: C3_3  and  C4_5 
REMARK    2  A    between atoms: C4_5  and  C5_7 
REMARK    3  A    between atoms: C5_7  and  C6_8 
REMARK    4  A    between atoms: C6_8  and  N1_9 
REMARK    5  A    between atoms: N1_9  and  C7_10 
REMARK    6  A    between atoms: C15_21  and  N5_22 
ROOT
HETATM    1  C1  UNL     1      29.734  -0.649  53.493  1.00  0.00     0.100 C 
HETATM    2  C2  UNL     1      28.471  -0.577  53.108  1.00  0.00    -0.112 C 
HETATM    3  C3  UNL     1      27.202  -0.408  52.865  1.00  0.00     0.179 C 
HETATM    4  F1  UNL     1      26.850  -1.054  51.743  1.00  0.00    -0.195 F 
ENDROOT
BRANCH   3   5
HETATM    5  C4  UNL     1      26.430   0.398  53.784  1.00  0.00     0.078 C 
HETATM    6 CL1  UNL     1      26.751   0.137  55.484  1.00  0.00    -0.081 Cl
BRANCH   5   7
HETATM    7  C5  UNL     1      25.532   1.281  53.340  1.00  0.00     0.020 C 
BRANCH   7   8
HETATM    8  C6  UNL     1      24.637   0.881  52.232  1.00  0.00     0.150 C 
BRANCH   8   9
HETATM    9  N1  UNL     1      23.260   1.216  52.545  1.00  0.00    -0.369 N 
HETATM   10  H6  UNL     1      23.031   2.147  52.150  1.00  0.00     0.161 HD
BRANCH   9  11
HETATM   11  C7  UNL     1      22.513   0.258  53.287  1.00  0.00     0.156 A 
HETATM   12  N2  UNL     1      23.097  -0.434  54.263  1.00  0.00    -0.222 NA
HETATM   13  C8  UNL     1      22.438  -1.351  54.977  1.00  0.00     0.238 A 
HETATM   14  N3  UNL     1      21.124  -1.652  54.768  1.00  0.00    -0.215 NA
HETATM   15  C9  UNL     1      20.477  -0.985  53.794  1.00  0.00     0.202 A 
HETATM   16  C10 UNL     1      21.178  -0.028  53.054  1.00  0.00     0.128 A 
HETATM   17  O1  UNL     1      19.131  -1.378  53.671  1.00  0.00    -0.289 OA
HETATM   18  N4  UNL     1      20.662   0.781  51.998  1.00  0.00    -0.379 N 
HETATM   19  C11 UNL     1      19.652   0.416  51.016  1.00  0.00     0.161 C 
HETATM   20  H8  UNL     1      21.136   1.735  52.027  1.00  0.00     0.160 HD
HETATM   21  C12 UNL     1      18.455  -0.203  51.590  1.00  0.00    -0.006 A 
HETATM   22  C13 UNL     1      17.400   0.112  50.741  1.00  0.00     0.014 A 
HETATM   23  C18 UNL     1      18.213  -0.966  52.714  1.00  0.00     0.088 A 
HETATM   24  C14 UNL     1      16.127  -0.365  51.066  1.00  0.00     0.030 A 
HETATM   25  C15 UNL     1      15.868  -1.140  52.202  1.00  0.00     0.030 A 
HETATM   26  C17 UNL     1      16.938  -1.436  53.027  1.00  0.00     0.067 A 
BRANCH  25  27
HETATM   27  N5  UNL     1      14.551  -1.596  52.481  1.00  0.00    -0.394 N 
HETATM   28  C16 UNL     1      13.526  -0.696  52.919  1.00  0.00     0.146 C 
HETATM   29  H13 UNL     1      14.334  -2.594  52.366  1.00  0.00     0.159 HD
ENDBRANCH  25  27
ENDBRANCH   9  11
ENDBRANCH   8   9
ENDBRANCH   7   8
ENDBRANCH   5   7
ENDBRANCH   3   5
TORSDOF 6
ENDMDL
MODEL 6
REMARK VINA RESULT:      -6.9      3.595      7.785
REMARK  6 active torsions:
REMARK  status: ('A' for Active; 'I' for Inactive)
REMARK    1  A    between atoms: C3_3  and  C4_5 
REMARK    2  A    between atoms: C4_5  and  C5_7 
REMARK    3  A    between atoms: C5_7  and  C6_8 
REMARK    4  A    between atoms: C6_8  and  N1_9 
REMARK    5  A    between atoms: N1_9  and  C7_10 
REMARK    6  A    between atoms: C15_21  and  N5_22 
ROOT
HETATM    1  C1  UNL     1      28.325   8.690  45.123  1.00  0.00     0.100 C 
HETATM    2  C2  UNL     1      29.375   8.133  45.701  1.00  0.00    -0.112 C 
HETATM    3  C3  UNL     1      30.307   7.555  46.405  1.00  0.00     0.179 C 
HETATM    4  F1  UNL     1      31.456   7.513  45.713  1.00  0.00    -0.195 F 
ENDROOT
BRANCH   3   5
HETATM    5  C4  UNL     1      29.973   7.084  47.729  1.00  0.00     0.078 C 
HETATM    6 CL1  UNL     1      30.543   8.068  49.058  1.00  0.00    -0.081 Cl
BRANCH   5   7
HETATM    7  C5  UNL     1      29.270   5.961  47.904  1.00  0.00     0.020 C 
BRANCH   7   8
HETATM    8  C6  UNL     1      27.878   6.069  48.394  1.00  0.00     0.150 C 
BRANCH   8   9
HETATM    9  N1  UNL     1      27.460   4.824  49.013  1.00  0.00    -0.369 N 
HETATM   10  H6  UNL     1      28.278   4.194  49.112  1.00  0.00     0.161 HD
BRANCH   9  11
HETATM   11  C7  UNL     1      26.084   4.703  49.359  1.00  0.00     0.156 A 
HETATM   12  N2  UNL     1      25.203   5.597  48.914  1.00  0.00    -0.222 NA
HETATM   13  C8  UNL     1      23.905   5.529  49.223  1.00  0.00     0.238 A 
HETATM   14  N3  UNL     1      23.379   4.550  50.014  1.00  0.00    -0.215 NA
HETATM   15  C9  UNL     1      24.221   3.616  50.495  1.00  0.00     0.202 A 
HETATM   16  C10 UNL     1      25.576   3.697  50.164  1.00  0.00     0.128 A 
HETATM   17  O1  UNL     1      23.568   2.659  51.295  1.00  0.00    -0.289 OA
HETATM   18  N4  UNL     1      26.610   2.799  50.567  1.00  0.00    -0.379 N 
HETATM   19  C11 UNL     1      26.718   2.084  51.831  1.00  0.00     0.161 C 
HETATM   20  H8  UNL     1      27.326   2.717  49.782  1.00  0.00     0.160 HD
HETATM   21  C12 UNL     1      25.489   1.398  52.236  1.00  0.00    -0.006 A 
HETATM   22  C13 UNL     1      25.880   0.300  52.994  1.00  0.00     0.014 A 
HETATM   23  C18 UNL     1      24.145   1.625  52.019  1.00  0.00     0.088 A 
HETATM   24  C14 UNL     1      24.885  -0.534  53.509  1.00  0.00     0.030 A 
HETATM   25  C15 UNL     1      23.518  -0.315  53.297  1.00  0.00     0.030 A 
HETATM   26  C17 UNL     1      23.161   0.784  52.539  1.00  0.00     0.067 A 
BRANCH  25  27
HETATM   27  N5  UNL     1      22.551  -1.200  53.847  1.00  0.00    -0.394 N 
HETATM   28  C16 UNL     1      21.335  -0.711  54.424  1.00  0.00     0.146 C 
HETATM   29  H13 UNL     1      22.734  -2.212  53.830  1.00  0.00     0.159 HD
ENDBRANCH  25  27
ENDBRANCH   9  11
ENDBRANCH   8   9
ENDBRANCH   7   8
ENDBRANCH   5   7
ENDBRANCH   3   5
TORSDOF 6
ENDMDL
MODEL 7
REMARK VINA RESULT:      -6.8      4.433      8.096
REMARK  6 active torsions:
REMARK  status: ('A' for Active; 'I' for Inactive)
REMARK    1  A    between atoms: C3_3  and  C4_5 
REMARK    2  A    between atoms: C4_5  and  C5_7 
REMARK    3  A    between atoms: C5_7  and  C6_8 
REMARK    4  A    between atoms: C6_8  and  N1_9 
REMARK    5  A    between atoms: N1_9  and  C7_10 
REMARK    6  A    between atoms: C15_21  and  N5_22 
ROOT
HETATM    1  C1  UNL     1      29.767   1.488  54.279  1.00  0.00     0.100 C 
HETATM    2  C2  UNL     1      28.662   0.770  54.384  1.00  0.00    -0.112 C 
HETATM    3  C3  UNL     1      27.623  -0.016  54.345  1.00  0.00     0.179 C 
HETATM    4  F1  UNL     1      26.815   0.226  55.389  1.00  0.00    -0.195 F 
ENDROOT
BRANCH   3   5
HETATM    5  C4  UNL     1      27.518  -0.959  53.256  1.00  0.00     0.078 C 
HETATM    6 CL1  UNL     1      28.836  -2.098  53.101  1.00  0.00    -0.081 Cl
BRANCH   5   7
HETATM    7  C5  UNL     1      26.469  -0.943  52.429  1.00  0.00     0.020 C 
BRANCH   7   8
HETATM    8  C6  UNL     1      25.711   0.318  52.275  1.00  0.00     0.150 C 
BRANCH   8   9
HETATM    9  N1  UNL     1      24.497   0.280  53.070  1.00  0.00    -0.369 N 
HETATM   10  H6  UNL     1      24.645  -0.323  53.900  1.00  0.00     0.161 HD
BRANCH   9  11
HETATM   11  C7  UNL     1      23.389   1.041  52.598  1.00  0.00     0.156 A 
HETATM   12  N2  UNL     1      23.580   2.266  52.113  1.00  0.00    -0.222 NA
HETATM   13  C8  UNL     1      22.570   3.020  51.670  1.00  0.00     0.238 A 
HETATM   14  N3  UNL     1      21.271   2.601  51.677  1.00  0.00    -0.215 NA
HETATM   15  C9  UNL     1      21.014   1.369  52.155  1.00  0.00     0.202 A 
HETATM   16  C10 UNL     1      22.080   0.591  52.615  1.00  0.00     0.128 A 
HETATM   17  O1  UNL     1      19.645   1.047  52.113  1.00  0.00    -0.289 OA
HETATM   18  N4  UNL     1      22.005  -0.733  53.143  1.00  0.00    -0.379 N 
HETATM   19  C11 UNL     1      20.930  -1.310  53.938  1.00  0.00     0.161 C 
HETATM   20  H8  UNL     1      22.882  -1.270  52.863  1.00  0.00     0.160 HD
HETATM   21  C12 UNL     1      19.592  -1.084  53.387  1.00  0.00    -0.006 A 
HETATM   22  C13 UNL     1      18.809  -2.158  53.794  1.00  0.00     0.014 A 
HETATM   23  C18 UNL     1      19.028  -0.093  52.611  1.00  0.00     0.088 A 
HETATM   24  C14 UNL     1      17.470  -2.186  53.397  1.00  0.00     0.030 A 
HETATM   25  C15 UNL     1      16.885  -1.187  52.611  1.00  0.00     0.030 A 
HETATM   26  C17 UNL     1      17.689  -0.132  52.221  1.00  0.00     0.067 A 
BRANCH  25  27
HETATM   27  N5  UNL     1      15.516  -1.271  52.237  1.00  0.00    -0.394 N 
HETATM   28  C16 UNL     1      14.913  -0.292  51.383  1.00  0.00     0.146 C 
HETATM   29  H13 UNL     1      14.949  -2.053  52.592  1.00  0.00     0.159 HD
ENDBRANCH  25  27
ENDBRANCH   9  11
ENDBRANCH   8   9
ENDBRANCH   7   8
ENDBRANCH   5   7
ENDBRANCH   3   5
TORSDOF 6
ENDMDL
MODEL 8
REMARK VINA RESULT:      -6.8      1.960      2.927
REMARK  6 active torsions:
REMARK  status: ('A' for Active; 'I' for Inactive)
REMARK    1  A    between atoms: C3_3  and  C4_5 
REMARK    2  A    between atoms: C4_5  and  C5_7 
REMARK    3  A    between atoms: C5_7  and  C6_8 
REMARK    4  A    between atoms: C6_8  and  N1_9 
REMARK    5  A    between atoms: N1_9  and  C7_10 
REMARK    6  A    between atoms: C15_21  and  N5_22 
ROOT
HETATM    1  C1  UNL     1      23.110  -0.522  53.677  1.00  0.00     0.100 C 
HETATM    2  C2  UNL     1      24.380  -0.529  54.045  1.00  0.00    -0.112 C 
HETATM    3  C3  UNL     1      25.669  -0.538  54.240  1.00  0.00     0.179 C 
HETATM    4  F1  UNL     1      25.942  -0.507  55.554  1.00  0.00    -0.195 F 
ENDROOT
BRANCH   3   5
HETATM    5  C4  UNL     1      26.536  -0.577  53.086  1.00  0.00     0.078 C 
HETATM    6 CL1  UNL     1      26.992  -2.169  52.525  1.00  0.00    -0.081 Cl
BRANCH   5   7
HETATM    7  C5  UNL     1      26.954   0.548  52.499  1.00  0.00     0.020 C 
BRANCH   7   8
HETATM    8  C6  UNL     1      26.109   1.149  51.443  1.00  0.00     0.150 C 
BRANCH   8   9
HETATM    9  N1  UNL     1      26.561   2.494  51.135  1.00  0.00    -0.369 N 
HETATM   10  H6  UNL     1      27.574   2.575  51.343  1.00  0.00     0.161 HD
BRANCH   9  11
HETATM   11  C7  UNL     1      25.591   3.402  50.624  1.00  0.00     0.156 A 
HETATM   12  N2  UNL     1      24.297   3.202  50.866  1.00  0.00    -0.222 NA
HETATM   13  C8  UNL     1      23.352   4.021  50.398  1.00  0.00     0.238 A 
HETATM   14  N3  UNL     1      23.630   5.120  49.638  1.00  0.00    -0.215 NA
HETATM   15  C9  UNL     1      24.922   5.376  49.358  1.00  0.00     0.202 A 
HETATM   16  C10 UNL     1      25.901   4.511  49.855  1.00  0.00     0.128 A 
HETATM   17  O1  UNL     1      25.087   6.531  48.571  1.00  0.00    -0.289 OA
HETATM   18  N4  UNL     1      27.313   4.624  49.674  1.00  0.00    -0.379 N 
HETATM   19  C11 UNL     1      28.017   5.134  48.507  1.00  0.00     0.161 C 
HETATM   20  H8  UNL     1      27.806   4.271  50.550  1.00  0.00     0.160 HD
HETATM   21  C12 UNL     1      27.503   6.411  48.009  1.00  0.00    -0.006 A 
HETATM   22  C13 UNL     1      28.576   7.065  47.412  1.00  0.00     0.014 A 
HETATM   23  C18 UNL     1      26.266   7.022  48.026  1.00  0.00     0.088 A 
HETATM   24  C14 UNL     1      28.351   8.323  46.849  1.00  0.00     0.030 A 
HETATM   25  C15 UNL     1      27.102   8.954  46.860  1.00  0.00     0.030 A 
HETATM   26  C17 UNL     1      26.055   8.280  47.461  1.00  0.00     0.067 A 
BRANCH  25  27
HETATM   27  N5  UNL     1      26.935  10.237  46.271  1.00  0.00    -0.394 N 
HETATM   28  C16 UNL     1      26.570  11.378  47.057  1.00  0.00     0.146 C 
HETATM   29  H13 UNL     1      27.078  10.344  45.259  1.00  0.00     0.159 HD
ENDBRANCH  25  27
ENDBRANCH   9  11
ENDBRANCH   8   9
ENDBRANCH   7   8
ENDBRANCH   5   7
ENDBRANCH   3   5
TORSDOF 6
ENDMDL
MODEL 9
REMARK VINA RESULT:      -6.8      5.592      8.010
REMARK  6 active torsions:
REMARK  status: ('A' for Active; 'I' for Inactive)
REMARK    1  A    between atoms: C3_3  and  C4_5 
REMARK    2  A    between atoms: C4_5  and  C5_7 
REMARK    3  A    between atoms: C5_7  and  C6_8 
REMARK    4  A    between atoms: C6_8  and  N1_9 
REMARK    5  A    between atoms: N1_9  and  C7_10 
REMARK    6  A    between atoms: C15_21  and  N5_22 
ROOT
HETATM    1  C1  UNL     1      16.464  -5.128  53.828  1.00  0.00     0.100 C 
HETATM    2  C2  UNL     1      15.711  -4.190  53.281  1.00  0.00    -0.112 C 
HETATM    3  C3  UNL     1      15.114  -3.183  52.708  1.00  0.00     0.179 C 
HETATM    4  F1  UNL     1      13.784  -3.365  52.709  1.00  0.00    -0.195 F 
ENDROOT
BRANCH   3   5
HETATM    5  C4  UNL     1      15.928  -2.105  52.196  1.00  0.00     0.078 C 
HETATM    6 CL1  UNL     1      15.358  -1.346  50.727  1.00  0.00    -0.081 Cl
BRANCH   5   7
HETATM    7  C5  UNL     1      17.046  -1.728  52.823  1.00  0.00     0.020 C 
BRANCH   7   8
HETATM    8  C6  UNL     1      17.605  -0.390  52.527  1.00  0.00     0.150 C 
BRANCH   8   9
HETATM    9  N1  UNL     1      19.020  -0.350  52.846  1.00  0.00    -0.369 N 
HETATM   10  H6  UNL     1      19.291  -1.224  53.335  1.00  0.00     0.161 HD
BRANCH   9  11
HETATM   11  C7  UNL     1      19.742   0.810  52.444  1.00  0.00     0.156 A 
HETATM   12  N2  UNL     1      19.123   1.784  51.780  1.00  0.00    -0.222 NA
HETATM   13  C8  UNL     1      19.762   2.885  51.374  1.00  0.00     0.238 A 
HETATM   14  N3  UNL     1      21.089   3.101  51.603  1.00  0.00    -0.215 NA
HETATM   15  C9  UNL     1      21.771   2.151  52.271  1.00  0.00     0.202 A 
HETATM   16  C10 UNL     1      21.090   1.004  52.691  1.00  0.00     0.128 A 
HETATM   17  O1  UNL     1      23.128   2.482  52.448  1.00  0.00    -0.289 OA
HETATM   18  N4  UNL     1      21.638  -0.097  53.415  1.00  0.00    -0.379 N 
HETATM   19  C11 UNL     1      22.982  -0.645  53.310  1.00  0.00     0.161 C 
HETATM   20  H8  UNL     1      20.896  -0.482  54.077  1.00  0.00     0.160 HD
HETATM   21  C12 UNL     1      24.044   0.363  53.362  1.00  0.00    -0.006 A 
HETATM   22  C13 UNL     1      25.159  -0.265  53.908  1.00  0.00     0.014 A 
HETATM   23  C18 UNL     1      24.126   1.692  53.003  1.00  0.00     0.088 A 
HETATM   24  C14 UNL     1      26.326   0.486  54.069  1.00  0.00     0.030 A 
HETATM   25  C15 UNL     1      26.422   1.835  53.708  1.00  0.00     0.030 A 
HETATM   26  C17 UNL     1      25.297   2.431  53.169  1.00  0.00     0.067 A 
BRANCH  25  27
HETATM   27  N5  UNL     1      27.637   2.548  53.896  1.00  0.00    -0.394 N 
HETATM   28  C16 UNL     1      28.887   1.866  54.055  1.00  0.00     0.146 C 
HETATM   29  H13 UNL     1      27.614   3.576  53.920  1.00  0.00     0.159 HD
ENDBRANCH  25  27
ENDBRANCH   9  11
ENDBRANCH   8   9
ENDBRANCH   7   8
ENDBRANCH   5   7
ENDBRANCH   3   5
TORSDOF 6
ENDMDL
