MODEL 1
REMARK VINA RESULT:      -6.1      0.000      0.000
REMARK  8 active torsions:
REMARK  status: ('A' for Active; 'I' for Inactive)
REMARK    1  A    between atoms: O1_2  and  C2_3 
REMARK    2  A    between atoms: C5_6  and  C6_7 
REMARK    3  A    between atoms: N2_9  and  C7_10 
REMARK    4  A    between atoms: C7_10  and  S1_11 
REMARK    5  A    between atoms: S1_11  and  C8_12 
REMARK    6  A    between atoms: C8_12  and  C9_13 
REMARK    7  A    between atoms: C9_13  and  C10_14 
REMARK    8  A    between atoms: C10_14  and  C11_15 
ROOT
HETATM    1  C6  UNL     1      23.577  -0.613  53.901  1.00  0.00     0.066 C 
HETATM    2  N1  UNL     1      22.703  -0.345  53.000  1.00  0.00    -0.180 NA
HETATM    3  N2  UNL     1      21.413  -0.649  53.410  1.00  0.00    -0.295 N 
HETATM    4  C12 UNL     1      21.578  -1.637  54.469  1.00  0.00     0.152 C 
HETATM    5  C13 UNL     1      22.877  -1.166  55.090  1.00  0.00     0.083 C 
ENDROOT
BRANCH   1   6
HETATM    6  C5  UNL     1      25.018  -0.411  53.784  1.00  0.00    -0.010 A 
HETATM    7  C4  UNL     1      25.668  -0.513  52.572  1.00  0.00     0.016 A 
HETATM    8  C3  UNL     1      27.048  -0.313  52.500  1.00  0.00     0.037 A 
HETATM    9  C2  UNL     1      27.770  -0.009  53.658  1.00  0.00     0.068 A 
HETATM   10  C15 UNL     1      27.133   0.097  54.884  1.00  0.00     0.037 A 
HETATM   11  C14 UNL     1      25.768  -0.110  54.901  1.00  0.00     0.016 A 
BRANCH   9  12
HETATM   12  O1  UNL     1      29.132   0.199  53.649  1.00  0.00    -0.356 OA
HETATM   13  C1  UNL     1      30.053  -0.881  53.657  1.00  0.00     0.210 C 
ENDBRANCH   9  12
ENDBRANCH   1   6
BRANCH   3  14
HETATM   14  C7  UNL     1      20.206  -0.080  52.872  1.00  0.00     0.222 C 
BRANCH  14  15
HETATM   15  S1  UNL     1      20.374   1.719  52.583  1.00  0.00    -0.120 SA
BRANCH  15  16
HETATM   16  C8  UNL     1      21.411   1.976  51.158  1.00  0.00     0.046 C 
BRANCH  16  17
HETATM   17  C9  UNL     1      22.468   2.127  50.385  1.00  0.00     0.009 C 
BRANCH  17  18
HETATM   18  C10 UNL     1      23.765   2.323  50.978  1.00  0.00     0.030 C 
BRANCH  18  19
HETATM   19  C11 UNL     1      23.964   3.105  52.019  1.00  0.00     0.188 C 
HETATM   20  F1  UNL     1      24.026   2.672  53.290  1.00  0.00    -0.219 F 
ENDBRANCH  18  19
ENDBRANCH  17  18
ENDBRANCH  16  17
ENDBRANCH  15  16
ENDBRANCH  14  15
ENDBRANCH   3  14
TORSDOF 8
ENDMDL
MODEL 2
REMARK VINA RESULT:      -6.1      2.096      3.696
REMARK  8 active torsions:
REMARK  status: ('A' for Active; 'I' for Inactive)
REMARK    1  A    between atoms: O1_2  and  C2_3 
REMARK    2  A    between atoms: C5_6  and  C6_7 
REMARK    3  A    between atoms: N2_9  and  C7_10 
REMARK    4  A    between atoms: C7_10  and  S1_11 
REMARK    5  A    between atoms: S1_11  and  C8_12 
REMARK    6  A    between atoms: C8_12  and  C9_13 
REMARK    7  A    between atoms: C9_13  and  C10_14 
REMARK    8  A    between atoms: C10_14  and  C11_15 
ROOT
HETATM    1  C6  UNL     1      24.678   2.556  52.122  1.00  0.00     0.066 C 
HETATM    2  N1  UNL     1      23.866   3.290  52.791  1.00  0.00    -0.180 NA
HETATM    3  N2  UNL     1      23.075   4.083  51.972  1.00  0.00    -0.295 N 
HETATM    4  C12 UNL     1      23.814   4.187  50.721  1.00  0.00     0.152 C 
HETATM    5  C13 UNL     1      24.475   2.825  50.673  1.00  0.00     0.083 C 
ENDROOT
BRANCH   1   6
HETATM    6  C5  UNL     1      25.642   1.614  52.682  1.00  0.00    -0.010 A 
HETATM    7  C4  UNL     1      26.067   1.704  53.990  1.00  0.00     0.016 A 
HETATM    8  C3  UNL     1      26.990   0.783  54.491  1.00  0.00     0.037 A 
HETATM    9  C2  UNL     1      27.484  -0.230  53.663  1.00  0.00     0.068 A 
HETATM   10  C15 UNL     1      27.068  -0.334  52.345  1.00  0.00     0.037 A 
HETATM   11  C14 UNL     1      26.155   0.600  51.899  1.00  0.00     0.016 A 
BRANCH   9  12
HETATM   12  O1  UNL     1      28.396  -1.165  54.099  1.00  0.00    -0.356 OA
HETATM   13  C1  UNL     1      29.724  -1.204  53.600  1.00  0.00     0.210 C 
ENDBRANCH   9  12
ENDBRANCH   1   6
BRANCH   3  14
HETATM   14  C7  UNL     1      21.803   4.654  52.333  1.00  0.00     0.222 C 
BRANCH  14  15
HETATM   15  S1  UNL     1      20.410   3.590  51.808  1.00  0.00    -0.120 SA
BRANCH  15  16
HETATM   16  C8  UNL     1      20.598   1.987  52.560  1.00  0.00     0.046 C 
BRANCH  16  17
HETATM   17  C9  UNL     1      20.936   1.022  53.392  1.00  0.00     0.009 C 
BRANCH  17  18
HETATM   18  C10 UNL     1      22.052   0.168  53.079  1.00  0.00     0.030 C 
BRANCH  18  19
HETATM   19  C11 UNL     1      22.685  -0.542  53.990  1.00  0.00     0.188 C 
HETATM   20  F1  UNL     1      23.966  -0.937  53.885  1.00  0.00    -0.219 F 
ENDBRANCH  18  19
ENDBRANCH  17  18
ENDBRANCH  16  17
ENDBRANCH  15  16
ENDBRANCH  14  15
ENDBRANCH   3  14
TORSDOF 8
ENDMDL
MODEL 3
REMARK VINA RESULT:      -6.0      3.476      5.840
REMARK  8 active torsions:
REMARK  status: ('A' for Active; 'I' for Inactive)
REMARK    1  A    between atoms: O1_2  and  C2_3 
REMARK    2  A    between atoms: C5_6  and  C6_7 
REMARK    3  A    between atoms: N2_9  and  C7_10 
REMARK    4  A    between atoms: C7_10  and  S1_11 
REMARK    5  A    between atoms: S1_11  and  C8_12 
REMARK    6  A    between atoms: C8_12  and  C9_13 
REMARK    7  A    between atoms: C9_13  and  C10_14 
REMARK    8  A    between atoms: C10_14  and  C11_15 
ROOT
HETATM    1  C6  UNL     1      25.086  -0.479  53.561  1.00  0.00     0.066 C 
HETATM    2  N1  UNL     1      25.863   0.011  54.456  1.00  0.00    -0.180 NA
HETATM    3  N2  UNL     1      27.203  -0.121  54.122  1.00  0.00    -0.295 N 
HETATM    4  C12 UNL     1      27.245  -1.221  53.167  1.00  0.00     0.152 C 
HETATM    5  C13 UNL     1      25.920  -1.026  52.458  1.00  0.00     0.083 C 
ENDROOT
BRANCH   1   6
HETATM    6  C5  UNL     1      23.627  -0.499  53.610  1.00  0.00    -0.010 A 
HETATM    7  C4  UNL     1      22.945  -1.086  54.655  1.00  0.00     0.016 A 
HETATM    8  C3  UNL     1      21.549  -1.085  54.667  1.00  0.00     0.037 A 
HETATM    9  C2  UNL     1      20.843  -0.488  53.619  1.00  0.00     0.068 A 
HETATM   10  C15 UNL     1      21.512   0.106  52.561  1.00  0.00     0.037 A 
HETATM   11  C14 UNL     1      22.892   0.079  52.596  1.00  0.00     0.016 A 
BRANCH   9  12
HETATM   12  O1  UNL     1      19.466  -0.456  53.575  1.00  0.00    -0.356 OA
HETATM   13  C1  UNL     1      18.690  -1.643  53.587  1.00  0.00     0.210 C 
ENDBRANCH   9  12
ENDBRANCH   1   6
BRANCH   3  14
HETATM   14  C7  UNL     1      28.280   0.683  54.637  1.00  0.00     0.222 C 
BRANCH  14  15
HETATM   15  S1  UNL     1      28.527   2.201  53.645  1.00  0.00    -0.120 SA
BRANCH  15  16
HETATM   16  C8  UNL     1      27.411   2.167  52.258  1.00  0.00     0.046 C 
BRANCH  16  17
HETATM   17  C9  UNL     1      26.556   2.536  51.325  1.00  0.00     0.009 C 
BRANCH  17  18
HETATM   18  C10 UNL     1      25.176   2.759  51.668  1.00  0.00     0.030 C 
BRANCH  18  19
HETATM   19  C11 UNL     1      24.251   3.029  50.770  1.00  0.00     0.188 C 
HETATM   20  F1  UNL     1      24.406   2.849  49.447  1.00  0.00    -0.219 F 
ENDBRANCH  18  19
ENDBRANCH  17  18
ENDBRANCH  16  17
ENDBRANCH  15  16
ENDBRANCH  14  15
ENDBRANCH   3  14
TORSDOF 8
ENDMDL
MODEL 4
REMARK VINA RESULT:      -5.8      1.540      2.062
REMARK  8 active torsions:
REMARK  status: ('A' for Active; 'I' for Inactive)
REMARK    1  A    between atoms: O1_2  and  C2_3 
REMARK    2  A    between atoms: C5_6  and  C6_7 
REMARK    3  A    between atoms: N2_9  and  C7_10 
REMARK    4  A    between atoms: C7_10  and  S1_11 
REMARK    5  A    between atoms: S1_11  and  C8_12 
REMARK    6  A    between atoms: C8_12  and  C9_13 
REMARK    7  A    between atoms: C9_13  and  C10_14 
REMARK    8  A    between atoms: C10_14  and  C11_15 
ROOT
HETATM    1  C6  UNL     1      22.335   0.151  52.956  1.00  0.00     0.066 C 
HETATM    2  N1  UNL     1      21.689   0.086  51.850  1.00  0.00    -0.180 NA
HETATM    3  N2  UNL     1      20.316   0.160  52.035  1.00  0.00    -0.295 N 
HETATM    4  C12 UNL     1      20.101  -0.253  53.416  1.00  0.00     0.152 C 
HETATM    5  C13 UNL     1      21.357   0.286  54.068  1.00  0.00     0.083 C 
ENDROOT
BRANCH   1   6
HETATM    6  C5  UNL     1      23.786   0.101  53.105  1.00  0.00    -0.010 A 
HETATM    7  C4  UNL     1      24.385  -0.575  54.148  1.00  0.00     0.016 A 
HETATM    8  C3  UNL     1      25.776  -0.600  54.257  1.00  0.00     0.037 A 
HETATM    9  C2  UNL     1      26.563   0.059  53.308  1.00  0.00     0.068 A 
HETATM   10  C15 UNL     1      25.978   0.743  52.254  1.00  0.00     0.037 A 
HETATM   11  C14 UNL     1      24.599   0.738  52.191  1.00  0.00     0.016 A 
BRANCH   9  12
HETATM   12  O1  UNL     1      27.939   0.070  53.363  1.00  0.00    -0.356 OA
HETATM   13  C1  UNL     1      28.638   0.190  54.592  1.00  0.00     0.210 C 
ENDBRANCH   9  12
ENDBRANCH   1   6
BRANCH   3  14
HETATM   14  C7  UNL     1      19.356   0.566  51.043  1.00  0.00     0.222 C 
BRANCH  14  15
HETATM   15  S1  UNL     1      18.712   2.248  51.369  1.00  0.00    -0.120 SA
BRANCH  15  16
HETATM   16  C8  UNL     1      20.075   3.308  51.804  1.00  0.00     0.046 C 
BRANCH  16  17
HETATM   17  C9  UNL     1      21.141   3.802  52.402  1.00  0.00     0.009 C 
BRANCH  17  18
HETATM   18  C10 UNL     1      22.420   3.747  51.744  1.00  0.00     0.030 C 
BRANCH  18  19
HETATM   19  C11 UNL     1      23.527   4.202  52.293  1.00  0.00     0.188 C 
HETATM   20  F1  UNL     1      24.056   3.726  53.434  1.00  0.00    -0.219 F 
ENDBRANCH  18  19
ENDBRANCH  17  18
ENDBRANCH  16  17
ENDBRANCH  15  16
ENDBRANCH  14  15
ENDBRANCH   3  14
TORSDOF 8
ENDMDL
MODEL 5
REMARK VINA RESULT:      -5.8      2.880      3.826
REMARK  8 active torsions:
REMARK  status: ('A' for Active; 'I' for Inactive)
REMARK    1  A    between atoms: O1_2  and  C2_3 
REMARK    2  A    between atoms: C5_6  and  C6_7 
REMARK    3  A    between atoms: N2_9  and  C7_10 
REMARK    4  A    between atoms: C7_10  and  S1_11 
REMARK    5  A    between atoms: S1_11  and  C8_12 
REMARK    6  A    between atoms: C8_12  and  C9_13 
REMARK    7  A    between atoms: C9_13  and  C10_14 
REMARK    8  A    between atoms: C10_14  and  C11_15 
ROOT
HETATM    1  C6  UNL     1      23.836   2.043  52.043  1.00  0.00     0.066 C 
HETATM    2  N1  UNL     1      22.913   1.852  51.173  1.00  0.00    -0.180 NA
HETATM    3  N2  UNL     1      22.116   2.973  50.994  1.00  0.00    -0.295 N 
HETATM    4  C12 UNL     1      22.278   3.749  52.217  1.00  0.00     0.152 C 
HETATM    5  C13 UNL     1      23.720   3.433  52.560  1.00  0.00     0.083 C 
ENDROOT
BRANCH   1   6
HETATM    6  C5  UNL     1      24.837   1.066  52.460  1.00  0.00    -0.010 A 
HETATM    7  C4  UNL     1      24.570   0.126  53.434  1.00  0.00     0.016 A 
HETATM    8  C3  UNL     1      25.553  -0.793  53.806  1.00  0.00     0.037 A 
HETATM    9  C2  UNL     1      26.808  -0.761  53.190  1.00  0.00     0.068 A 
HETATM   10  C15 UNL     1      27.093   0.177  52.210  1.00  0.00     0.037 A 
HETATM   11  C14 UNL     1      26.088   1.063  51.879  1.00  0.00     0.016 A 
BRANCH   9  12
HETATM   12  O1  UNL     1      27.817  -1.640  53.515  1.00  0.00    -0.356 OA
HETATM   13  C1  UNL     1      29.185  -1.277  53.420  1.00  0.00     0.210 C 
ENDBRANCH   9  12
ENDBRANCH   1   6
BRANCH   3  14
HETATM   14  C7  UNL     1      21.322   3.260  49.829  1.00  0.00     0.222 C 
BRANCH  14  15
HETATM   15  S1  UNL     1      22.358   3.463  48.334  1.00  0.00    -0.120 SA
BRANCH  15  16
HETATM   16  C8  UNL     1      23.963   4.059  48.827  1.00  0.00     0.046 C 
BRANCH  16  17
HETATM   17  C9  UNL     1      24.923   4.704  49.458  1.00  0.00     0.009 C 
BRANCH  17  18
HETATM   18  C10 UNL     1      26.218   4.090  49.608  1.00  0.00     0.030 C 
BRANCH  18  19
HETATM   19  C11 UNL     1      27.280   4.492  48.942  1.00  0.00     0.188 C 
HETATM   20  F1  UNL     1      27.307   5.571  48.140  1.00  0.00    -0.219 F 
ENDBRANCH  18  19
ENDBRANCH  17  18
ENDBRANCH  16  17
ENDBRANCH  15  16
ENDBRANCH  14  15
ENDBRANCH   3  14
TORSDOF 8
ENDMDL
MODEL 6
REMARK VINA RESULT:      -5.6      2.523      3.696
REMARK  8 active torsions:
REMARK  status: ('A' for Active; 'I' for Inactive)
REMARK    1  A    between atoms: O1_2  and  C2_3 
REMARK    2  A    between atoms: C5_6  and  C6_7 
REMARK    3  A    between atoms: N2_9  and  C7_10 
REMARK    4  A    between atoms: C7_10  and  S1_11 
REMARK    5  A    between atoms: S1_11  and  C8_12 
REMARK    6  A    between atoms: C8_12  and  C9_13 
REMARK    7  A    between atoms: C9_13  and  C10_14 
REMARK    8  A    between atoms: C10_14  and  C11_15 
ROOT
HETATM    1  C6  UNL     1      24.484   2.379  51.709  1.00  0.00     0.066 C 
HETATM    2  N1  UNL     1      23.507   2.882  52.371  1.00  0.00    -0.180 NA
HETATM    3  N2  UNL     1      22.794   3.816  51.633  1.00  0.00    -0.295 N 
HETATM    4  C12 UNL     1      23.720   4.265  50.602  1.00  0.00     0.152 C 
HETATM    5  C13 UNL     1      24.503   2.992  50.354  1.00  0.00     0.083 C 
ENDROOT
BRANCH   1   6
HETATM    6  C5  UNL     1      25.424   1.375  52.197  1.00  0.00    -0.010 A 
HETATM    7  C4  UNL     1      26.783   1.495  51.998  1.00  0.00     0.016 A 
HETATM    8  C3  UNL     1      27.650   0.513  52.480  1.00  0.00     0.037 A 
HETATM    9  C2  UNL     1      27.139  -0.593  53.166  1.00  0.00     0.068 A 
HETATM   10  C15 UNL     1      25.776  -0.730  53.375  1.00  0.00     0.037 A 
HETATM   11  C14 UNL     1      24.962   0.267  52.878  1.00  0.00     0.016 A 
BRANCH   9  12
HETATM   12  O1  UNL     1      27.945  -1.594  53.664  1.00  0.00    -0.356 OA
HETATM   13  C1  UNL     1      29.323  -1.677  53.339  1.00  0.00     0.210 C 
ENDBRANCH   9  12
ENDBRANCH   1   6
BRANCH   3  14
HETATM   14  C7  UNL     1      21.434   4.216  51.877  1.00  0.00     0.222 C 
BRANCH  14  15
HETATM   15  S1  UNL     1      20.350   2.776  52.196  1.00  0.00    -0.120 SA
BRANCH  15  16
HETATM   16  C8  UNL     1      20.855   1.434  51.139  1.00  0.00     0.046 C 
BRANCH  16  17
HETATM   17  C9  UNL     1      21.428   0.743  50.174  1.00  0.00     0.009 C 
BRANCH  17  18
HETATM   18  C10 UNL     1      21.201   1.112  48.800  1.00  0.00     0.030 C 
BRANCH  18  19
HETATM   19  C11 UNL     1      21.879   2.066  48.195  1.00  0.00     0.188 C 
HETATM   20  F1  UNL     1      22.881   1.847  47.326  1.00  0.00    -0.219 F 
ENDBRANCH  18  19
ENDBRANCH  17  18
ENDBRANCH  16  17
ENDBRANCH  15  16
ENDBRANCH  14  15
ENDBRANCH   3  14
TORSDOF 8
ENDMDL
MODEL 7
REMARK VINA RESULT:      -5.5      2.835      3.715
REMARK  8 active torsions:
REMARK  status: ('A' for Active; 'I' for Inactive)
REMARK    1  A    between atoms: O1_2  and  C2_3 
REMARK    2  A    between atoms: C5_6  and  C6_7 
REMARK    3  A    between atoms: N2_9  and  C7_10 
REMARK    4  A    between atoms: C7_10  and  S1_11 
REMARK    5  A    between atoms: S1_11  and  C8_12 
REMARK    6  A    between atoms: C8_12  and  C9_13 
REMARK    7  A    between atoms: C9_13  and  C10_14 
REMARK    8  A    between atoms: C10_14  and  C11_15 
ROOT
HETATM    1  C6  UNL     1      23.943   2.010  52.258  1.00  0.00     0.066 C 
HETATM    2  N1  UNL     1      23.654   3.253  52.389  1.00  0.00    -0.180 NA
HETATM    3  N2  UNL     1      22.485   3.596  51.726  1.00  0.00    -0.295 N 
HETATM    4  C12 UNL     1      22.317   2.569  50.705  1.00  0.00     0.152 C 
HETATM    5  C13 UNL     1      22.896   1.366  51.421  1.00  0.00     0.083 C 
ENDROOT
BRANCH   1   6
HETATM    6  C5  UNL     1      25.104   1.334  52.830  1.00  0.00    -0.010 A 
HETATM    7  C4  UNL     1      26.118   2.035  53.449  1.00  0.00     0.016 A 
HETATM    8  C3  UNL     1      27.212   1.353  53.985  1.00  0.00     0.037 A 
HETATM    9  C2  UNL     1      27.279  -0.040  53.894  1.00  0.00     0.068 A 
HETATM   10  C15 UNL     1      26.269  -0.760  53.275  1.00  0.00     0.037 A 
HETATM   11  C14 UNL     1      25.210  -0.039  52.762  1.00  0.00     0.016 A 
BRANCH   9  12
HETATM   12  O1  UNL     1      28.332  -0.768  54.403  1.00  0.00    -0.356 OA
HETATM   13  C1  UNL     1      29.456  -1.113  53.609  1.00  0.00     0.210 C 
ENDBRANCH   9  12
ENDBRANCH   1   6
BRANCH   3  14
HETATM   14  C7  UNL     1      21.654   4.733  52.024  1.00  0.00     0.222 C 
BRANCH  14  15
HETATM   15  S1  UNL     1      22.048   6.161  50.949  1.00  0.00    -0.120 SA
BRANCH  15  16
HETATM   16  C8  UNL     1      23.814   6.245  50.734  1.00  0.00     0.046 C 
BRANCH  16  17
HETATM   17  C9  UNL     1      25.043   5.996  50.326  1.00  0.00     0.009 C 
BRANCH  17  18
HETATM   18  C10 UNL     1      25.346   4.735  49.700  1.00  0.00     0.030 C 
BRANCH  18  19
HETATM   19  C11 UNL     1      26.554   4.415  49.285  1.00  0.00     0.188 C 
HETATM   20  F1  UNL     1      26.973   3.155  49.076  1.00  0.00    -0.219 F 
ENDBRANCH  18  19
ENDBRANCH  17  18
ENDBRANCH  16  17
ENDBRANCH  15  16
ENDBRANCH  14  15
ENDBRANCH   3  14
TORSDOF 8
ENDMDL
MODEL 8
REMARK VINA RESULT:      -5.5      7.905     10.631
REMARK  8 active torsions:
REMARK  status: ('A' for Active; 'I' for Inactive)
REMARK    1  A    between atoms: O1_2  and  C2_3 
REMARK    2  A    between atoms: C5_6  and  C6_7 
REMARK    3  A    between atoms: N2_9  and  C7_10 
REMARK    4  A    between atoms: C7_10  and  S1_11 
REMARK    5  A    between atoms: S1_11  and  C8_12 
REMARK    6  A    between atoms: C8_12  and  C9_13 
REMARK    7  A    between atoms: C9_13  and  C10_14 
REMARK    8  A    between atoms: C10_14  and  C11_15 
ROOT
HETATM    1  C6  UNL     1      28.767   6.096  48.125  1.00  0.00     0.066 C 
HETATM    2  N1  UNL     1      29.855   5.417  48.126  1.00  0.00    -0.180 NA
HETATM    3  N2  UNL     1      30.941   6.159  47.686  1.00  0.00    -0.295 N 
HETATM    4  C12 UNL     1      30.363   7.236  46.893  1.00  0.00     0.152 C 
HETATM    5  C13 UNL     1      29.067   7.470  47.642  1.00  0.00     0.083 C 
ENDROOT
BRANCH   1   6
HETATM    6  C5  UNL     1      27.452   5.609  48.530  1.00  0.00    -0.010 A 
HETATM    7  C4  UNL     1      26.328   6.405  48.453  1.00  0.00     0.016 A 
HETATM    8  C3  UNL     1      25.087   5.904  48.849  1.00  0.00     0.037 A 
HETATM    9  C2  UNL     1      24.984   4.593  49.325  1.00  0.00     0.068 A 
HETATM   10  C15 UNL     1      26.102   3.780  49.410  1.00  0.00     0.037 A 
HETATM   11  C14 UNL     1      27.305   4.323  49.006  1.00  0.00     0.016 A 
BRANCH   9  12
HETATM   12  O1  UNL     1      23.788   4.043  49.731  1.00  0.00    -0.356 OA
HETATM   13  C1  UNL     1      22.552   4.710  49.531  1.00  0.00     0.210 C 
ENDBRANCH   9  12
ENDBRANCH   1   6
BRANCH   3  14
HETATM   14  C7  UNL     1      32.322   5.880  47.980  1.00  0.00     0.222 C 
BRANCH  14  15
HETATM   15  S1  UNL     1      33.087   4.817  46.702  1.00  0.00    -0.120 SA
BRANCH  15  16
HETATM   16  C8  UNL     1      33.291   3.178  47.368  1.00  0.00     0.046 C 
BRANCH  16  17
HETATM   17  C9  UNL     1      33.091   1.910  47.667  1.00  0.00     0.009 C 
BRANCH  17  18
HETATM   18  C10 UNL     1      32.243   1.104  46.827  1.00  0.00     0.030 C 
BRANCH  18  19
HETATM   19  C11 UNL     1      32.083  -0.191  47.006  1.00  0.00     0.188 C 
HETATM   20  F1  UNL     1      32.469  -0.855  48.109  1.00  0.00    -0.219 F 
ENDBRANCH  18  19
ENDBRANCH  17  18
ENDBRANCH  16  17
ENDBRANCH  15  16
ENDBRANCH  14  15
ENDBRANCH   3  14
TORSDOF 8
ENDMDL
MODEL 9
REMARK VINA RESULT:      -5.4      4.523      6.649
REMARK  8 active torsions:
REMARK  status: ('A' for Active; 'I' for Inactive)
REMARK    1  A    between atoms: O1_2  and  C2_3 
REMARK    2  A    between atoms: C5_6  and  C6_7 
REMARK    3  A    between atoms: N2_9  and  C7_10 
REMARK    4  A    between atoms: C7_10  and  S1_11 
REMARK    5  A    between atoms: S1_11  and  C8_12 
REMARK    6  A    between atoms: C8_12  and  C9_13 
REMARK    7  A    between atoms: C9_13  and  C10_14 
REMARK    8  A    between atoms: C10_14  and  C11_15 
ROOT
HETATM    1  C6  UNL     1      24.673   3.982  49.796  1.00  0.00     0.066 C 
HETATM    2  N1  UNL     1      24.331   3.953  51.032  1.00  0.00    -0.180 NA
HETATM    3  N2  UNL     1      23.262   3.100  51.264  1.00  0.00    -0.295 N 
HETATM    4  C12 UNL     1      22.594   2.976  49.975  1.00  0.00     0.152 C 
HETATM    5  C13 UNL     1      23.779   3.069  49.036  1.00  0.00     0.083 C 
ENDROOT
BRANCH   1   6
HETATM    6  C5  UNL     1      25.756   4.776  49.225  1.00  0.00    -0.010 A 
HETATM    7  C4  UNL     1      27.029   4.267  49.080  1.00  0.00     0.016 A 
HETATM    8  C3  UNL     1      28.040   5.057  48.529  1.00  0.00     0.037 A 
HETATM    9  C2  UNL     1      27.759   6.366  48.123  1.00  0.00     0.068 A 
HETATM   10  C15 UNL     1      26.485   6.893  48.262  1.00  0.00     0.037 A 
HETATM   11  C14 UNL     1      25.523   6.072  48.812  1.00  0.00     0.016 A 
BRANCH   9  12
HETATM   12  O1  UNL     1      28.714   7.193  47.574  1.00  0.00    -0.356 OA
HETATM   13  C1  UNL     1      29.531   8.030  48.377  1.00  0.00     0.210 C 
ENDBRANCH   9  12
ENDBRANCH   1   6
BRANCH   3  14
HETATM   14  C7  UNL     1      22.930   2.495  52.528  1.00  0.00     0.222 C 
BRANCH  14  15
HETATM   15  S1  UNL     1      23.363   0.718  52.562  1.00  0.00    -0.120 SA
BRANCH  15  16
HETATM   16  C8  UNL     1      25.136   0.559  52.507  1.00  0.00     0.046 C 
BRANCH  16  17
HETATM   17  C9  UNL     1      26.380   0.516  52.074  1.00  0.00     0.009 C 
BRANCH  17  18
HETATM   18  C10 UNL     1      27.463   0.423  53.019  1.00  0.00     0.030 C 
BRANCH  18  19
HETATM   19  C11 UNL     1      27.288   0.058  54.272  1.00  0.00     0.188 C 
HETATM   20  F1  UNL     1      28.284  -0.089  55.163  1.00  0.00    -0.219 F 
ENDBRANCH  18  19
ENDBRANCH  17  18
ENDBRANCH  16  17
ENDBRANCH  15  16
ENDBRANCH  14  15
ENDBRANCH   3  14
TORSDOF 8
ENDMDL
