MODEL 1
REMARK VINA RESULT:      -8.6      0.000      0.000
REMARK  3 active torsions:
REMARK  status: ('A' for Active; 'I' for Inactive)
REMARK    1  A    between atoms: C6_6  and  N1_7 
REMARK    2  A    between atoms: N1_7  and  C7_8 
REMARK    3  A    between atoms: C12_15  and  N4_16 
REMARK       I    between atoms: N4_16  and  C13_17 
REMARK       I    between atoms: C13_17  and  N5_18 
ROOT
HETATM    1  C7  UNL     1      24.298   2.448  50.921  1.00  0.00     0.142 A 
HETATM    2  N2  UNL     1      23.005   2.843  50.880  1.00  0.00    -0.224 NA
HETATM    3  C8  UNL     1      22.104   2.279  51.732  1.00  0.00     0.236 A 
HETATM    4  N3  UNL     1      22.469   1.338  52.614  1.00  0.00    -0.241 NA
HETATM    5  C9  UNL     1      23.724   0.885  52.728  1.00  0.00     0.072 A 
HETATM    6  C10 UNL     1      24.064  -0.062  53.643  1.00  0.00     0.035 A 
HETATM    7  C11 UNL     1      25.376  -0.489  53.730  1.00  0.00     0.032 A 
HETATM    8  C12 UNL     1      26.312   0.061  52.882  1.00  0.00     0.037 A 
HETATM    9  C14 UNL     1      25.963   1.019  51.957  1.00  0.00     0.047 A 
HETATM   10  C15 UNL     1      24.637   1.461  51.859  1.00  0.00     0.041 A 
ENDROOT
BRANCH   1  11
HETATM   11  N1  UNL     1      25.339   2.954  50.123  1.00  0.00    -0.340 N 
HETATM   12  H7  UNL     1      25.953   2.109  49.927  1.00  0.00     0.167 HD
BRANCH  11  13
HETATM   13  C6  UNL     1      25.766   4.179  49.552  1.00  0.00     0.034 A 
HETATM   14  C5  UNL     1      24.895   5.234  49.349  1.00  0.00     0.029 A 
HETATM   15  C4  UNL     1      25.438   6.350  48.759  1.00  0.00     0.003 A 
HETATM   16  C3  UNL     1      26.750   6.471  48.373  1.00  0.00     0.007 A 
HETATM   17  C2  UNL     1      27.629   5.426  48.569  1.00  0.00    -0.060 A 
HETATM   18  C1  UNL     1      29.045   5.516  48.153  1.00  0.00     0.048 C 
HETATM   19  C16 UNL     1      27.104   4.296  49.162  1.00  0.00     0.036 A 
ENDBRANCH  11  13
ENDBRANCH   1  11
BRANCH   8  20
HETATM   20  N4  UNL     1      27.634  -0.426  53.042  1.00  0.00    -0.309 N 
HETATM   21  C13 UNL     1      28.631  -0.166  54.021  1.00  0.00     0.318 C 
HETATM   22  N5  UNL     1      29.887  -0.831  53.902  1.00  0.00    -0.352 N 
HETATM   23  O1  UNL     1      28.482   0.617  54.996  1.00  0.00    -0.247 OA
HETATM   24  H12 UNL     1      30.446  -1.708  54.105  1.00  0.00     0.160 HD
HETATM   25  H13 UNL     1      30.613  -0.238  53.408  1.00  0.00     0.160 HD
HETATM   26  H11 UNL     1      27.811  -1.084  52.254  1.00  0.00     0.170 HD
ENDBRANCH   8  20
TORSDOF 3
ENDMDL
MODEL 2
REMARK VINA RESULT:      -8.5      1.802      2.706
REMARK  3 active torsions:
REMARK  status: ('A' for Active; 'I' for Inactive)
REMARK    1  A    between atoms: C6_6  and  N1_7 
REMARK    2  A    between atoms: N1_7  and  C7_8 
REMARK    3  A    between atoms: C12_15  and  N4_16 
REMARK       I    between atoms: N4_16  and  C13_17 
REMARK       I    between atoms: C13_17  and  N5_18 
ROOT
HETATM    1  C7  UNL     1      22.142   0.842  51.986  1.00  0.00     0.142 A 
HETATM    2  N2  UNL     1      20.795   0.879  51.864  1.00  0.00    -0.224 NA
HETATM    3  C8  UNL     1      20.021   0.224  52.772  1.00  0.00     0.236 A 
HETATM    4  N3  UNL     1      20.562  -0.461  53.790  1.00  0.00    -0.241 NA
HETATM    5  C9  UNL     1      21.883  -0.554  53.992  1.00  0.00     0.072 A 
HETATM    6  C10 UNL     1      22.400  -1.247  55.042  1.00  0.00     0.035 A 
HETATM    7  C11 UNL     1      23.771  -1.304  55.215  1.00  0.00     0.032 A 
HETATM    8  C12 UNL     1      24.583  -0.652  54.313  1.00  0.00     0.037 A 
HETATM    9  C14 UNL     1      24.054   0.048  53.251  1.00  0.00     0.047 A 
HETATM   10  C15 UNL     1      22.667   0.113  53.065  1.00  0.00     0.041 A 
ENDROOT
BRANCH   1  11
HETATM   11  N1  UNL     1      23.063   1.485  51.142  1.00  0.00    -0.340 N 
HETATM   12  H7  UNL     1      23.426   0.710  50.511  1.00  0.00     0.167 HD
BRANCH  11  13
HETATM   13  C6  UNL     1      23.603   2.776  50.914  1.00  0.00     0.034 A 
HETATM   14  C5  UNL     1      22.924   3.926  51.276  1.00  0.00     0.029 A 
HETATM   15  C4  UNL     1      23.550   5.110  50.967  1.00  0.00     0.003 A 
HETATM   16  C3  UNL     1      24.768   5.210  50.343  1.00  0.00     0.007 A 
HETATM   17  C2  UNL     1      25.456   4.071  49.977  1.00  0.00    -0.060 A 
HETATM   18  C1  UNL     1      26.763   4.142  49.289  1.00  0.00     0.048 C 
HETATM   19  C16 UNL     1      24.844   2.872  50.278  1.00  0.00     0.036 A 
ENDBRANCH  11  13
ENDBRANCH   1  11
BRANCH   8  20
HETATM   20  N4  UNL     1      25.974  -0.753  54.567  1.00  0.00    -0.309 N 
HETATM   21  C13 UNL     1      26.972   0.231  54.801  1.00  0.00     0.318 C 
HETATM   22  N5  UNL     1      28.310  -0.204  55.033  1.00  0.00    -0.352 N 
HETATM   23  O1  UNL     1      26.756   1.471  54.817  1.00  0.00    -0.247 OA
HETATM   24  H12 UNL     1      29.016  -0.552  55.742  1.00  0.00     0.160 HD
HETATM   25  H13 UNL     1      28.898  -0.191  54.152  1.00  0.00     0.160 HD
HETATM   26  H11 UNL     1      26.208  -1.768  54.564  1.00  0.00     0.170 HD
ENDBRANCH   8  20
TORSDOF 3
ENDMDL
MODEL 3
REMARK VINA RESULT:      -8.5      1.651      1.836
REMARK  3 active torsions:
REMARK  status: ('A' for Active; 'I' for Inactive)
REMARK    1  A    between atoms: C6_6  and  N1_7 
REMARK    2  A    between atoms: N1_7  and  C7_8 
REMARK    3  A    between atoms: C12_15  and  N4_16 
REMARK       I    between atoms: N4_16  and  C13_17 
REMARK       I    between atoms: C13_17  and  N5_18 
ROOT
HETATM    1  C7  UNL     1      23.209   2.440  52.034  1.00  0.00     0.142 A 
HETATM    2  N2  UNL     1      21.994   1.999  51.634  1.00  0.00    -0.224 NA
HETATM    3  C8  UNL     1      21.610   0.727  51.933  1.00  0.00     0.236 A 
HETATM    4  N3  UNL     1      22.410  -0.103  52.617  1.00  0.00    -0.241 NA
HETATM    5  C9  UNL     1      23.627   0.243  53.054  1.00  0.00     0.072 A 
HETATM    6  C10 UNL     1      24.409  -0.620  53.757  1.00  0.00     0.035 A 
HETATM    7  C11 UNL     1      25.654  -0.210  54.197  1.00  0.00     0.032 A 
HETATM    8  C12 UNL     1      26.073   1.071  53.911  1.00  0.00     0.037 A 
HETATM    9  C14 UNL     1      25.278   1.940  53.199  1.00  0.00     0.047 A 
HETATM   10  C15 UNL     1      24.014   1.538  52.747  1.00  0.00     0.041 A 
ENDROOT
BRANCH   1  11
HETATM   11  N1  UNL     1      23.729   3.727  51.820  1.00  0.00    -0.340 N 
HETATM   12  H7  UNL     1      23.697   4.186  52.778  1.00  0.00     0.167 HD
BRANCH  11  13
HETATM   13  C6  UNL     1      24.244   4.525  50.767  1.00  0.00     0.034 A 
HETATM   14  C5  UNL     1      23.504   5.543  50.192  1.00  0.00     0.029 A 
HETATM   15  C4  UNL     1      24.116   6.215  49.161  1.00  0.00     0.003 A 
HETATM   16  C3  UNL     1      25.375   5.941  48.687  1.00  0.00     0.007 A 
HETATM   17  C2  UNL     1      26.124   4.929  49.252  1.00  0.00    -0.060 A 
HETATM   18  C1  UNL     1      27.477   4.598  48.758  1.00  0.00     0.048 C 
HETATM   19  C16 UNL     1      25.527   4.242  50.289  1.00  0.00     0.036 A 
ENDBRANCH  11  13
ENDBRANCH   1  11
BRANCH   8  20
HETATM   20  N4  UNL     1      27.357   1.412  54.406  1.00  0.00    -0.309 N 
HETATM   21  C13 UNL     1      28.463   2.075  53.807  1.00  0.00     0.318 C 
HETATM   22  N5  UNL     1      29.638   2.274  54.589  1.00  0.00    -0.352 N 
HETATM   23  O1  UNL     1      28.476   2.504  52.623  1.00  0.00    -0.247 OA
HETATM   24  H12 UNL     1      30.135   2.883  55.299  1.00  0.00     0.160 HD
HETATM   25  H13 UNL     1      30.362   1.517  54.429  1.00  0.00     0.160 HD
HETATM   26  H11 UNL     1      27.400   1.076  55.391  1.00  0.00     0.170 HD
ENDBRANCH   8  20
TORSDOF 3
ENDMDL
MODEL 4
REMARK VINA RESULT:      -8.4      2.227      4.125
REMARK  3 active torsions:
REMARK  status: ('A' for Active; 'I' for Inactive)
REMARK    1  A    between atoms: C6_6  and  N1_7 
REMARK    2  A    between atoms: N1_7  and  C7_8 
REMARK    3  A    between atoms: C12_15  and  N4_16 
REMARK       I    between atoms: N4_16  and  C13_17 
REMARK       I    between atoms: C13_17  and  N5_18 
ROOT
HETATM    1  C7  UNL     1      26.538   1.891  52.213  1.00  0.00     0.142 A 
HETATM    2  N2  UNL     1      27.800   2.257  52.540  1.00  0.00    -0.224 NA
HETATM    3  C8  UNL     1      28.372   1.756  53.669  1.00  0.00     0.236 A 
HETATM    4  N3  UNL     1      27.714   0.905  54.469  1.00  0.00    -0.241 NA
HETATM    5  C9  UNL     1      26.466   0.486  54.228  1.00  0.00     0.072 A 
HETATM    6  C10 UNL     1      25.831  -0.388  55.054  1.00  0.00     0.035 A 
HETATM    7  C11 UNL     1      24.545  -0.800  54.755  1.00  0.00     0.032 A 
HETATM    8  C12 UNL     1      23.936  -0.312  53.620  1.00  0.00     0.037 A 
HETATM    9  C14 UNL     1      24.584   0.573  52.787  1.00  0.00     0.047 A 
HETATM   10  C15 UNL     1      25.886   0.999  53.079  1.00  0.00     0.041 A 
ENDROOT
BRANCH   1  11
HETATM   11  N1  UNL     1      25.830   2.306  51.073  1.00  0.00    -0.340 N 
HETATM   12  H7  UNL     1      25.311   1.435  50.755  1.00  0.00     0.167 HD
BRANCH  11  13
HETATM   13  C6  UNL     1      25.629   3.470  50.288  1.00  0.00     0.034 A 
HETATM   14  C5  UNL     1      24.366   3.983  50.052  1.00  0.00     0.029 A 
HETATM   15  C4  UNL     1      24.316   5.097  49.250  1.00  0.00     0.003 A 
HETATM   16  C3  UNL     1      25.410   5.707  48.689  1.00  0.00     0.007 A 
HETATM   17  C2  UNL     1      26.676   5.206  48.917  1.00  0.00    -0.060 A 
HETATM   18  C1  UNL     1      27.875   5.829  48.318  1.00  0.00     0.048 C 
HETATM   19  C16 UNL     1      26.748   4.087  49.721  1.00  0.00     0.036 A 
ENDBRANCH  11  13
ENDBRANCH   1  11
BRANCH   8  20
HETATM   20  N4  UNL     1      22.623  -0.791  53.383  1.00  0.00    -0.309 N 
HETATM   21  C13 UNL     1      21.395  -0.578  54.065  1.00  0.00     0.318 C 
HETATM   22  N5  UNL     1      20.222  -1.214  53.562  1.00  0.00    -0.352 N 
HETATM   23  O1  UNL     1      21.268   0.141  55.091  1.00  0.00    -0.247 OA
HETATM   24  H12 UNL     1      19.418  -1.170  52.873  1.00  0.00     0.160 HD
HETATM   25  H13 UNL     1      20.016  -2.129  54.055  1.00  0.00     0.160 HD
HETATM   26  H11 UNL     1      22.672  -1.398  52.537  1.00  0.00     0.170 HD
ENDBRANCH   8  20
TORSDOF 3
ENDMDL
MODEL 5
REMARK VINA RESULT:      -8.3      2.892      5.789
REMARK  3 active torsions:
REMARK  status: ('A' for Active; 'I' for Inactive)
REMARK    1  A    between atoms: C6_6  and  N1_7 
REMARK    2  A    between atoms: N1_7  and  C7_8 
REMARK    3  A    between atoms: C12_15  and  N4_16 
REMARK       I    between atoms: N4_16  and  C13_17 
REMARK       I    between atoms: C13_17  and  N5_18 
ROOT
HETATM    1  C7  UNL     1      25.196   2.871  51.357  1.00  0.00     0.142 A 
HETATM    2  N2  UNL     1      25.573   3.817  50.466  1.00  0.00    -0.224 NA
HETATM    3  C8  UNL     1      24.779   4.084  49.393  1.00  0.00     0.236 A 
HETATM    4  N3  UNL     1      23.625   3.429  49.196  1.00  0.00    -0.241 NA
HETATM    5  C9  UNL     1      23.169   2.479  50.022  1.00  0.00     0.072 A 
HETATM    6  C10 UNL     1      21.988   1.842  49.800  1.00  0.00     0.035 A 
HETATM    7  C11 UNL     1      21.555   0.876  50.689  1.00  0.00     0.032 A 
HETATM    8  C12 UNL     1      22.336   0.581  51.784  1.00  0.00     0.037 A 
HETATM    9  C14 UNL     1      23.531   1.229  52.005  1.00  0.00     0.047 A 
HETATM   10  C15 UNL     1      23.981   2.210  51.112  1.00  0.00     0.041 A 
ENDROOT
BRANCH   1  11
HETATM   11  N1  UNL     1      25.898   2.506  52.517  1.00  0.00    -0.340 N 
HETATM   12  H7  UNL     1      25.457   3.093  53.286  1.00  0.00     0.167 HD
BRANCH  11  13
HETATM   13  C6  UNL     1      26.947   1.641  52.920  1.00  0.00     0.034 A 
HETATM   14  C5  UNL     1      28.106   2.121  53.504  1.00  0.00     0.029 A 
HETATM   15  C4  UNL     1      29.051   1.174  53.817  1.00  0.00     0.003 A 
HETATM   16  C3  UNL     1      28.914  -0.173  53.590  1.00  0.00     0.007 A 
HETATM   17  C2  UNL     1      27.764  -0.665  53.009  1.00  0.00    -0.060 A 
HETATM   18  C1  UNL     1      27.588  -2.107  52.737  1.00  0.00     0.048 C 
HETATM   19  C16 UNL     1      26.801   0.270  52.687  1.00  0.00     0.036 A 
ENDBRANCH  11  13
ENDBRANCH   1  11
BRANCH   8  20
HETATM   20  N4  UNL     1      21.815  -0.414  52.650  1.00  0.00    -0.309 N 
HETATM   21  C13 UNL     1      21.016  -0.332  53.822  1.00  0.00     0.318 C 
HETATM   22  N5  UNL     1      20.647  -1.544  54.476  1.00  0.00    -0.352 N 
HETATM   23  O1  UNL     1      20.607   0.746  54.328  1.00  0.00    -0.247 OA
HETATM   24  H12 UNL     1      19.965  -2.354  54.519  1.00  0.00     0.160 HD
HETATM   25  H13 UNL     1      21.300  -1.787  55.275  1.00  0.00     0.160 HD
HETATM   26  H11 UNL     1      22.127  -1.334  52.274  1.00  0.00     0.170 HD
ENDBRANCH   8  20
TORSDOF 3
ENDMDL
MODEL 6
REMARK VINA RESULT:      -8.3      4.298      6.388
REMARK  3 active torsions:
REMARK  status: ('A' for Active; 'I' for Inactive)
REMARK    1  A    between atoms: C6_6  and  N1_7 
REMARK    2  A    between atoms: N1_7  and  C7_8 
REMARK    3  A    between atoms: C12_15  and  N4_16 
REMARK       I    between atoms: N4_16  and  C13_17 
REMARK       I    between atoms: C13_17  and  N5_18 
ROOT
HETATM    1  C7  UNL     1      23.933  -0.217  53.766  1.00  0.00     0.142 A 
HETATM    2  N2  UNL     1      24.046  -1.011  54.856  1.00  0.00    -0.224 NA
HETATM    3  C8  UNL     1      22.928  -1.559  55.406  1.00  0.00     0.236 A 
HETATM    4  N3  UNL     1      21.711  -1.331  54.892  1.00  0.00    -0.241 NA
HETATM    5  C9  UNL     1      21.500  -0.562  53.816  1.00  0.00     0.072 A 
HETATM    6  C10 UNL     1      20.253  -0.361  53.311  1.00  0.00     0.035 A 
HETATM    7  C11 UNL     1      20.089   0.432  52.191  1.00  0.00     0.032 A 
HETATM    8  C12 UNL     1      21.200   1.003  51.611  1.00  0.00     0.037 A 
HETATM    9  C14 UNL     1      22.460   0.796  52.125  1.00  0.00     0.047 A 
HETATM   10  C15 UNL     1      22.641  -0.006  53.260  1.00  0.00     0.041 A 
ENDROOT
BRANCH   1  11
HETATM   11  N1  UNL     1      24.995   0.395  53.080  1.00  0.00    -0.340 N 
HETATM   12  H7  UNL     1      24.575   0.678  52.145  1.00  0.00     0.167 HD
BRANCH  11  13
HETATM   13  C6  UNL     1      26.363   0.718  53.269  1.00  0.00     0.034 A 
HETATM   14  C5  UNL     1      26.797   2.027  53.376  1.00  0.00     0.029 A 
HETATM   15  C4  UNL     1      28.153   2.194  53.526  1.00  0.00     0.003 A 
HETATM   16  C3  UNL     1      29.066   1.171  53.574  1.00  0.00     0.007 A 
HETATM   17  C2  UNL     1      28.647  -0.139  53.469  1.00  0.00    -0.060 A 
HETATM   18  C1  UNL     1      29.604  -1.265  53.502  1.00  0.00     0.048 C 
HETATM   19  C16 UNL     1      27.289  -0.329  53.318  1.00  0.00     0.036 A 
ENDBRANCH  11  13
ENDBRANCH   1  11
BRANCH   8  20
HETATM   20  N4  UNL     1      20.945   1.794  50.462  1.00  0.00    -0.309 N 
HETATM   21  C13 UNL     1      21.123   1.542  49.075  1.00  0.00     0.318 C 
HETATM   22  N5  UNL     1      20.758   2.564  48.149  1.00  0.00    -0.352 N 
HETATM   23  O1  UNL     1      21.585   0.471  48.601  1.00  0.00    -0.247 OA
HETATM   24  H12 UNL     1      19.979   3.011  47.587  1.00  0.00     0.160 HD
HETATM   25  H13 UNL     1      21.584   3.163  47.863  1.00  0.00     0.160 HD
HETATM   26  H11 UNL     1      20.559   2.700  50.800  1.00  0.00     0.170 HD
ENDBRANCH   8  20
TORSDOF 3
ENDMDL
MODEL 7
REMARK VINA RESULT:      -8.3      2.283      3.483
REMARK  3 active torsions:
REMARK  status: ('A' for Active; 'I' for Inactive)
REMARK    1  A    between atoms: C6_6  and  N1_7 
REMARK    2  A    between atoms: N1_7  and  C7_8 
REMARK    3  A    between atoms: C12_15  and  N4_16 
REMARK       I    between atoms: N4_16  and  C13_17 
REMARK       I    between atoms: C13_17  and  N5_18 
ROOT
HETATM    1  C7  UNL     1      21.879   0.514  52.064  1.00  0.00     0.142 A 
HETATM    2  N2  UNL     1      20.526   0.506  52.043  1.00  0.00    -0.224 NA
HETATM    3  C8  UNL     1      19.843  -0.100  53.053  1.00  0.00     0.236 A 
HETATM    4  N3  UNL     1      20.480  -0.692  54.074  1.00  0.00    -0.241 NA
HETATM    5  C9  UNL     1      21.814  -0.734  54.181  1.00  0.00     0.072 A 
HETATM    6  C10 UNL     1      22.430  -1.332  55.236  1.00  0.00     0.035 A 
HETATM    7  C11 UNL     1      23.812  -1.339  55.307  1.00  0.00     0.032 A 
HETATM    8  C12 UNL     1      24.532  -0.735  54.301  1.00  0.00     0.037 A 
HETATM    9  C14 UNL     1      23.904  -0.131  53.235  1.00  0.00     0.047 A 
HETATM   10  C15 UNL     1      22.506  -0.117  53.151  1.00  0.00     0.041 A 
ENDROOT
BRANCH   1  11
HETATM   11  N1  UNL     1      22.713   1.116  51.109  1.00  0.00    -0.340 N 
HETATM   12  H7  UNL     1      23.692   0.805  51.382  1.00  0.00     0.167 HD
BRANCH  11  13
HETATM   13  C6  UNL     1      22.624   1.958  49.970  1.00  0.00     0.034 A 
HETATM   14  C5  UNL     1      21.804   1.652  48.899  1.00  0.00     0.029 A 
HETATM   15  C4  UNL     1      21.839   2.540  47.850  1.00  0.00     0.003 A 
HETATM   16  C3  UNL     1      22.614   3.672  47.810  1.00  0.00     0.007 A 
HETATM   17  C2  UNL     1      23.436   3.989  48.872  1.00  0.00    -0.060 A 
HETATM   18  C1  UNL     1      24.294   5.192  48.856  1.00  0.00     0.048 C 
HETATM   19  C16 UNL     1      23.415   3.110  49.935  1.00  0.00     0.036 A 
ENDBRANCH  11  13
ENDBRANCH   1  11
BRANCH   8  20
HETATM   20  N4  UNL     1      25.941  -0.779  54.455  1.00  0.00    -0.309 N 
HETATM   21  C13 UNL     1      26.899   0.230  54.745  1.00  0.00     0.318 C 
HETATM   22  N5  UNL     1      28.271  -0.146  54.840  1.00  0.00    -0.352 N 
HETATM   23  O1  UNL     1      26.618   1.444  54.927  1.00  0.00    -0.247 OA
HETATM   24  H12 UNL     1      29.042  -0.531  55.457  1.00  0.00     0.160 HD
HETATM   25  H13 UNL     1      28.796   0.008  53.932  1.00  0.00     0.160 HD
HETATM   26  H11 UNL     1      26.229  -1.771  54.313  1.00  0.00     0.170 HD
ENDBRANCH   8  20
TORSDOF 3
ENDMDL
MODEL 8
REMARK VINA RESULT:      -8.1      2.306      4.425
REMARK  3 active torsions:
REMARK  status: ('A' for Active; 'I' for Inactive)
REMARK    1  A    between atoms: C6_6  and  N1_7 
REMARK    2  A    between atoms: N1_7  and  C7_8 
REMARK    3  A    between atoms: C12_15  and  N4_16 
REMARK       I    between atoms: N4_16  and  C13_17 
REMARK       I    between atoms: C13_17  and  N5_18 
ROOT
HETATM    1  C7  UNL     1      27.087   1.960  52.243  1.00  0.00     0.142 A 
HETATM    2  N2  UNL     1      28.331   2.295  52.657  1.00  0.00    -0.224 NA
HETATM    3  C8  UNL     1      28.803   1.800  53.834  1.00  0.00     0.236 A 
HETATM    4  N3  UNL     1      28.063   0.983  54.597  1.00  0.00    -0.241 NA
HETATM    5  C9  UNL     1      26.824   0.595  54.271  1.00  0.00     0.072 A 
HETATM    6  C10 UNL     1      26.104  -0.246  55.061  1.00  0.00     0.035 A 
HETATM    7  C11 UNL     1      24.832  -0.627  54.674  1.00  0.00     0.032 A 
HETATM    8  C12 UNL     1      24.324  -0.142  53.490  1.00  0.00     0.037 A 
HETATM    9  C14 UNL     1      25.057   0.709  52.692  1.00  0.00     0.047 A 
HETATM   10  C15 UNL     1      26.347   1.102  53.073  1.00  0.00     0.041 A 
ENDROOT
BRANCH   1  11
HETATM   11  N1  UNL     1      26.478   2.373  51.047  1.00  0.00    -0.340 N 
HETATM   12  H7  UNL     1      26.227   1.466  50.553  1.00  0.00     0.167 HD
BRANCH  11  13
HETATM   13  C6  UNL     1      26.129   3.568  50.367  1.00  0.00     0.034 A 
HETATM   14  C5  UNL     1      26.926   4.098  49.368  1.00  0.00     0.029 A 
HETATM   15  C4  UNL     1      26.482   5.276  48.815  1.00  0.00     0.003 A 
HETATM   16  C3  UNL     1      25.335   5.931  49.187  1.00  0.00     0.007 A 
HETATM   17  C2  UNL     1      24.531   5.413  50.182  1.00  0.00    -0.060 A 
HETATM   18  C1  UNL     1      23.297   6.099  50.617  1.00  0.00     0.048 C 
HETATM   19  C16 UNL     1      24.959   4.230  50.749  1.00  0.00     0.036 A 
ENDBRANCH  11  13
ENDBRANCH   1  11
BRANCH   8  20
HETATM   20  N4  UNL     1      23.019  -0.588  53.163  1.00  0.00    -0.309 N 
HETATM   21  C13 UNL     1      21.794  -0.557  53.884  1.00  0.00     0.318 C 
HETATM   22  N5  UNL     1      20.629  -1.095  53.264  1.00  0.00    -0.352 N 
HETATM   23  O1  UNL     1      21.665  -0.081  55.043  1.00  0.00    -0.247 OA
HETATM   24  H12 UNL     1      19.816  -0.921  52.608  1.00  0.00     0.160 HD
HETATM   25  H13 UNL     1      20.448  -2.100  53.548  1.00  0.00     0.160 HD
HETATM   26  H11 UNL     1      23.070  -0.995  52.205  1.00  0.00     0.170 HD
ENDBRANCH   8  20
TORSDOF 3
ENDMDL
MODEL 9
REMARK VINA RESULT:      -8.1      3.923      6.327
REMARK  3 active torsions:
REMARK  status: ('A' for Active; 'I' for Inactive)
REMARK    1  A    between atoms: C6_6  and  N1_7 
REMARK    2  A    between atoms: N1_7  and  C7_8 
REMARK    3  A    between atoms: C12_15  and  N4_16 
REMARK       I    between atoms: N4_16  and  C13_17 
REMARK       I    between atoms: C13_17  and  N5_18 
ROOT
HETATM    1  C7  UNL     1      24.009   0.051  53.699  1.00  0.00     0.142 A 
HETATM    2  N2  UNL     1      23.986  -0.924  54.637  1.00  0.00    -0.224 NA
HETATM    3  C8  UNL     1      22.796  -1.320  55.165  1.00  0.00     0.236 A 
HETATM    4  N3  UNL     1      21.638  -0.764  54.778  1.00  0.00    -0.241 NA
HETATM    5  C9  UNL     1      21.561   0.205  53.858  1.00  0.00     0.072 A 
HETATM    6  C10 UNL     1      20.369   0.739  53.477  1.00  0.00     0.035 A 
HETATM    7  C11 UNL     1      20.341   1.731  52.514  1.00  0.00     0.032 A 
HETATM    8  C12 UNL     1      21.528   2.154  51.960  1.00  0.00     0.037 A 
HETATM    9  C14 UNL     1      22.732   1.610  52.348  1.00  0.00     0.047 A 
HETATM   10  C15 UNL     1      22.775   0.605  53.323  1.00  0.00     0.041 A 
ENDROOT
BRANCH   1  11
HETATM   11  N1  UNL     1      25.153   0.544  53.051  1.00  0.00    -0.340 N 
HETATM   12  H7  UNL     1      24.793   0.900  52.116  1.00  0.00     0.167 HD
BRANCH  11  13
HETATM   13  C6  UNL     1      26.546   0.689  53.275  1.00  0.00     0.034 A 
HETATM   14  C5  UNL     1      27.132   1.929  53.453  1.00  0.00     0.029 A 
HETATM   15  C4  UNL     1      28.495   1.924  53.631  1.00  0.00     0.003 A 
HETATM   16  C3  UNL     1      29.278   0.797  53.642  1.00  0.00     0.007 A 
HETATM   17  C2  UNL     1      28.706  -0.447  53.466  1.00  0.00    -0.060 A 
HETATM   18  C1  UNL     1      29.520  -1.680  53.457  1.00  0.00     0.048 C 
HETATM   19  C16 UNL     1      27.338  -0.463  53.286  1.00  0.00     0.036 A 
ENDBRANCH  11  13
ENDBRANCH   1  11
BRANCH   8  20
HETATM   20  N4  UNL     1      21.409   3.167  50.974  1.00  0.00    -0.309 N 
HETATM   21  C13 UNL     1      21.662   4.565  51.010  1.00  0.00     0.318 C 
HETATM   22  N5  UNL     1      21.443   5.323  49.823  1.00  0.00    -0.352 N 
HETATM   23  O1  UNL     1      22.070   5.186  52.026  1.00  0.00    -0.247 OA
HETATM   24  H12 UNL     1      21.841   5.653  48.898  1.00  0.00     0.160 HD
HETATM   25  H13 UNL     1      20.486   5.779  49.805  1.00  0.00     0.160 HD
HETATM   26  H11 UNL     1      21.071   2.702  50.104  1.00  0.00     0.170 HD
ENDBRANCH   8  20
TORSDOF 3
ENDMDL
