MODEL 1
REMARK VINA RESULT:      -7.9      0.000      0.000
REMARK  7 active torsions:
REMARK  status: ('A' for Active; 'I' for Inactive)
REMARK    1  A    between atoms: C2_2  and  C3_3 
REMARK    2  A    between atoms: C2_2  and  C8_10 
REMARK    3  A    between atoms: C3_3  and  N1_4 
REMARK    4  A    between atoms: C8_10  and  C10_12 
REMARK    5  A    between atoms: C13_15  and  O1_16 
REMARK    6  A    between atoms: O1_16  and  S1_17 
REMARK    7  A    between atoms: S1_17  and  C14_18 
ROOT
HETATM    1  C10 UNL     1      23.346   1.490  52.464  1.00  0.00    -0.050 A 
HETATM    2  C11 UNL     1      23.040   1.336  51.115  1.00  0.00     0.010 A 
HETATM    3  C12 UNL     1      23.042   2.359  50.216  1.00  0.00     0.038 A 
HETATM    4  C13 UNL     1      23.362   3.644  50.627  1.00  0.00     0.085 A 
HETATM    5  C19 UNL     1      23.676   3.869  51.959  1.00  0.00     0.038 A 
HETATM    6  C20 UNL     1      23.664   2.799  52.845  1.00  0.00     0.010 A 
ENDROOT
BRANCH   1   7
HETATM    7  C8  UNL     1      23.337   0.380  53.413  1.00  0.00     0.044 C 
HETATM    8  C9  UNL     1      22.393  -0.692  52.862  1.00  0.00     0.020 C 
BRANCH   7   9
HETATM    9  C2  UNL     1      24.653  -0.166  53.750  1.00  0.00    -0.064 C 
HETATM   10  C1  UNL     1      24.757  -0.938  54.827  1.00  0.00     0.016 C 
BRANCH   9  11
HETATM   11  C3  UNL     1      25.641   0.289  52.752  1.00  0.00     0.151 C 
BRANCH  11  12
HETATM   12  N1  UNL     1      26.889   0.722  53.251  1.00  0.00    -0.405 N 
HETATM   13  C4  UNL     1      27.975  -0.206  53.210  1.00  0.00     0.147 C 
HETATM   14  C5  UNL     1      28.779   0.045  54.493  1.00  0.00     0.289 C 
HETATM   15  N2  UNL     1      28.746   1.465  54.798  1.00  0.00     0.086 N 
HETATM   16  C6  UNL     1      28.670   2.253  53.593  1.00  0.00     0.289 C 
HETATM   17  H9  UNL     1      27.950   1.703  55.449  1.00  0.00     0.316 HD
HETATM   18  C7  UNL     1      27.255   2.078  53.028  1.00  0.00     0.147 C 
ENDBRANCH  11  12
ENDBRANCH   9  11
ENDBRANCH   7   9
ENDBRANCH   1   7
BRANCH   4  19
HETATM   19  O1  UNL     1      23.427   4.827  49.886  1.00  0.00    -0.274 OA
BRANCH  19  20
HETATM   20  S1  UNL     1      24.514   6.065  50.438  1.00  0.00     0.032 SA
BRANCH  20  21
HETATM   21  C14 UNL     1      26.024   6.036  49.486  1.00  0.00     0.010 A 
HETATM   22  C15 UNL     1      26.465   4.791  49.386  1.00  0.00     0.016 A 
HETATM   23  C16 UNL     1      27.693   4.810  48.604  1.00  0.00    -0.003 A 
HETATM   24  C17 UNL     1      27.979   6.068  48.241  1.00  0.00    -0.021 A 
HETATM   25  C18 UNL     1      26.937   6.962  48.773  1.00  0.00     0.075 A 
ENDBRANCH  20  21
ENDBRANCH  19  20
ENDBRANCH   4  19
TORSDOF 7
ENDMDL
MODEL 2
REMARK VINA RESULT:      -7.7      3.248      6.149
REMARK  7 active torsions:
REMARK  status: ('A' for Active; 'I' for Inactive)
REMARK    1  A    between atoms: C2_2  and  C3_3 
REMARK    2  A    between atoms: C2_2  and  C8_10 
REMARK    3  A    between atoms: C3_3  and  N1_4 
REMARK    4  A    between atoms: C8_10  and  C10_12 
REMARK    5  A    between atoms: C13_15  and  O1_16 
REMARK    6  A    between atoms: O1_16  and  S1_17 
REMARK    7  A    between atoms: S1_17  and  C14_18 
ROOT
HETATM    1  C10 UNL     1      22.203   0.719  51.967  1.00  0.00    -0.050 A 
HETATM    2  C11 UNL     1      21.845  -0.298  52.847  1.00  0.00     0.010 A 
HETATM    3  C12 UNL     1      22.702  -0.862  53.742  1.00  0.00     0.038 A 
HETATM    4  C13 UNL     1      24.017  -0.426  53.813  1.00  0.00     0.085 A 
HETATM    5  C19 UNL     1      24.441   0.585  52.963  1.00  0.00     0.038 A 
HETATM    6  C20 UNL     1      23.536   1.135  52.065  1.00  0.00     0.010 A 
ENDROOT
BRANCH   1   7
HETATM    7  C8  UNL     1      21.267   1.311  51.014  1.00  0.00     0.044 C 
HETATM    8  C9  UNL     1      19.975   0.491  51.065  1.00  0.00     0.020 C 
BRANCH   7   9
HETATM    9  C2  UNL     1      21.019   2.742  51.186  1.00  0.00    -0.064 C 
HETATM   10  C1  UNL     1      20.411   3.147  52.297  1.00  0.00     0.016 C 
BRANCH   9  11
HETATM   11  C3  UNL     1      21.533   3.473  50.012  1.00  0.00     0.151 C 
BRANCH  11  12
HETATM   12  N1  UNL     1      22.831   4.016  50.124  1.00  0.00    -0.405 N 
HETATM   13  C4  UNL     1      23.759   3.734  49.075  1.00  0.00     0.147 C 
HETATM   14  C5  UNL     1      25.120   3.565  49.764  1.00  0.00     0.289 C 
HETATM   15  N2  UNL     1      25.196   4.484  50.886  1.00  0.00     0.086 N 
HETATM   16  C6  UNL     1      24.442   5.686  50.625  1.00  0.00     0.289 C 
HETATM   17  H9  UNL     1      24.873   4.031  51.782  1.00  0.00     0.316 HD
HETATM   18  C7  UNL     1      22.957   5.311  50.699  1.00  0.00     0.147 C 
ENDBRANCH  11  12
ENDBRANCH   9  11
ENDBRANCH   7   9
ENDBRANCH   1   7
BRANCH   4  19
HETATM   19  O1  UNL     1      25.055  -0.856  54.644  1.00  0.00    -0.274 OA
BRANCH  19  20
HETATM   20  S1  UNL     1      26.362   0.251  54.940  1.00  0.00     0.032 SA
BRANCH  20  21
HETATM   21  C14 UNL     1      27.861  -0.336  54.169  1.00  0.00     0.010 A 
HETATM   22  C15 UNL     1      28.872   0.451  54.501  1.00  0.00     0.016 A 
HETATM   23  C16 UNL     1      30.073  -0.061  53.855  1.00  0.00    -0.003 A 
HETATM   24  C17 UNL     1      29.770  -1.153  53.139  1.00  0.00    -0.021 A 
HETATM   25  C18 UNL     1      28.330  -1.425  53.277  1.00  0.00     0.075 A 
ENDBRANCH  20  21
ENDBRANCH  19  20
ENDBRANCH   4  19
TORSDOF 7
ENDMDL
MODEL 3
REMARK VINA RESULT:      -7.6      1.587      2.485
REMARK  7 active torsions:
REMARK  status: ('A' for Active; 'I' for Inactive)
REMARK    1  A    between atoms: C2_2  and  C3_3 
REMARK    2  A    between atoms: C2_2  and  C8_10 
REMARK    3  A    between atoms: C3_3  and  N1_4 
REMARK    4  A    between atoms: C8_10  and  C10_12 
REMARK    5  A    between atoms: C13_15  and  O1_16 
REMARK    6  A    between atoms: O1_16  and  S1_17 
REMARK    7  A    between atoms: S1_17  and  C14_18 
ROOT
HETATM    1  C10 UNL     1      23.781   2.239  52.753  1.00  0.00    -0.050 A 
HETATM    2  C11 UNL     1      24.130   3.505  53.214  1.00  0.00     0.010 A 
HETATM    3  C12 UNL     1      23.475   4.646  52.863  1.00  0.00     0.038 A 
HETATM    4  C13 UNL     1      22.392   4.587  51.999  1.00  0.00     0.085 A 
HETATM    5  C19 UNL     1      21.991   3.357  51.501  1.00  0.00     0.038 A 
HETATM    6  C20 UNL     1      22.684   2.216  51.883  1.00  0.00     0.010 A 
ENDROOT
BRANCH   1   7
HETATM    7  C8  UNL     1      24.498   1.027  53.141  1.00  0.00     0.044 C 
HETATM    8  C9  UNL     1      23.502  -0.135  53.091  1.00  0.00     0.020 C 
BRANCH   7   9
HETATM    9  C2  UNL     1      25.712   0.745  52.374  1.00  0.00    -0.064 C 
HETATM   10  C1  UNL     1      26.026   1.558  51.371  1.00  0.00     0.016 C 
BRANCH   9  11
HETATM   11  C3  UNL     1      26.366  -0.460  52.921  1.00  0.00     0.151 C 
BRANCH  11  12
HETATM   12  N1  UNL     1      27.702  -0.313  53.352  1.00  0.00    -0.405 N 
HETATM   13  C4  UNL     1      27.930   0.408  54.564  1.00  0.00     0.147 C 
HETATM   14  C5  UNL     1      29.229   1.194  54.336  1.00  0.00     0.289 C 
HETATM   15  N2  UNL     1      30.123   0.397  53.516  1.00  0.00     0.086 N 
HETATM   16  C6  UNL     1      29.934  -1.012  53.760  1.00  0.00     0.289 C 
HETATM   17  H9  UNL     1      30.007   0.615  52.491  1.00  0.00     0.316 HD
HETATM   18  C7  UNL     1      28.591  -1.402  53.130  1.00  0.00     0.147 C 
ENDBRANCH  11  12
ENDBRANCH   9  11
ENDBRANCH   7   9
ENDBRANCH   1   7
BRANCH   4  19
HETATM   19  O1  UNL     1      21.582   5.617  51.512  1.00  0.00    -0.274 OA
BRANCH  19  20
HETATM   20  S1  UNL     1      22.023   6.337  49.993  1.00  0.00     0.032 SA
BRANCH  20  21
HETATM   21  C14 UNL     1      23.756   6.072  49.658  1.00  0.00     0.010 A 
HETATM   22  C15 UNL     1      24.466   7.073  50.156  1.00  0.00     0.016 A 
HETATM   23  C16 UNL     1      25.870   6.820  49.864  1.00  0.00    -0.003 A 
HETATM   24  C17 UNL     1      25.990   5.666  49.193  1.00  0.00    -0.021 A 
HETATM   25  C18 UNL     1      24.650   5.087  49.003  1.00  0.00     0.075 A 
ENDBRANCH  20  21
ENDBRANCH  19  20
ENDBRANCH   4  19
TORSDOF 7
ENDMDL
MODEL 4
REMARK VINA RESULT:      -7.6      3.495      7.537
REMARK  7 active torsions:
REMARK  status: ('A' for Active; 'I' for Inactive)
REMARK    1  A    between atoms: C2_2  and  C3_3 
REMARK    2  A    between atoms: C2_2  and  C8_10 
REMARK    3  A    between atoms: C3_3  and  N1_4 
REMARK    4  A    between atoms: C8_10  and  C10_12 
REMARK    5  A    between atoms: C13_15  and  O1_16 
REMARK    6  A    between atoms: O1_16  and  S1_17 
REMARK    7  A    between atoms: S1_17  and  C14_18 
ROOT
HETATM    1  C10 UNL     1      25.524   3.362  50.519  1.00  0.00    -0.050 A 
HETATM    2  C11 UNL     1      26.575   2.470  50.710  1.00  0.00     0.010 A 
HETATM    3  C12 UNL     1      26.746   1.732  51.842  1.00  0.00     0.038 A 
HETATM    4  C13 UNL     1      25.843   1.847  52.888  1.00  0.00     0.085 A 
HETATM    5  C19 UNL     1      24.772   2.719  52.764  1.00  0.00     0.038 A 
HETATM    6  C20 UNL     1      24.632   3.453  51.594  1.00  0.00     0.010 A 
ENDROOT
BRANCH   1   7
HETATM    7  C8  UNL     1      25.359   4.145  49.296  1.00  0.00     0.044 C 
HETATM    8  C9  UNL     1      23.976   4.798  49.349  1.00  0.00     0.020 C 
BRANCH   7   9
HETATM    9  C2  UNL     1      26.418   5.118  49.028  1.00  0.00    -0.064 C 
HETATM   10  C1  UNL     1      27.630   4.663  48.727  1.00  0.00     0.016 C 
BRANCH   9  11
HETATM   11  C3  UNL     1      25.872   6.483  49.158  1.00  0.00     0.151 C 
BRANCH  11  12
HETATM   12  N1  UNL     1      26.811   7.535  49.234  1.00  0.00    -0.405 N 
HETATM   13  C4  UNL     1      27.318   8.058  48.005  1.00  0.00     0.147 C 
HETATM   14  C5  UNL     1      28.792   8.389  48.276  1.00  0.00     0.289 C 
HETATM   15  N2  UNL     1      28.924   8.862  49.643  1.00  0.00     0.086 N 
HETATM   16  C6  UNL     1      27.734   9.556  50.068  1.00  0.00     0.289 C 
HETATM   17  H9  UNL     1      29.151   8.074  50.306  1.00  0.00     0.316 HD
HETATM   18  C7  UNL     1      26.641   8.498  50.266  1.00  0.00     0.147 C 
ENDBRANCH  11  12
ENDBRANCH   9  11
ENDBRANCH   7   9
ENDBRANCH   1   7
BRANCH   4  19
HETATM   19  O1  UNL     1      25.823   1.195  54.124  1.00  0.00    -0.274 OA
BRANCH  19  20
HETATM   20  S1  UNL     1      25.487  -0.510  54.131  1.00  0.00     0.032 SA
BRANCH  20  21
HETATM   21  C14 UNL     1      23.732  -0.796  54.288  1.00  0.00     0.010 A 
HETATM   22  C15 UNL     1      23.126  -0.494  53.150  1.00  0.00     0.016 A 
HETATM   23  C16 UNL     1      21.701  -0.741  53.318  1.00  0.00    -0.003 A 
HETATM   24  C17 UNL     1      21.464  -1.190  54.558  1.00  0.00    -0.021 A 
HETATM   25  C18 UNL     1      22.741  -1.265  55.287  1.00  0.00     0.075 A 
ENDBRANCH  20  21
ENDBRANCH  19  20
ENDBRANCH   4  19
TORSDOF 7
ENDMDL
MODEL 5
REMARK VINA RESULT:      -7.5      3.223      6.702
REMARK  7 active torsions:
REMARK  status: ('A' for Active; 'I' for Inactive)
REMARK    1  A    between atoms: C2_2  and  C3_3 
REMARK    2  A    between atoms: C2_2  and  C8_10 
REMARK    3  A    between atoms: C3_3  and  N1_4 
REMARK    4  A    between atoms: C8_10  and  C10_12 
REMARK    5  A    between atoms: C13_15  and  O1_16 
REMARK    6  A    between atoms: O1_16  and  S1_17 
REMARK    7  A    between atoms: S1_17  and  C14_18 
ROOT
HETATM    1  C10 UNL     1      23.993   3.453  50.356  1.00  0.00    -0.050 A 
HETATM    2  C11 UNL     1      24.202   3.812  51.685  1.00  0.00     0.010 A 
HETATM    3  C12 UNL     1      23.829   3.043  52.745  1.00  0.00     0.038 A 
HETATM    4  C13 UNL     1      23.202   1.824  52.532  1.00  0.00     0.085 A 
HETATM    5  C19 UNL     1      22.962   1.406  51.232  1.00  0.00     0.038 A 
HETATM    6  C20 UNL     1      23.358   2.218  50.177  1.00  0.00     0.010 A 
ENDROOT
BRANCH   1   7
HETATM    7  C8  UNL     1      24.400   4.294  49.233  1.00  0.00     0.044 C 
HETATM    8  C9  UNL     1      23.268   5.289  48.965  1.00  0.00     0.020 C 
BRANCH   7   9
HETATM    9  C2  UNL     1      25.694   4.960  49.386  1.00  0.00    -0.064 C 
HETATM   10  C1  UNL     1      26.795   4.217  49.331  1.00  0.00     0.016 C 
BRANCH   9  11
HETATM   11  C3  UNL     1      25.479   6.407  49.579  1.00  0.00     0.151 C 
BRANCH  11  12
HETATM   12  N1  UNL     1      26.586   7.248  49.333  1.00  0.00    -0.405 N 
HETATM   13  C4  UNL     1      27.058   7.343  47.989  1.00  0.00     0.147 C 
HETATM   14  C5  UNL     1      28.586   7.448  48.096  1.00  0.00     0.289 C 
HETATM   15  N2  UNL     1      28.922   8.214  49.284  1.00  0.00     0.086 N 
HETATM   16  C6  UNL     1      27.912   9.204  49.566  1.00  0.00     0.289 C 
HETATM   17  H9  UNL     1      29.072   7.588  50.120  1.00  0.00     0.316 HD
HETATM   18  C7  UNL     1      26.678   8.454  50.084  1.00  0.00     0.147 C 
ENDBRANCH  11  12
ENDBRANCH   9  11
ENDBRANCH   7   9
ENDBRANCH   1   7
BRANCH   4  19
HETATM   19  O1  UNL     1      22.741   0.885  53.458  1.00  0.00    -0.274 OA
BRANCH  19  20
HETATM   20  S1  UNL     1      23.692  -0.550  53.692  1.00  0.00     0.032 SA
BRANCH  20  21
HETATM   21  C14 UNL     1      25.424  -0.196  53.440  1.00  0.00     0.010 A 
HETATM   22  C15 UNL     1      26.025  -0.051  54.610  1.00  0.00     0.016 A 
HETATM   23  C16 UNL     1      27.432   0.235  54.361  1.00  0.00    -0.003 A 
HETATM   24  C17 UNL     1      27.661   0.259  53.041  1.00  0.00    -0.021 A 
HETATM   25  C18 UNL     1      26.398  -0.014  52.336  1.00  0.00     0.075 A 
ENDBRANCH  20  21
ENDBRANCH  19  20
ENDBRANCH   4  19
TORSDOF 7
ENDMDL
MODEL 6
REMARK VINA RESULT:      -7.4      3.489      7.368
REMARK  7 active torsions:
REMARK  status: ('A' for Active; 'I' for Inactive)
REMARK    1  A    between atoms: C2_2  and  C3_3 
REMARK    2  A    between atoms: C2_2  and  C8_10 
REMARK    3  A    between atoms: C3_3  and  N1_4 
REMARK    4  A    between atoms: C8_10  and  C10_12 
REMARK    5  A    between atoms: C13_15  and  O1_16 
REMARK    6  A    between atoms: O1_16  and  S1_17 
REMARK    7  A    between atoms: S1_17  and  C14_18 
ROOT
HETATM    1  C10 UNL     1      25.850   5.337  49.213  1.00  0.00    -0.050 A 
HETATM    2  C11 UNL     1      24.753   5.105  50.037  1.00  0.00     0.010 A 
HETATM    3  C12 UNL     1      24.626   4.012  50.840  1.00  0.00     0.038 A 
HETATM    4  C13 UNL     1      25.626   3.052  50.868  1.00  0.00     0.085 A 
HETATM    5  C19 UNL     1      26.748   3.221  50.070  1.00  0.00     0.038 A 
HETATM    6  C20 UNL     1      26.840   4.349  49.265  1.00  0.00     0.010 A 
ENDROOT
BRANCH   1   7
HETATM    7  C8  UNL     1      25.966   6.516  48.358  1.00  0.00     0.044 C 
HETATM    8  C9  UNL     1      24.549   6.962  47.991  1.00  0.00     0.020 C 
BRANCH   7   9
HETATM    9  C2  UNL     1      26.764   7.612  48.908  1.00  0.00    -0.064 C 
HETATM   10  C1  UNL     1      26.414   8.116  50.088  1.00  0.00     0.016 C 
BRANCH   9  11
HETATM   11  C3  UNL     1      27.856   7.940  47.971  1.00  0.00     0.151 C 
BRANCH  11  12
HETATM   12  N1  UNL     1      29.161   7.579  48.370  1.00  0.00    -0.405 N 
HETATM   13  C4  UNL     1      29.858   6.626  47.567  1.00  0.00     0.147 C 
HETATM   14  C5  UNL     1      30.662   5.766  48.554  1.00  0.00     0.289 C 
HETATM   15  N2  UNL     1      31.114   6.606  49.649  1.00  0.00     0.086 N 
HETATM   16  C6  UNL     1      31.352   7.957  49.202  1.00  0.00     0.289 C 
HETATM   17  H9  UNL     1      30.431   6.596  50.453  1.00  0.00     0.316 HD
HETATM   18  C7  UNL     1      29.981   8.593  48.939  1.00  0.00     0.147 C 
ENDBRANCH  11  12
ENDBRANCH   9  11
ENDBRANCH   7   9
ENDBRANCH   1   7
BRANCH   4  19
HETATM   19  O1  UNL     1      25.706   1.869  51.607  1.00  0.00    -0.274 OA
BRANCH  19  20
HETATM   20  S1  UNL     1      26.611   1.904  53.090  1.00  0.00     0.032 SA
BRANCH  20  21
HETATM   21  C14 UNL     1      27.701   0.493  53.186  1.00  0.00     0.010 A 
HETATM   22  C15 UNL     1      28.909   0.886  53.559  1.00  0.00     0.016 A 
HETATM   23  C16 UNL     1      29.765  -0.290  53.626  1.00  0.00    -0.003 A 
HETATM   24  C17 UNL     1      29.061  -1.381  53.293  1.00  0.00    -0.021 A 
HETATM   25  C18 UNL     1      27.680  -0.976  52.982  1.00  0.00     0.075 A 
ENDBRANCH  20  21
ENDBRANCH  19  20
ENDBRANCH   4  19
TORSDOF 7
ENDMDL
MODEL 7
REMARK VINA RESULT:      -7.3      3.446      8.006
REMARK  7 active torsions:
REMARK  status: ('A' for Active; 'I' for Inactive)
REMARK    1  A    between atoms: C2_2  and  C3_3 
REMARK    2  A    between atoms: C2_2  and  C8_10 
REMARK    3  A    between atoms: C3_3  and  N1_4 
REMARK    4  A    between atoms: C8_10  and  C10_12 
REMARK    5  A    between atoms: C13_15  and  O1_16 
REMARK    6  A    between atoms: O1_16  and  S1_17 
REMARK    7  A    between atoms: S1_17  and  C14_18 
ROOT
HETATM    1  C10 UNL     1      27.168   6.508  48.141  1.00  0.00    -0.050 A 
HETATM    2  C11 UNL     1      25.832   6.582  48.524  1.00  0.00     0.010 A 
HETATM    3  C12 UNL     1      25.175   5.582  49.175  1.00  0.00     0.038 A 
HETATM    4  C13 UNL     1      25.839   4.407  49.494  1.00  0.00     0.085 A 
HETATM    5  C19 UNL     1      27.172   4.267  49.140  1.00  0.00     0.038 A 
HETATM    6  C20 UNL     1      27.807   5.309  48.477  1.00  0.00     0.010 A 
ENDROOT
BRANCH   1   7
HETATM    7  C8  UNL     1      27.854   7.592  47.442  1.00  0.00     0.044 C 
HETATM    8  C9  UNL     1      26.784   8.507  46.843  1.00  0.00     0.020 C 
BRANCH   7   9
HETATM    9  C2  UNL     1      28.829   8.334  48.242  1.00  0.00    -0.064 C 
HETATM   10  C1  UNL     1      28.426   8.865  49.393  1.00  0.00     0.016 C 
BRANCH   9  11
HETATM   11  C3  UNL     1      30.133   8.330  47.552  1.00  0.00     0.151 C 
BRANCH  11  12
HETATM   12  N1  UNL     1      31.054   7.336  47.946  1.00  0.00    -0.405 N 
HETATM   13  C4  UNL     1      31.384   6.325  46.993  1.00  0.00     0.147 C 
HETATM   14  C5  UNL     1      31.542   5.030  47.804  1.00  0.00     0.289 C 
HETATM   15  N2  UNL     1      32.124   5.353  49.095  1.00  0.00     0.086 N 
HETATM   16  C6  UNL     1      33.007   6.489  48.996  1.00  0.00     0.289 C 
HETATM   17  H9  UNL     1      31.381   5.523  49.824  1.00  0.00     0.316 HD
HETATM   18  C7  UNL     1      32.127   7.728  48.794  1.00  0.00     0.147 C 
ENDBRANCH  11  12
ENDBRANCH   9  11
ENDBRANCH   7   9
ENDBRANCH   1   7
BRANCH   4  19
HETATM   19  O1  UNL     1      25.368   3.267  50.151  1.00  0.00    -0.274 OA
BRANCH  19  20
HETATM   20  S1  UNL     1      26.511   2.339  51.074  1.00  0.00     0.032 SA
BRANCH  20  21
HETATM   21  C14 UNL     1      25.664   1.129  52.077  1.00  0.00     0.010 A 
HETATM   22  C15 UNL     1      26.469   0.106  52.316  1.00  0.00     0.016 A 
HETATM   23  C16 UNL     1      25.743  -0.856  53.135  1.00  0.00    -0.003 A 
HETATM   24  C17 UNL     1      24.507  -0.399  53.380  1.00  0.00    -0.021 A 
HETATM   25  C18 UNL     1      24.348   0.910  52.725  1.00  0.00     0.075 A 
ENDBRANCH  20  21
ENDBRANCH  19  20
ENDBRANCH   4  19
TORSDOF 7
ENDMDL
MODEL 8
REMARK VINA RESULT:      -7.2      3.096      6.005
REMARK  7 active torsions:
REMARK  status: ('A' for Active; 'I' for Inactive)
REMARK    1  A    between atoms: C2_2  and  C3_3 
REMARK    2  A    between atoms: C2_2  and  C8_10 
REMARK    3  A    between atoms: C3_3  and  N1_4 
REMARK    4  A    between atoms: C8_10  and  C10_12 
REMARK    5  A    between atoms: C13_15  and  O1_16 
REMARK    6  A    between atoms: O1_16  and  S1_17 
REMARK    7  A    between atoms: S1_17  and  C14_18 
ROOT
HETATM    1  C10 UNL     1      22.328   1.712  52.147  1.00  0.00    -0.050 A 
HETATM    2  C11 UNL     1      22.086   0.353  52.331  1.00  0.00     0.010 A 
HETATM    3  C12 UNL     1      22.963  -0.498  52.932  1.00  0.00     0.038 A 
HETATM    4  C13 UNL     1      24.178  -0.024  53.402  1.00  0.00     0.085 A 
HETATM    5  C19 UNL     1      24.485   1.320  53.250  1.00  0.00     0.038 A 
HETATM    6  C20 UNL     1      23.564   2.156  52.633  1.00  0.00     0.010 A 
ENDROOT
BRANCH   1   7
HETATM    7  C8  UNL     1      21.374   2.608  51.500  1.00  0.00     0.044 C 
HETATM    8  C9  UNL     1      20.198   2.804  52.460  1.00  0.00     0.020 C 
BRANCH   7   9
HETATM    9  C2  UNL     1      21.926   3.882  51.038  1.00  0.00    -0.064 C 
HETATM   10  C1  UNL     1      21.756   4.956  51.803  1.00  0.00     0.016 C 
BRANCH   9  11
HETATM   11  C3  UNL     1      22.596   3.683  49.738  1.00  0.00     0.151 C 
BRANCH  11  12
HETATM   12  N1  UNL     1      23.902   4.203  49.615  1.00  0.00    -0.405 N 
HETATM   13  C4  UNL     1      24.973   3.271  49.457  1.00  0.00     0.147 C 
HETATM   14  C5  UNL     1      26.153   3.863  50.241  1.00  0.00     0.289 C 
HETATM   15  N2  UNL     1      26.120   5.310  50.118  1.00  0.00     0.086 N 
HETATM   16  C6  UNL     1      25.568   5.710  48.847  1.00  0.00     0.289 C 
HETATM   17  H9  UNL     1      25.585   5.754  50.911  1.00  0.00     0.316 HD
HETATM   18  C7  UNL     1      24.063   5.422  48.898  1.00  0.00     0.147 C 
ENDBRANCH  11  12
ENDBRANCH   9  11
ENDBRANCH   7   9
ENDBRANCH   1   7
BRANCH   4  19
HETATM   19  O1  UNL     1      25.215  -0.710  54.042  1.00  0.00    -0.274 OA
BRANCH  19  20
HETATM   20  S1  UNL     1      26.353   0.228  54.961  1.00  0.00     0.032 SA
BRANCH  20  21
HETATM   21  C14 UNL     1      28.001   0.021  54.306  1.00  0.00     0.010 A 
HETATM   22  C15 UNL     1      28.102  -1.160  53.716  1.00  0.00     0.016 A 
HETATM   23  C16 UNL     1      29.456  -1.290  53.196  1.00  0.00    -0.003 A 
HETATM   24  C17 UNL     1      30.157  -0.182  53.478  1.00  0.00    -0.021 A 
HETATM   25  C18 UNL     1      29.288   0.752  54.213  1.00  0.00     0.075 A 
ENDBRANCH  20  21
ENDBRANCH  19  20
ENDBRANCH   4  19
TORSDOF 7
ENDMDL
MODEL 9
REMARK VINA RESULT:      -7.2      3.869      7.801
REMARK  7 active torsions:
REMARK  status: ('A' for Active; 'I' for Inactive)
REMARK    1  A    between atoms: C2_2  and  C3_3 
REMARK    2  A    between atoms: C2_2  and  C8_10 
REMARK    3  A    between atoms: C3_3  and  N1_4 
REMARK    4  A    between atoms: C8_10  and  C10_12 
REMARK    5  A    between atoms: C13_15  and  O1_16 
REMARK    6  A    between atoms: O1_16  and  S1_17 
REMARK    7  A    between atoms: S1_17  and  C14_18 
ROOT
HETATM    1  C10 UNL     1      25.935   5.318  49.196  1.00  0.00    -0.050 A 
HETATM    2  C11 UNL     1      26.808   4.234  49.195  1.00  0.00     0.010 A 
HETATM    3  C12 UNL     1      26.605   3.098  49.918  1.00  0.00     0.038 A 
HETATM    4  C13 UNL     1      25.476   2.973  50.713  1.00  0.00     0.085 A 
HETATM    5  C19 UNL     1      24.564   4.017  50.761  1.00  0.00     0.038 A 
HETATM    6  C20 UNL     1      24.806   5.159  50.009  1.00  0.00     0.010 A 
ENDROOT
BRANCH   1   7
HETATM    7  C8  UNL     1      26.171   6.529  48.413  1.00  0.00     0.044 C 
HETATM    8  C9  UNL     1      24.806   7.097  48.017  1.00  0.00     0.020 C 
BRANCH   7   9
HETATM    9  C2  UNL     1      27.020   7.533  49.054  1.00  0.00    -0.064 C 
HETATM   10  C1  UNL     1      26.520   8.224  50.074  1.00  0.00     0.016 C 
BRANCH   9  11
HETATM   11  C3  UNL     1      28.336   7.560  48.385  1.00  0.00     0.151 C 
BRANCH  11  12
HETATM   12  N1  UNL     1      29.062   8.768  48.466  1.00  0.00    -0.405 N 
HETATM   13  C4  UNL     1      30.456   8.683  48.764  1.00  0.00     0.147 C 
HETATM   14  C5  UNL     1      30.759   9.892  49.661  1.00  0.00     0.289 C 
HETATM   15  N2  UNL     1      29.940  11.012  49.234  1.00  0.00     0.086 N 
HETATM   16  C6  UNL     1      29.693  10.961  47.813  1.00  0.00     0.289 C 
HETATM   17  H9  UNL     1      29.031  11.054  49.767  1.00  0.00     0.316 HD
HETATM   18  C7  UNL     1      28.707   9.812  47.568  1.00  0.00     0.147 C 
ENDBRANCH  11  12
ENDBRANCH   9  11
ENDBRANCH   7   9
ENDBRANCH   1   7
BRANCH   4  19
HETATM   19  O1  UNL     1      25.071   1.911  51.527  1.00  0.00    -0.274 OA
BRANCH  19  20
HETATM   20  S1  UNL     1      25.290   2.082  53.242  1.00  0.00     0.032 SA
BRANCH  20  21
HETATM   21  C14 UNL     1      26.980   1.720  53.691  1.00  0.00     0.010 A 
HETATM   22  C15 UNL     1      27.025   0.598  54.392  1.00  0.00     0.016 A 
HETATM   23  C16 UNL     1      28.416   0.338  54.738  1.00  0.00    -0.003 A 
HETATM   24  C17 UNL     1      29.194   1.309  54.240  1.00  0.00    -0.021 A 
HETATM   25  C18 UNL     1      28.345   2.277  53.527  1.00  0.00     0.075 A 
ENDBRANCH  20  21
ENDBRANCH  19  20
ENDBRANCH   4  19
TORSDOF 7
ENDMDL
