MODEL 1
REMARK VINA RESULT:      -9.4      0.000      0.000
REMARK  4 active torsions:
REMARK  status: ('A' for Active; 'I' for Inactive)
REMARK    1  A    between atoms: C5_5  and  C6_6 
REMARK    2  A    between atoms: C8_8  and  C9_9 
REMARK    3  A    between atoms: N2_16  and  C15_17 
REMARK    4  A    between atoms: C16_19  and  O1_20 
ROOT
HETATM    1  C6  UNL     1      25.620   1.046  53.655  1.00  0.00     0.153 C 
HETATM    2  C7  UNL     1      25.547   2.523  53.309  1.00  0.00     0.094 C 
HETATM    3  C8  UNL     1      25.782   2.459  51.822  1.00  0.00     0.067 C 
HETATM    4  N1  UNL     1      26.388   1.336  51.565  1.00  0.00    -0.173 NA
HETATM    5  N2  UNL     1      26.607   0.593  52.729  1.00  0.00    -0.236 N 
ENDROOT
BRANCH   1   6
HETATM    6  C5  UNL     1      24.300   0.393  53.539  1.00  0.00    -0.010 A 
HETATM    7  C4  UNL     1      23.455   0.898  52.452  1.00  0.00     0.012 A 
HETATM    8  C3  UNL     1      22.324   0.249  52.445  1.00  0.00     0.013 A 
HETATM    9  C2  UNL     1      22.348  -0.727  53.526  1.00  0.00    -0.023 A 
HETATM   10  C1  UNL     1      21.449  -1.600  53.912  1.00  0.00     0.025 C 
HETATM   11  C18 UNL     1      23.649  -0.555  54.163  1.00  0.00     0.051 A 
HETATM   12 CL1  UNL     1      24.349  -1.388  55.508  1.00  0.00    -0.083 Cl
ENDBRANCH   1   6
BRANCH   5  13
HETATM   13  C15 UNL     1      27.595  -0.422  53.023  1.00  0.00     0.192 A 
HETATM   14  N3  UNL     1      27.788  -1.567  53.072  1.00  0.00    -0.198 NA
HETATM   15  C16 UNL     1      28.931  -2.166  53.419  1.00  0.00     0.171 A 
HETATM   16  C17 UNL     1      30.022  -1.301  53.766  1.00  0.00     0.111 A 
HETATM   17  S1  UNL     1      29.240   0.367  53.540  1.00  0.00    -0.058 SA
BRANCH  15  18
HETATM   18  O1  UNL     1      28.850  -3.574  53.381  1.00  0.00    -0.344 OA
HETATM   19  H13 UNL     1      29.006  -4.074  54.245  1.00  0.00     0.219 HD
ENDBRANCH  15  18
ENDBRANCH   5  13
BRANCH   3  20
HETATM   20  C9  UNL     1      25.404   3.466  50.832  1.00  0.00    -0.010 A 
HETATM   21  C10 UNL     1      26.390   3.856  49.950  1.00  0.00     0.013 A 
HETATM   22  C11 UNL     1      26.095   4.801  48.995  1.00  0.00     0.001 A 
HETATM   23  C12 UNL     1      24.824   5.341  48.934  1.00  0.00     0.000 A 
HETATM   24  C13 UNL     1      23.871   4.913  49.844  1.00  0.00     0.001 A 
HETATM   25  C14 UNL     1      24.129   3.964  50.821  1.00  0.00     0.013 A 
ENDBRANCH   3  20
TORSDOF 4
ENDMDL
MODEL 2
REMARK VINA RESULT:      -9.4      3.081      6.097
REMARK  4 active torsions:
REMARK  status: ('A' for Active; 'I' for Inactive)
REMARK    1  A    between atoms: C5_5  and  C6_6 
REMARK    2  A    between atoms: C8_8  and  C9_9 
REMARK    3  A    between atoms: N2_16  and  C15_17 
REMARK    4  A    between atoms: C16_19  and  O1_20 
ROOT
HETATM    1  C6  UNL     1      26.108   2.113  52.984  1.00  0.00     0.153 C 
HETATM    2  C7  UNL     1      24.906   1.939  53.895  1.00  0.00     0.094 C 
HETATM    3  C8  UNL     1      23.961   1.235  52.956  1.00  0.00     0.067 C 
HETATM    4  N1  UNL     1      24.343   1.497  51.739  1.00  0.00    -0.173 NA
HETATM    5  N2  UNL     1      25.471   2.323  51.723  1.00  0.00    -0.236 N 
ENDROOT
BRANCH   1   6
HETATM    6  C5  UNL     1      27.015   0.948  53.046  1.00  0.00    -0.010 A 
HETATM    7  C4  UNL     1      26.453  -0.300  52.518  1.00  0.00     0.012 A 
HETATM    8  C3  UNL     1      27.338  -1.251  52.622  1.00  0.00     0.013 A 
HETATM    9  C2  UNL     1      28.542  -0.695  53.225  1.00  0.00    -0.023 A 
HETATM   10  C1  UNL     1      29.687  -1.257  53.527  1.00  0.00     0.025 C 
HETATM   11  C18 UNL     1      28.233   0.712  53.458  1.00  0.00     0.051 A 
HETATM   12 CL1  UNL     1      29.208   1.966  54.143  1.00  0.00    -0.083 Cl
ENDBRANCH   1   6
BRANCH   5  13
HETATM   13  C15 UNL     1      25.960   3.227  50.705  1.00  0.00     0.192 A 
HETATM   14  N3  UNL     1      26.880   3.508  50.054  1.00  0.00    -0.198 NA
HETATM   15  C16 UNL     1      26.944   4.491  49.151  1.00  0.00     0.171 A 
HETATM   16  C17 UNL     1      25.753   5.272  48.976  1.00  0.00     0.111 A 
HETATM   17  S1  UNL     1      24.613   4.460  50.195  1.00  0.00    -0.058 SA
BRANCH  15  18
HETATM   18  O1  UNL     1      28.203   4.582  48.521  1.00  0.00    -0.344 OA
HETATM   19  H13 UNL     1      28.352   4.024  47.692  1.00  0.00     0.219 HD
ENDBRANCH  15  18
ENDBRANCH   5  13
BRANCH   3  20
HETATM   20  C9  UNL     1      22.817   0.403  53.325  1.00  0.00    -0.010 A 
HETATM   21  C10 UNL     1      23.087  -0.687  54.126  1.00  0.00     0.013 A 
HETATM   22  C11 UNL     1      22.050  -1.507  54.507  1.00  0.00     0.001 A 
HETATM   23  C12 UNL     1      20.764  -1.230  54.084  1.00  0.00     0.000 A 
HETATM   24  C13 UNL     1      20.549  -0.121  53.280  1.00  0.00     0.001 A 
HETATM   25  C14 UNL     1      21.566   0.730  52.876  1.00  0.00     0.013 A 
ENDBRANCH   3  20
TORSDOF 4
ENDMDL
MODEL 3
REMARK VINA RESULT:      -8.8      3.434      6.684
REMARK  4 active torsions:
REMARK  status: ('A' for Active; 'I' for Inactive)
REMARK    1  A    between atoms: C5_5  and  C6_6 
REMARK    2  A    between atoms: C8_8  and  C9_9 
REMARK    3  A    between atoms: N2_16  and  C15_17 
REMARK    4  A    between atoms: C16_19  and  O1_20 
ROOT
HETATM    1  C6  UNL     1      24.618   2.069  53.170  1.00  0.00     0.153 C 
HETATM    2  C7  UNL     1      25.820   1.565  53.951  1.00  0.00     0.094 C 
HETATM    3  C8  UNL     1      26.009   0.217  53.304  1.00  0.00     0.067 C 
HETATM    4  N1  UNL     1      24.877  -0.124  52.760  1.00  0.00    -0.173 NA
HETATM    5  N2  UNL     1      23.898   0.855  52.957  1.00  0.00    -0.236 N 
ENDROOT
BRANCH   1   6
HETATM    6  C5  UNL     1      25.024   2.785  51.943  1.00  0.00    -0.010 A 
HETATM    7  C4  UNL     1      26.396   2.518  51.499  1.00  0.00     0.012 A 
HETATM    8  C3  UNL     1      26.640   3.196  50.413  1.00  0.00     0.013 A 
HETATM    9  C2  UNL     1      25.446   3.956  50.069  1.00  0.00    -0.023 A 
HETATM   10  C1  UNL     1      25.210   4.777  49.074  1.00  0.00     0.025 C 
HETATM   11  C18 UNL     1      24.474   3.625  51.106  1.00  0.00     0.051 A 
HETATM   12 CL1  UNL     1      22.845   4.166  51.318  1.00  0.00    -0.083 Cl
ENDBRANCH   1   6
BRANCH   5  13
HETATM   13  C15 UNL     1      22.455   0.751  52.969  1.00  0.00     0.192 A 
HETATM   14  N3  UNL     1      21.472   1.202  52.543  1.00  0.00    -0.198 NA
HETATM   15  C16 UNL     1      20.228   0.796  52.817  1.00  0.00     0.171 A 
HETATM   16  C17 UNL     1      20.106  -0.305  53.729  1.00  0.00     0.111 A 
HETATM   17  S1  UNL     1      21.888  -0.653  54.109  1.00  0.00    -0.058 SA
BRANCH  15  18
HETATM   18  O1  UNL     1      19.241   1.546  52.143  1.00  0.00    -0.344 OA
HETATM   19  H13 UNL     1      19.100   1.354  51.161  1.00  0.00     0.219 HD
ENDBRANCH  15  18
ENDBRANCH   5  13
BRANCH   3  20
HETATM   20  C9  UNL     1      27.235  -0.579  53.282  1.00  0.00    -0.010 A 
HETATM   21  C10 UNL     1      27.112  -1.878  52.837  1.00  0.00     0.013 A 
HETATM   22  C11 UNL     1      28.232  -2.677  52.794  1.00  0.00     0.001 A 
HETATM   23  C12 UNL     1      29.454  -2.169  53.194  1.00  0.00     0.000 A 
HETATM   24  C13 UNL     1      29.520  -0.856  53.632  1.00  0.00     0.001 A 
HETATM   25  C14 UNL     1      28.416  -0.020  53.691  1.00  0.00     0.013 A 
ENDBRANCH   3  20
TORSDOF 4
ENDMDL
MODEL 4
REMARK VINA RESULT:      -8.8      3.318      6.502
REMARK  4 active torsions:
REMARK  status: ('A' for Active; 'I' for Inactive)
REMARK    1  A    between atoms: C5_5  and  C6_6 
REMARK    2  A    between atoms: C8_8  and  C9_9 
REMARK    3  A    between atoms: N2_16  and  C15_17 
REMARK    4  A    between atoms: C16_19  and  O1_20 
ROOT
HETATM    1  C6  UNL     1      24.598   2.158  53.083  1.00  0.00     0.153 C 
HETATM    2  C7  UNL     1      25.824   1.823  53.914  1.00  0.00     0.094 C 
HETATM    3  C8  UNL     1      26.204   0.499  53.302  1.00  0.00     0.067 C 
HETATM    4  N1  UNL     1      25.144   0.009  52.726  1.00  0.00    -0.173 NA
HETATM    5  N2  UNL     1      24.044   0.860  52.871  1.00  0.00    -0.236 N 
ENDROOT
BRANCH   1   6
HETATM    6  C5  UNL     1      24.955   2.900  51.856  1.00  0.00    -0.010 A 
HETATM    7  C4  UNL     1      26.263   2.558  51.288  1.00  0.00     0.012 A 
HETATM    8  C3  UNL     1      26.468   3.267  50.213  1.00  0.00     0.013 A 
HETATM    9  C2  UNL     1      25.308   4.124  50.002  1.00  0.00    -0.023 A 
HETATM   10  C1  UNL     1      25.053   5.004  49.064  1.00  0.00     0.025 C 
HETATM   11  C18 UNL     1      24.402   3.814  51.102  1.00  0.00     0.051 A 
HETATM   12 CL1  UNL     1      22.839   4.457  51.472  1.00  0.00    -0.083 Cl
ENDBRANCH   1   6
BRANCH   5  13
HETATM   13  C15 UNL     1      22.625   0.576  52.836  1.00  0.00     0.192 A 
HETATM   14  N3  UNL     1      21.718   0.216  53.466  1.00  0.00    -0.198 NA
HETATM   15  C16 UNL     1      20.460   0.072  53.037  1.00  0.00     0.171 A 
HETATM   16  C17 UNL     1      20.217   0.394  51.660  1.00  0.00     0.111 A 
HETATM   17  S1  UNL     1      21.916   0.897  51.107  1.00  0.00    -0.058 SA
BRANCH  15  18
HETATM   18  O1  UNL     1      19.582  -0.383  54.044  1.00  0.00    -0.344 OA
HETATM   19  H13 UNL     1      18.669  -0.706  53.755  1.00  0.00     0.219 HD
ENDBRANCH  15  18
ENDBRANCH   5  13
BRANCH   3  20
HETATM   20  C9  UNL     1      27.520  -0.137  53.337  1.00  0.00    -0.010 A 
HETATM   21  C10 UNL     1      28.581   0.673  53.684  1.00  0.00     0.013 A 
HETATM   22  C11 UNL     1      29.845   0.131  53.734  1.00  0.00     0.001 A 
HETATM   23  C12 UNL     1      30.031  -1.206  53.439  1.00  0.00     0.000 A 
HETATM   24  C13 UNL     1      28.930  -1.975  53.097  1.00  0.00     0.001 A 
HETATM   25  C14 UNL     1      27.641  -1.467  53.035  1.00  0.00     0.013 A 
ENDBRANCH   3  20
TORSDOF 4
ENDMDL
MODEL 5
REMARK VINA RESULT:      -8.5      4.053      6.311
REMARK  4 active torsions:
REMARK  status: ('A' for Active; 'I' for Inactive)
REMARK    1  A    between atoms: C5_5  and  C6_6 
REMARK    2  A    between atoms: C8_8  and  C9_9 
REMARK    3  A    between atoms: N2_16  and  C15_17 
REMARK    4  A    between atoms: C16_19  and  O1_20 
ROOT
HETATM    1  C6  UNL     1      23.769   1.726  51.587  1.00  0.00     0.153 C 
HETATM    2  C7  UNL     1      25.188   1.187  51.528  1.00  0.00     0.094 C 
HETATM    3  C8  UNL     1      25.824   1.996  52.628  1.00  0.00     0.067 C 
HETATM    4  N1  UNL     1      25.099   3.063  52.805  1.00  0.00    -0.173 NA
HETATM    5  N2  UNL     1      24.006   3.090  51.934  1.00  0.00    -0.236 N 
ENDROOT
BRANCH   1   6
HETATM    6  C5  UNL     1      22.935   0.968  52.541  1.00  0.00    -0.010 A 
HETATM    7  C4  UNL     1      23.573  -0.226  53.104  1.00  0.00     0.012 A 
HETATM    8  C3  UNL     1      22.750  -0.810  53.930  1.00  0.00     0.013 A 
HETATM    9  C2  UNL     1      21.514  -0.039  53.966  1.00  0.00    -0.023 A 
HETATM   10  C1  UNL     1      20.406  -0.229  54.641  1.00  0.00     0.025 C 
HETATM   11  C18 UNL     1      21.733   1.072  53.047  1.00  0.00     0.051 A 
HETATM   12 CL1  UNL     1      20.685   2.376  52.607  1.00  0.00    -0.083 Cl
ENDBRANCH   1   6
BRANCH   5  13
HETATM   13  C15 UNL     1      23.230   4.205  51.435  1.00  0.00     0.192 A 
HETATM   14  N3  UNL     1      22.827   5.265  51.689  1.00  0.00    -0.198 NA
HETATM   15  C16 UNL     1      22.080   6.041  50.898  1.00  0.00     0.171 A 
HETATM   16  C17 UNL     1      21.747   5.502  49.610  1.00  0.00     0.111 A 
HETATM   17  S1  UNL     1      22.592   3.852  49.685  1.00  0.00    -0.058 SA
BRANCH  15  18
HETATM   18  O1  UNL     1      21.748   7.278  51.491  1.00  0.00    -0.344 OA
HETATM   19  H13 UNL     1      21.665   8.079  50.882  1.00  0.00     0.219 HD
ENDBRANCH  15  18
ENDBRANCH   5  13
BRANCH   3  20
HETATM   20  C9  UNL     1      27.036   1.661  53.373  1.00  0.00    -0.010 A 
HETATM   21  C10 UNL     1      27.006   0.485  54.093  1.00  0.00     0.013 A 
HETATM   22  C11 UNL     1      28.117   0.115  54.815  1.00  0.00     0.001 A 
HETATM   23  C12 UNL     1      29.239   0.922  54.808  1.00  0.00     0.000 A 
HETATM   24  C13 UNL     1      29.217   2.093  54.067  1.00  0.00     0.001 A 
HETATM   25  C14 UNL     1      28.117   2.500  53.327  1.00  0.00     0.013 A 
ENDBRANCH   3  20
TORSDOF 4
ENDMDL
MODEL 6
REMARK VINA RESULT:      -8.5      1.845      2.199
REMARK  4 active torsions:
REMARK  status: ('A' for Active; 'I' for Inactive)
REMARK    1  A    between atoms: C5_5  and  C6_6 
REMARK    2  A    between atoms: C8_8  and  C9_9 
REMARK    3  A    between atoms: N2_16  and  C15_17 
REMARK    4  A    between atoms: C16_19  and  O1_20 
ROOT
HETATM    1  C6  UNL     1      24.425   1.518  53.107  1.00  0.00     0.153 C 
HETATM    2  C7  UNL     1      24.242   2.923  52.562  1.00  0.00     0.094 C 
HETATM    3  C8  UNL     1      24.423   2.661  51.089  1.00  0.00     0.067 C 
HETATM    4  N1  UNL     1      25.092   1.551  50.963  1.00  0.00    -0.173 NA
HETATM    5  N2  UNL     1      25.405   0.997  52.208  1.00  0.00    -0.236 N 
ENDROOT
BRANCH   1   6
HETATM    6  C5  UNL     1      23.149   0.776  53.147  1.00  0.00    -0.010 A 
HETATM    7  C4  UNL     1      23.269  -0.639  53.516  1.00  0.00     0.012 A 
HETATM    8  C3  UNL     1      22.086  -1.187  53.522  1.00  0.00     0.013 A 
HETATM    9  C2  UNL     1      21.107  -0.171  53.157  1.00  0.00    -0.023 A 
HETATM   10  C1  UNL     1      19.805  -0.244  53.030  1.00  0.00     0.025 C 
HETATM   11  C18 UNL     1      21.886   1.043  52.939  1.00  0.00     0.051 A 
HETATM   12 CL1  UNL     1      21.368   2.630  52.486  1.00  0.00    -0.083 Cl
ENDBRANCH   1   6
BRANCH   5  13
HETATM   13  C15 UNL     1      26.468   0.096  52.595  1.00  0.00     0.192 A 
HETATM   14  N3  UNL     1      26.801  -1.017  52.621  1.00  0.00    -0.198 NA
HETATM   15  C16 UNL     1      27.955  -1.490  53.100  1.00  0.00     0.171 A 
HETATM   16  C17 UNL     1      28.867  -0.519  53.634  1.00  0.00     0.111 A 
HETATM   17  S1  UNL     1      27.911   1.049  53.373  1.00  0.00    -0.058 SA
BRANCH  15  18
HETATM   18  O1  UNL     1      28.066  -2.892  52.990  1.00  0.00    -0.344 OA
HETATM   19  H13 UNL     1      27.842  -3.309  52.097  1.00  0.00     0.219 HD
ENDBRANCH  15  18
ENDBRANCH   5  13
BRANCH   3  20
HETATM   20  C9  UNL     1      23.941   3.491  49.986  1.00  0.00    -0.010 A 
HETATM   21  C10 UNL     1      23.055   2.895  49.114  1.00  0.00     0.013 A 
HETATM   22  C11 UNL     1      22.567   3.626  48.056  1.00  0.00     0.001 A 
HETATM   23  C12 UNL     1      22.969   4.938  47.884  1.00  0.00     0.000 A 
HETATM   24  C13 UNL     1      23.861   5.488  48.790  1.00  0.00     0.001 A 
HETATM   25  C14 UNL     1      24.375   4.784  49.869  1.00  0.00     0.013 A 
ENDBRANCH   3  20
TORSDOF 4
ENDMDL
MODEL 7
REMARK VINA RESULT:      -8.4      3.882      7.006
REMARK  4 active torsions:
REMARK  status: ('A' for Active; 'I' for Inactive)
REMARK    1  A    between atoms: C5_5  and  C6_6 
REMARK    2  A    between atoms: C8_8  and  C9_9 
REMARK    3  A    between atoms: N2_16  and  C15_17 
REMARK    4  A    between atoms: C16_19  and  O1_20 
ROOT
HETATM    1  C6  UNL     1      24.435   2.970  52.577  1.00  0.00     0.153 C 
HETATM    2  C7  UNL     1      25.483   2.323  53.466  1.00  0.00     0.094 C 
HETATM    3  C8  UNL     1      25.543   0.950  52.848  1.00  0.00     0.067 C 
HETATM    4  N1  UNL     1      24.427   0.755  52.205  1.00  0.00    -0.173 NA
HETATM    5  N2  UNL     1      23.578   1.861  52.307  1.00  0.00    -0.236 N 
ENDROOT
BRANCH   1   6
HETATM    6  C5  UNL     1      25.043   3.601  51.388  1.00  0.00    -0.010 A 
HETATM    7  C4  UNL     1      26.269   2.958  50.906  1.00  0.00     0.012 A 
HETATM    8  C3  UNL     1      26.711   3.594  49.858  1.00  0.00     0.013 A 
HETATM    9  C2  UNL     1      25.805   4.701  49.579  1.00  0.00    -0.023 A 
HETATM   10  C1  UNL     1      25.833   5.613  48.637  1.00  0.00     0.025 C 
HETATM   11  C18 UNL     1      24.777   4.618  50.610  1.00  0.00     0.051 A 
HETATM   12 CL1  UNL     1      23.388   5.615  50.879  1.00  0.00    -0.083 Cl
ENDBRANCH   1   6
BRANCH   5  13
HETATM   13  C15 UNL     1      22.139   1.954  52.188  1.00  0.00     0.192 A 
HETATM   14  N3  UNL     1      21.229   2.673  52.262  1.00  0.00    -0.198 NA
HETATM   15  C16 UNL     1      19.946   2.355  52.066  1.00  0.00     0.171 A 
HETATM   16  C17 UNL     1      19.676   0.985  51.732  1.00  0.00     0.111 A 
HETATM   17  S1  UNL     1      21.389   0.272  51.737  1.00  0.00    -0.058 SA
BRANCH  15  18
HETATM   18  O1  UNL     1      19.073   3.451  52.229  1.00  0.00    -0.344 OA
HETATM   19  H13 UNL     1      19.415   4.246  52.751  1.00  0.00     0.219 HD
ENDBRANCH  15  18
ENDBRANCH   5  13
BRANCH   3  20
HETATM   20  C9  UNL     1      26.645  -0.005  52.943  1.00  0.00    -0.010 A 
HETATM   21  C10 UNL     1      27.848   0.492  53.398  1.00  0.00     0.013 A 
HETATM   22  C11 UNL     1      28.923  -0.359  53.509  1.00  0.00     0.001 A 
HETATM   23  C12 UNL     1      28.784  -1.690  53.163  1.00  0.00     0.000 A 
HETATM   24  C13 UNL     1      27.552  -2.138  52.711  1.00  0.00     0.001 A 
HETATM   25  C14 UNL     1      26.445  -1.312  52.586  1.00  0.00     0.013 A 
ENDBRANCH   3  20
TORSDOF 4
ENDMDL
MODEL 8
REMARK VINA RESULT:      -8.4      3.796      6.180
REMARK  4 active torsions:
REMARK  status: ('A' for Active; 'I' for Inactive)
REMARK    1  A    between atoms: C5_5  and  C6_6 
REMARK    2  A    between atoms: C8_8  and  C9_9 
REMARK    3  A    between atoms: N2_16  and  C15_17 
REMARK    4  A    between atoms: C16_19  and  O1_20 
ROOT
HETATM    1  C6  UNL     1      23.015   2.035  52.538  1.00  0.00     0.153 C 
HETATM    2  C7  UNL     1      24.283   2.436  53.272  1.00  0.00     0.094 C 
HETATM    3  C8  UNL     1      25.058   1.147  53.185  1.00  0.00     0.067 C 
HETATM    4  N1  UNL     1      24.204   0.184  52.986  1.00  0.00    -0.173 NA
HETATM    5  N2  UNL     1      22.894   0.665  52.924  1.00  0.00    -0.236 N 
ENDROOT
BRANCH   1   6
HETATM    6  C5  UNL     1      23.126   2.274  51.085  1.00  0.00    -0.010 A 
HETATM    7  C4  UNL     1      24.272   3.095  50.681  1.00  0.00     0.012 A 
HETATM    8  C3  UNL     1      24.270   3.235  49.384  1.00  0.00     0.013 A 
HETATM    9  C2  UNL     1      23.122   2.516  48.848  1.00  0.00    -0.023 A 
HETATM   10  C1  UNL     1      22.704   2.369  47.613  1.00  0.00     0.025 C 
HETATM   11  C18 UNL     1      22.458   1.939  50.011  1.00  0.00     0.051 A 
HETATM   12 CL1  UNL     1      21.035   0.960  50.109  1.00  0.00    -0.083 Cl
ENDBRANCH   1   6
BRANCH   5  13
HETATM   13  C15 UNL     1      21.635   0.001  53.181  1.00  0.00     0.192 A 
HETATM   14  N3  UNL     1      20.489   0.041  52.993  1.00  0.00    -0.198 NA
HETATM   15  C16 UNL     1      19.579  -0.832  53.438  1.00  0.00     0.171 A 
HETATM   16  C17 UNL     1      20.078  -1.922  54.226  1.00  0.00     0.111 A 
HETATM   17  S1  UNL     1      21.896  -1.551  54.239  1.00  0.00    -0.058 SA
BRANCH  15  18
HETATM   18  O1  UNL     1      18.264  -0.510  53.040  1.00  0.00    -0.344 OA
HETATM   19  H13 UNL     1      17.805  -1.138  52.396  1.00  0.00     0.219 HD
ENDBRANCH  15  18
ENDBRANCH   5  13
BRANCH   3  20
HETATM   20  C9  UNL     1      26.506   0.986  53.301  1.00  0.00    -0.010 A 
HETATM   21  C10 UNL     1      27.243   2.147  53.407  1.00  0.00     0.013 A 
HETATM   22  C11 UNL     1      28.612   2.060  53.519  1.00  0.00     0.001 A 
HETATM   23  C12 UNL     1      29.223   0.820  53.522  1.00  0.00     0.000 A 
HETATM   24  C13 UNL     1      28.435  -0.314  53.413  1.00  0.00     0.001 A 
HETATM   25  C14 UNL     1      27.053  -0.269  53.299  1.00  0.00     0.013 A 
ENDBRANCH   3  20
TORSDOF 4
ENDMDL
MODEL 9
REMARK VINA RESULT:      -8.3      3.264      5.019
REMARK  4 active torsions:
REMARK  status: ('A' for Active; 'I' for Inactive)
REMARK    1  A    between atoms: C5_5  and  C6_6 
REMARK    2  A    between atoms: C8_8  and  C9_9 
REMARK    3  A    between atoms: N2_16  and  C15_17 
REMARK    4  A    between atoms: C16_19  and  O1_20 
ROOT
HETATM    1  C6  UNL     1      24.405   1.430  51.571  1.00  0.00     0.153 C 
HETATM    2  C7  UNL     1      24.516   2.479  50.477  1.00  0.00     0.094 C 
HETATM    3  C8  UNL     1      24.060   3.699  51.234  1.00  0.00     0.067 C 
HETATM    4  N1  UNL     1      23.354   3.295  52.250  1.00  0.00    -0.173 NA
HETATM    5  N2  UNL     1      23.265   1.900  52.289  1.00  0.00    -0.236 N 
ENDROOT
BRANCH   1   6
HETATM    6  C5  UNL     1      25.650   1.329  52.359  1.00  0.00    -0.010 A 
HETATM    7  C4  UNL     1      26.687   2.302  52.002  1.00  0.00     0.012 A 
HETATM    8  C3  UNL     1      27.732   2.121  52.761  1.00  0.00     0.013 A 
HETATM    9  C2  UNL     1      27.453   1.016  53.669  1.00  0.00    -0.023 A 
HETATM   10  C1  UNL     1      28.190   0.470  54.606  1.00  0.00     0.025 C 
HETATM   11  C18 UNL     1      26.102   0.580  53.332  1.00  0.00     0.051 A 
HETATM   12 CL1  UNL     1      25.137  -0.683  54.015  1.00  0.00    -0.083 Cl
ENDBRANCH   1   6
BRANCH   5  13
HETATM   13  C15 UNL     1      22.271   1.039  52.893  1.00  0.00     0.192 A 
HETATM   14  N3  UNL     1      22.087   0.240  53.716  1.00  0.00    -0.198 NA
HETATM   15  C16 UNL     1      20.931  -0.374  53.985  1.00  0.00     0.171 A 
HETATM   16  C17 UNL     1      19.810  -0.002  53.169  1.00  0.00     0.111 A 
HETATM   17  S1  UNL     1      20.587   1.256  52.048  1.00  0.00    -0.058 SA
BRANCH  15  18
HETATM   18  O1  UNL     1      21.029  -1.297  55.047  1.00  0.00    -0.344 OA
HETATM   19  H13 UNL     1      21.640  -1.061  55.816  1.00  0.00     0.219 HD
ENDBRANCH  15  18
ENDBRANCH   5  13
BRANCH   3  20
HETATM   20  C9  UNL     1      24.348   5.093  50.902  1.00  0.00    -0.010 A 
HETATM   21  C10 UNL     1      25.441   5.316  50.092  1.00  0.00     0.013 A 
HETATM   22  C11 UNL     1      25.763   6.608  49.745  1.00  0.00     0.001 A 
HETATM   23  C12 UNL     1      24.990   7.656  50.210  1.00  0.00     0.000 A 
HETATM   24  C13 UNL     1      23.902   7.376  51.020  1.00  0.00     0.001 A 
HETATM   25  C14 UNL     1      23.545   6.088  51.392  1.00  0.00     0.013 A 
ENDBRANCH   3  20
TORSDOF 4
ENDMDL
