MODEL 1
REMARK VINA RESULT:      -9.2      0.000      0.000
REMARK  7 active torsions:
REMARK  status: ('A' for Active; 'I' for Inactive)
REMARK    1  A    between atoms: N1_1  and  C1_2 
REMARK    2  A    between atoms: C1_2  and  C2_3 
REMARK    3  A    between atoms: C1_2  and  C7_11 
REMARK    4  A    between atoms: C2_3  and  N2_4 
REMARK    5  A    between atoms: C6_9  and  N3_10 
REMARK    6  A    between atoms: C12_18  and  N6_19 
REMARK    7  A    between atoms: N6_19  and  C13_20 
ROOT
HETATM    1  C7  UNL     1      23.715  -0.526  54.213  1.00  0.00    -0.023 A 
HETATM    2  C8  UNL     1      22.745  -1.151  54.955  1.00  0.00     0.012 A 
HETATM    3  C9  UNL     1      21.436  -1.070  54.479  1.00  0.00     0.033 A 
HETATM    4  C10 UNL     1      21.186  -0.375  53.298  1.00  0.00     0.072 A 
HETATM    5  N4  UNL     1      19.923  -0.358  52.910  1.00  0.00    -0.241 NA
HETATM    6  C11 UNL     1      19.588   0.288  51.759  1.00  0.00     0.236 A 
HETATM    7  N5  UNL     1      20.533   0.910  51.014  1.00  0.00    -0.224 NA
HETATM    8  C12 UNL     1      21.815   0.890  51.415  1.00  0.00     0.142 A 
HETATM    9  C19 UNL     1      22.191   0.247  52.573  1.00  0.00     0.039 A 
HETATM   10  C20 UNL     1      23.490   0.178  53.027  1.00  0.00     0.027 A 
ENDROOT
BRANCH   1  11
HETATM   11  C1  UNL     1      25.143  -0.657  54.726  1.00  0.00     0.279 C 
BRANCH  11  12
HETATM   12  N1  UNL     1      25.085  -1.525  55.827  1.00  0.00     0.089 N 
HETATM   13  H1  UNL     1      24.783  -2.518  55.590  1.00  0.00     0.313 HD
HETATM   14  H2  UNL     1      24.344  -1.231  56.537  1.00  0.00     0.313 HD
ENDBRANCH  11  12
BRANCH  11  15
HETATM   15  C2  UNL     1      26.009  -0.941  53.575  1.00  0.00     0.315 C 
BRANCH  15  16
HETATM   16  N2  UNL     1      27.265  -0.323  53.417  1.00  0.00     0.128 N 
HETATM   17  C3  UNL     1      27.794   0.044  54.753  1.00  0.00     0.301 C 
HETATM   18  C4  UNL     1      28.915   1.020  54.691  1.00  0.00     0.198 C 
HETATM   19  O1  UNL     1      28.504   2.249  54.149  1.00  0.00    -0.385 OA
HETATM   20  C5  UNL     1      27.263   2.079  53.522  1.00  0.00     0.235 C 
HETATM   21  C6  UNL     1      27.375   0.851  52.633  1.00  0.00     0.474 C 
BRANCH  21  22
HETATM   22  N3  UNL     1      26.513   1.029  51.521  1.00  0.00     0.114 N 
HETATM   23  H13 UNL     1      25.960   1.922  51.637  1.00  0.00     0.315 HD
HETATM   24  H14 UNL     1      25.850   0.214  51.379  1.00  0.00     0.315 HD
ENDBRANCH  21  22
ENDBRANCH  15  16
ENDBRANCH  11  15
ENDBRANCH   1  11
BRANCH   8  25
HETATM   25  N6  UNL     1      22.789   1.551  50.629  1.00  0.00    -0.340 N 
HETATM   26  H18 UNL     1      23.335   1.179  49.827  1.00  0.00     0.167 HD
BRANCH  25  27
HETATM   27  C13 UNL     1      23.245   2.883  50.769  1.00  0.00     0.035 A 
HETATM   28  C14 UNL     1      22.715   3.833  51.655  1.00  0.00     0.032 A 
HETATM   29  C15 UNL     1      23.280   5.102  51.697  1.00  0.00     0.046 A 
HETATM   30  C16 UNL     1      24.333   5.498  50.925  1.00  0.00     0.138 A 
HETATM   31  F1  UNL     1      24.884   6.731  50.967  1.00  0.00    -0.204 F 
HETATM   32  C17 UNL     1      24.886   4.610  50.044  1.00  0.00     0.074 A 
HETATM   33 CL1  UNL     1      26.242   4.981  49.000  1.00  0.00    -0.081 Cl
HETATM   34  C18 UNL     1      24.322   3.333  49.998  1.00  0.00     0.056 A 
ENDBRANCH  25  27
ENDBRANCH   8  25
TORSDOF 7
ENDMDL
MODEL 2
REMARK VINA RESULT:      -8.5      2.996      6.070
REMARK  7 active torsions:
REMARK  status: ('A' for Active; 'I' for Inactive)
REMARK    1  A    between atoms: N1_1  and  C1_2 
REMARK    2  A    between atoms: C1_2  and  C2_3 
REMARK    3  A    between atoms: C1_2  and  C7_11 
REMARK    4  A    between atoms: C2_3  and  N2_4 
REMARK    5  A    between atoms: C6_9  and  N3_10 
REMARK    6  A    between atoms: C12_18  and  N6_19 
REMARK    7  A    between atoms: N6_19  and  C13_20 
ROOT
HETATM    1  C7  UNL     1      20.896   0.779  51.594  1.00  0.00    -0.023 A 
HETATM    2  C8  UNL     1      19.831   0.255  52.282  1.00  0.00     0.012 A 
HETATM    3  C9  UNL     1      20.120  -0.465  53.440  1.00  0.00     0.033 A 
HETATM    4  C10 UNL     1      21.449  -0.612  53.834  1.00  0.00     0.072 A 
HETATM    5  N4  UNL     1      21.635  -1.296  54.949  1.00  0.00    -0.241 NA
HETATM    6  C11 UNL     1      22.901  -1.478  55.417  1.00  0.00     0.236 A 
HETATM    7  N5  UNL     1      23.964  -0.967  54.751  1.00  0.00    -0.224 NA
HETATM    8  C12 UNL     1      23.768  -0.274  53.617  1.00  0.00     0.142 A 
HETATM    9  C19 UNL     1      22.503  -0.069  53.115  1.00  0.00     0.039 A 
HETATM   10  C20 UNL     1      22.237   0.645  51.967  1.00  0.00     0.027 A 
ENDROOT
BRANCH   1  11
HETATM   11  C1  UNL     1      20.561   1.595  50.354  1.00  0.00     0.279 C 
BRANCH  11  12
HETATM   12  N1  UNL     1      19.438   0.983  49.774  1.00  0.00     0.089 N 
HETATM   13  H1  UNL     1      19.294  -0.033  50.059  1.00  0.00     0.313 HD
HETATM   14  H2  UNL     1      19.522   0.905  48.713  1.00  0.00     0.313 HD
ENDBRANCH  11  12
BRANCH  11  15
HETATM   15  C2  UNL     1      20.544   3.011  50.738  1.00  0.00     0.315 C 
BRANCH  15  16
HETATM   16  N2  UNL     1      21.424   3.951  50.166  1.00  0.00     0.128 N 
HETATM   17  C3  UNL     1      22.228   3.280  49.115  1.00  0.00     0.301 C 
HETATM   18  C4  UNL     1      23.429   4.059  48.711  1.00  0.00     0.198 C 
HETATM   19  O1  UNL     1      24.333   4.210  49.775  1.00  0.00    -0.385 OA
HETATM   20  C5  UNL     1      23.687   3.880  50.972  1.00  0.00     0.235 C 
HETATM   21  C6  UNL     1      22.362   4.623  50.987  1.00  0.00     0.474 C 
BRANCH  21  22
HETATM   22  N3  UNL     1      22.028   4.909  52.334  1.00  0.00     0.114 N 
HETATM   23  H13 UNL     1      21.918   5.953  52.461  1.00  0.00     0.315 HD
HETATM   24  H14 UNL     1      22.742   4.537  53.024  1.00  0.00     0.315 HD
ENDBRANCH  21  22
ENDBRANCH  15  16
ENDBRANCH  11  15
ENDBRANCH   1  11
BRANCH   8  25
HETATM   25  N6  UNL     1      24.890   0.247  52.929  1.00  0.00    -0.340 N 
HETATM   26  H18 UNL     1      24.911   0.943  52.157  1.00  0.00     0.167 HD
BRANCH  25  27
HETATM   27  C13 UNL     1      26.252  -0.074  53.141  1.00  0.00     0.035 A 
HETATM   28  C14 UNL     1      26.850  -1.306  52.839  1.00  0.00     0.032 A 
HETATM   29  C15 UNL     1      28.208  -1.472  53.082  1.00  0.00     0.046 A 
HETATM   30  C16 UNL     1      29.018  -0.504  53.604  1.00  0.00     0.138 A 
HETATM   31  F1  UNL     1      30.338  -0.664  53.840  1.00  0.00    -0.204 F 
HETATM   32  C17 UNL     1      28.483   0.716  53.916  1.00  0.00     0.074 A 
HETATM   33 CL1  UNL     1      29.404   2.047  54.582  1.00  0.00    -0.081 Cl
HETATM   34  C18 UNL     1      27.118   0.887  53.672  1.00  0.00     0.056 A 
ENDBRANCH  25  27
ENDBRANCH   8  25
TORSDOF 7
ENDMDL
MODEL 3
REMARK VINA RESULT:      -8.5      2.552      5.641
REMARK  7 active torsions:
REMARK  status: ('A' for Active; 'I' for Inactive)
REMARK    1  A    between atoms: N1_1  and  C1_2 
REMARK    2  A    between atoms: C1_2  and  C2_3 
REMARK    3  A    between atoms: C1_2  and  C7_11 
REMARK    4  A    between atoms: C2_3  and  N2_4 
REMARK    5  A    between atoms: C6_9  and  N3_10 
REMARK    6  A    between atoms: C12_18  and  N6_19 
REMARK    7  A    between atoms: N6_19  and  C13_20 
ROOT
HETATM    1  C7  UNL     1      24.228  -0.183  53.491  1.00  0.00    -0.023 A 
HETATM    2  C8  UNL     1      24.817  -0.557  54.672  1.00  0.00     0.012 A 
HETATM    3  C9  UNL     1      26.087  -0.043  54.935  1.00  0.00     0.033 A 
HETATM    4  C10 UNL     1      26.681   0.808  54.004  1.00  0.00     0.072 A 
HETATM    5  N4  UNL     1      27.877   1.260  54.335  1.00  0.00    -0.241 NA
HETATM    6  C11 UNL     1      28.527   2.109  53.491  1.00  0.00     0.236 A 
HETATM    7  N5  UNL     1      27.959   2.488  52.321  1.00  0.00    -0.224 NA
HETATM    8  C12 UNL     1      26.744   2.023  51.989  1.00  0.00     0.142 A 
HETATM    9  C19 UNL     1      26.057   1.165  52.818  1.00  0.00     0.039 A 
HETATM   10  C20 UNL     1      24.802   0.668  52.541  1.00  0.00     0.027 A 
ENDROOT
BRANCH   1  11
HETATM   11  C1  UNL     1      22.827  -0.721  53.237  1.00  0.00     0.279 C 
BRANCH  11  12
HETATM   12  N1  UNL     1      22.406  -1.301  54.445  1.00  0.00     0.089 N 
HETATM   13  H1  UNL     1      22.917  -2.198  54.705  1.00  0.00     0.313 HD
HETATM   14  H2  UNL     1      21.391  -1.627  54.405  1.00  0.00     0.313 HD
ENDBRANCH  11  12
BRANCH  11  15
HETATM   15  C2  UNL     1      22.048   0.341  52.590  1.00  0.00     0.315 C 
BRANCH  15  16
HETATM   16  N2  UNL     1      21.342   0.122  51.390  1.00  0.00     0.128 N 
HETATM   17  C3  UNL     1      21.834   1.072  50.361  1.00  0.00     0.301 C 
HETATM   18  C4  UNL     1      20.923   1.190  49.192  1.00  0.00     0.198 C 
HETATM   19  O1  UNL     1      19.673   1.716  49.558  1.00  0.00    -0.385 OA
HETATM   20  C5  UNL     1      19.542   1.654  50.950  1.00  0.00     0.235 C 
HETATM   21  C6  UNL     1      19.931   0.247  51.374  1.00  0.00     0.474 C 
BRANCH  21  22
HETATM   22  N3  UNL     1      19.191  -0.087  52.536  1.00  0.00     0.114 N 
HETATM   23  H13 UNL     1      18.574  -0.923  52.338  1.00  0.00     0.315 HD
HETATM   24  H14 UNL     1      18.599   0.717  52.893  1.00  0.00     0.315 HD
ENDBRANCH  21  22
ENDBRANCH  15  16
ENDBRANCH  11  15
ENDBRANCH   1  11
BRANCH   8  25
HETATM   25  N6  UNL     1      26.169   2.423  50.759  1.00  0.00    -0.340 N 
HETATM   26  H18 UNL     1      25.643   1.847  50.072  1.00  0.00     0.167 HD
BRANCH  25  27
HETATM   27  C13 UNL     1      26.187   3.715  50.183  1.00  0.00     0.035 A 
HETATM   28  C14 UNL     1      27.069   4.143  49.180  1.00  0.00     0.032 A 
HETATM   29  C15 UNL     1      26.956   5.440  48.693  1.00  0.00     0.046 A 
HETATM   30  C16 UNL     1      26.031   6.344  49.128  1.00  0.00     0.138 A 
HETATM   31  F1  UNL     1      25.920   7.605  48.655  1.00  0.00    -0.204 F 
HETATM   32  C17 UNL     1      25.148   5.977  50.106  1.00  0.00     0.074 A 
HETATM   33 CL1  UNL     1      23.908   7.031  50.752  1.00  0.00    -0.081 Cl
HETATM   34  C18 UNL     1      25.257   4.674  50.598  1.00  0.00     0.056 A 
ENDBRANCH  25  27
ENDBRANCH   8  25
TORSDOF 7
ENDMDL
MODEL 4
REMARK VINA RESULT:      -8.4      2.409      3.779
REMARK  7 active torsions:
REMARK  status: ('A' for Active; 'I' for Inactive)
REMARK    1  A    between atoms: N1_1  and  C1_2 
REMARK    2  A    between atoms: C1_2  and  C2_3 
REMARK    3  A    between atoms: C1_2  and  C7_11 
REMARK    4  A    between atoms: C2_3  and  N2_4 
REMARK    5  A    between atoms: C6_9  and  N3_10 
REMARK    6  A    between atoms: C12_18  and  N6_19 
REMARK    7  A    between atoms: N6_19  and  C13_20 
ROOT
HETATM    1  C7  UNL     1      23.069   1.081  51.922  1.00  0.00    -0.023 A 
HETATM    2  C8  UNL     1      22.034   0.372  51.368  1.00  0.00     0.012 A 
HETATM    3  C9  UNL     1      21.462   0.893  50.207  1.00  0.00     0.033 A 
HETATM    4  C10 UNL     1      21.962   2.082  49.679  1.00  0.00     0.072 A 
HETATM    5  N4  UNL     1      21.374   2.499  48.572  1.00  0.00    -0.241 NA
HETATM    6  C11 UNL     1      21.806   3.646  47.978  1.00  0.00     0.236 A 
HETATM    7  N5  UNL     1      22.826   4.358  48.512  1.00  0.00    -0.224 NA
HETATM    8  C12 UNL     1      23.419   3.930  49.639  1.00  0.00     0.142 A 
HETATM    9  C19 UNL     1      23.010   2.774  50.266  1.00  0.00     0.039 A 
HETATM   10  C20 UNL     1      23.588   2.276  51.413  1.00  0.00     0.027 A 
ENDROOT
BRANCH   1  11
HETATM   11  C1  UNL     1      23.708   0.479  53.166  1.00  0.00     0.279 C 
BRANCH  11  12
HETATM   12  N1  UNL     1      22.968  -0.675  53.466  1.00  0.00     0.089 N 
HETATM   13  H1  UNL     1      22.476  -1.113  52.629  1.00  0.00     0.313 HD
HETATM   14  H2  UNL     1      22.151  -0.474  54.123  1.00  0.00     0.313 HD
ENDBRANCH  11  12
BRANCH  11  15
HETATM   15  C2  UNL     1      25.157   0.419  52.943  1.00  0.00     0.315 C 
BRANCH  15  16
HETATM   16  N2  UNL     1      26.065   1.152  53.733  1.00  0.00     0.128 N 
HETATM   17  C3  UNL     1      27.097   1.751  52.851  1.00  0.00     0.301 C 
HETATM   18  C4  UNL     1      28.298   2.222  53.592  1.00  0.00     0.198 C 
HETATM   19  O1  UNL     1      28.972   1.161  54.218  1.00  0.00    -0.385 OA
HETATM   20  C5  UNL     1      28.134   0.039  54.241  1.00  0.00     0.235 C 
HETATM   21  C6  UNL     1      26.783   0.499  54.764  1.00  0.00     0.474 C 
BRANCH  21  22
HETATM   22  N3  UNL     1      26.182  -0.585  55.451  1.00  0.00     0.114 N 
HETATM   23  H13 UNL     1      25.827  -1.297  54.755  1.00  0.00     0.315 HD
HETATM   24  H14 UNL     1      25.390  -0.281  56.087  1.00  0.00     0.315 HD
ENDBRANCH  21  22
ENDBRANCH  15  16
ENDBRANCH  11  15
ENDBRANCH   1  11
BRANCH   8  25
HETATM   25  N6  UNL     1      24.480   4.690  50.187  1.00  0.00    -0.340 N 
HETATM   26  H18 UNL     1      24.569   5.079  51.147  1.00  0.00     0.167 HD
BRANCH  25  27
HETATM   27  C13 UNL     1      25.669   5.097  49.539  1.00  0.00     0.035 A 
HETATM   28  C14 UNL     1      26.760   4.265  49.249  1.00  0.00     0.032 A 
HETATM   29  C15 UNL     1      27.857   4.801  48.586  1.00  0.00     0.046 A 
HETATM   30  C16 UNL     1      27.952   6.104  48.188  1.00  0.00     0.138 A 
HETATM   31  F1  UNL     1      29.018   6.625  47.543  1.00  0.00    -0.204 F 
HETATM   32  C17 UNL     1      26.915   6.957  48.447  1.00  0.00     0.074 A 
HETATM   33 CL1  UNL     1      26.899   8.646  47.989  1.00  0.00    -0.081 Cl
HETATM   34  C18 UNL     1      25.810   6.422  49.113  1.00  0.00     0.056 A 
ENDBRANCH  25  27
ENDBRANCH   8  25
TORSDOF 7
ENDMDL
MODEL 5
REMARK VINA RESULT:      -8.3      3.301      6.367
REMARK  7 active torsions:
REMARK  status: ('A' for Active; 'I' for Inactive)
REMARK    1  A    between atoms: N1_1  and  C1_2 
REMARK    2  A    between atoms: C1_2  and  C2_3 
REMARK    3  A    between atoms: C1_2  and  C7_11 
REMARK    4  A    between atoms: C2_3  and  N2_4 
REMARK    5  A    between atoms: C6_9  and  N3_10 
REMARK    6  A    between atoms: C12_18  and  N6_19 
REMARK    7  A    between atoms: N6_19  and  C13_20 
ROOT
HETATM    1  C7  UNL     1      22.475   1.860  50.124  1.00  0.00    -0.023 A 
HETATM    2  C8  UNL     1      21.307   1.144  50.199  1.00  0.00     0.012 A 
HETATM    3  C9  UNL     1      21.176   0.262  51.272  1.00  0.00     0.033 A 
HETATM    4  C10 UNL     1      22.215   0.157  52.195  1.00  0.00     0.072 A 
HETATM    5  N4  UNL     1      22.005  -0.689  53.187  1.00  0.00    -0.241 NA
HETATM    6  C11 UNL     1      22.961  -0.846  54.144  1.00  0.00     0.236 A 
HETATM    7  N5  UNL     1      24.119  -0.147  54.085  1.00  0.00    -0.224 NA
HETATM    8  C12 UNL     1      24.328   0.711  53.072  1.00  0.00     0.142 A 
HETATM    9  C19 UNL     1      23.383   0.897  52.088  1.00  0.00     0.039 A 
HETATM   10  C20 UNL     1      23.532   1.773  51.035  1.00  0.00     0.027 A 
ENDROOT
BRANCH   1  11
HETATM   11  C1  UNL     1      22.587   2.846  48.969  1.00  0.00     0.279 C 
BRANCH  11  12
HETATM   12  N1  UNL     1      22.238   2.133  47.811  1.00  0.00     0.089 N 
HETATM   13  H1  UNL     1      22.466   1.094  47.848  1.00  0.00     0.313 HD
HETATM   14  H2  UNL     1      22.794   2.451  46.956  1.00  0.00     0.313 HD
ENDBRANCH  11  12
BRANCH  11  15
HETATM   15  C2  UNL     1      21.875   4.071  49.353  1.00  0.00     0.315 C 
BRANCH  15  16
HETATM   16  N2  UNL     1      22.528   5.316  49.445  1.00  0.00     0.128 N 
HETATM   17  C3  UNL     1      23.777   5.265  48.646  1.00  0.00     0.301 C 
HETATM   18  C4  UNL     1      24.721   6.369  48.966  1.00  0.00     0.198 C 
HETATM   19  O1  UNL     1      25.174   6.297  50.294  1.00  0.00    -0.385 OA
HETATM   20  C5  UNL     1      24.350   5.420  51.009  1.00  0.00     0.235 C 
HETATM   21  C6  UNL     1      22.912   5.813  50.714  1.00  0.00     0.474 C 
BRANCH  21  22
HETATM   22  N3  UNL     1      22.125   5.502  51.851  1.00  0.00     0.114 N 
HETATM   23  H13 UNL     1      22.314   4.507  52.155  1.00  0.00     0.315 HD
HETATM   24  H14 UNL     1      21.086   5.634  51.681  1.00  0.00     0.315 HD
ENDBRANCH  21  22
ENDBRANCH  15  16
ENDBRANCH  11  15
ENDBRANCH   1  11
BRANCH   8  25
HETATM   25  N6  UNL     1      25.546   1.429  53.022  1.00  0.00    -0.340 N 
HETATM   26  H18 UNL     1      25.696   2.438  52.820  1.00  0.00     0.167 HD
BRANCH  25  27
HETATM   27  C13 UNL     1      26.850   0.923  53.233  1.00  0.00     0.035 A 
HETATM   28  C14 UNL     1      27.952   1.676  53.666  1.00  0.00     0.032 A 
HETATM   29  C15 UNL     1      29.172   1.038  53.852  1.00  0.00     0.046 A 
HETATM   30  C16 UNL     1      29.381  -0.294  53.638  1.00  0.00     0.138 A 
HETATM   31  F1  UNL     1      30.567  -0.915  53.819  1.00  0.00    -0.204 F 
HETATM   32  C17 UNL     1      28.340  -1.073  53.214  1.00  0.00     0.074 A 
HETATM   33 CL1  UNL     1      28.463  -2.793  52.910  1.00  0.00    -0.081 Cl
HETATM   34  C18 UNL     1      27.111  -0.436  53.028  1.00  0.00     0.056 A 
ENDBRANCH  25  27
ENDBRANCH   8  25
TORSDOF 7
ENDMDL
MODEL 6
REMARK VINA RESULT:      -8.3      3.078      5.476
REMARK  7 active torsions:
REMARK  status: ('A' for Active; 'I' for Inactive)
REMARK    1  A    between atoms: N1_1  and  C1_2 
REMARK    2  A    between atoms: C1_2  and  C2_3 
REMARK    3  A    between atoms: C1_2  and  C7_11 
REMARK    4  A    between atoms: C2_3  and  N2_4 
REMARK    5  A    between atoms: C6_9  and  N3_10 
REMARK    6  A    between atoms: C12_18  and  N6_19 
REMARK    7  A    between atoms: N6_19  and  C13_20 
ROOT
HETATM    1  C7  UNL     1      24.886   3.489  49.800  1.00  0.00    -0.023 A 
HETATM    2  C8  UNL     1      24.805   4.794  49.384  1.00  0.00     0.012 A 
HETATM    3  C9  UNL     1      23.547   5.255  48.995  1.00  0.00     0.033 A 
HETATM    4  C10 UNL     1      22.460   4.386  49.047  1.00  0.00     0.072 A 
HETATM    5  N4  UNL     1      21.303   4.905  48.675  1.00  0.00    -0.241 NA
HETATM    6  C11 UNL     1      20.183   4.131  48.707  1.00  0.00     0.236 A 
HETATM    7  N5  UNL     1      20.246   2.841  49.115  1.00  0.00    -0.224 NA
HETATM    8  C12 UNL     1      21.425   2.318  49.491  1.00  0.00     0.142 A 
HETATM    9  C19 UNL     1      22.577   3.071  49.472  1.00  0.00     0.039 A 
HETATM   10  C20 UNL     1      23.811   2.597  49.861  1.00  0.00     0.027 A 
ENDROOT
BRANCH   1  11
HETATM   11  C1  UNL     1      26.257   3.013  50.258  1.00  0.00     0.279 C 
BRANCH  11  12
HETATM   12  N1  UNL     1      27.113   4.121  50.148  1.00  0.00     0.089 N 
HETATM   13  H1  UNL     1      27.651   4.353  51.037  1.00  0.00     0.313 HD
HETATM   14  H2  UNL     1      26.580   5.029  49.968  1.00  0.00     0.313 HD
ENDBRANCH  11  12
BRANCH  11  15
HETATM   15  C2  UNL     1      26.085   2.307  51.533  1.00  0.00     0.315 C 
BRANCH  15  16
HETATM   16  N2  UNL     1      27.010   1.344  51.984  1.00  0.00     0.128 N 
HETATM   17  C3  UNL     1      26.351   0.015  52.002  1.00  0.00     0.301 C 
HETATM   18  C4  UNL     1      27.094  -0.996  52.801  1.00  0.00     0.198 C 
HETATM   19  O1  UNL     1      27.159  -0.640  54.158  1.00  0.00    -0.385 OA
HETATM   20  C5  UNL     1      26.806   0.709  54.293  1.00  0.00     0.235 C 
HETATM   21  C6  UNL     1      27.604   1.487  53.261  1.00  0.00     0.474 C 
BRANCH  21  22
HETATM   22  N3  UNL     1      27.846   2.786  53.774  1.00  0.00     0.114 N 
HETATM   23  H13 UNL     1      28.021   2.732  54.816  1.00  0.00     0.315 HD
HETATM   24  H14 UNL     1      27.051   3.461  53.580  1.00  0.00     0.315 HD
ENDBRANCH  21  22
ENDBRANCH  15  16
ENDBRANCH  11  15
ENDBRANCH   1  11
BRANCH   8  25
HETATM   25  N6  UNL     1      21.474   0.967  49.907  1.00  0.00    -0.340 N 
HETATM   26  H18 UNL     1      21.709   0.124  49.345  1.00  0.00     0.167 HD
BRANCH  25  27
HETATM   27  C13 UNL     1      21.206   0.456  51.198  1.00  0.00     0.035 A 
HETATM   28  C14 UNL     1      19.928   0.228  51.731  1.00  0.00     0.032 A 
HETATM   29  C15 UNL     1      19.818  -0.300  53.012  1.00  0.00     0.046 A 
HETATM   30  C16 UNL     1      20.882  -0.618  53.805  1.00  0.00     0.138 A 
HETATM   31  F1  UNL     1      20.775  -1.131  55.050  1.00  0.00    -0.204 F 
HETATM   32  C17 UNL     1      22.150  -0.413  53.333  1.00  0.00     0.074 A 
HETATM   33 CL1  UNL     1      23.602  -0.782  54.238  1.00  0.00    -0.081 Cl
HETATM   34  C18 UNL     1      22.265   0.116  52.046  1.00  0.00     0.056 A 
ENDBRANCH  25  27
ENDBRANCH   8  25
TORSDOF 7
ENDMDL
MODEL 7
REMARK VINA RESULT:      -8.2      4.172      7.080
REMARK  7 active torsions:
REMARK  status: ('A' for Active; 'I' for Inactive)
REMARK    1  A    between atoms: N1_1  and  C1_2 
REMARK    2  A    between atoms: C1_2  and  C2_3 
REMARK    3  A    between atoms: C1_2  and  C7_11 
REMARK    4  A    between atoms: C2_3  and  N2_4 
REMARK    5  A    between atoms: C6_9  and  N3_10 
REMARK    6  A    between atoms: C12_18  and  N6_19 
REMARK    7  A    between atoms: N6_19  and  C13_20 
ROOT
HETATM    1  C7  UNL     1      24.007   5.649  50.072  1.00  0.00    -0.023 A 
HETATM    2  C8  UNL     1      23.545   5.654  48.780  1.00  0.00     0.012 A 
HETATM    3  C9  UNL     1      22.908   4.496  48.333  1.00  0.00     0.033 A 
HETATM    4  C10 UNL     1      22.774   3.416  49.204  1.00  0.00     0.072 A 
HETATM    5  N4  UNL     1      22.147   2.365  48.707  1.00  0.00    -0.241 NA
HETATM    6  C11 UNL     1      21.959   1.267  49.491  1.00  0.00     0.236 A 
HETATM    7  N5  UNL     1      22.410   1.246  50.769  1.00  0.00    -0.224 NA
HETATM    8  C12 UNL     1      23.048   2.317  51.267  1.00  0.00     0.142 A 
HETATM    9  C19 UNL     1      23.255   3.445  50.504  1.00  0.00     0.039 A 
HETATM   10  C20 UNL     1      23.887   4.579  50.964  1.00  0.00     0.027 A 
ENDROOT
BRANCH   1  11
HETATM   11  C1  UNL     1      24.666   6.933  50.556  1.00  0.00     0.279 C 
BRANCH  11  12
HETATM   12  N1  UNL     1      24.524   6.943  51.953  1.00  0.00     0.089 N 
HETATM   13  H1  UNL     1      24.481   7.915  52.384  1.00  0.00     0.313 HD
HETATM   14  H2  UNL     1      25.368   6.518  52.448  1.00  0.00     0.313 HD
ENDBRANCH  11  12
BRANCH  11  15
HETATM   15  C2  UNL     1      25.987   7.028  49.923  1.00  0.00     0.315 C 
BRANCH  15  16
HETATM   16  N2  UNL     1      26.347   8.118  49.106  1.00  0.00     0.128 N 
HETATM   17  C3  UNL     1      26.767   7.607  47.778  1.00  0.00     0.301 C 
HETATM   18  C4  UNL     1      27.513   8.612  46.974  1.00  0.00     0.198 C 
HETATM   19  O1  UNL     1      28.723   8.973  47.588  1.00  0.00    -0.385 OA
HETATM   20  C5  UNL     1      28.706   8.542  48.920  1.00  0.00     0.235 C 
HETATM   21  C6  UNL     1      27.383   8.990  49.519  1.00  0.00     0.474 C 
BRANCH  21  22
HETATM   22  N3  UNL     1      27.581   9.230  50.902  1.00  0.00     0.114 N 
HETATM   23  H13 UNL     1      27.815   8.323  51.392  1.00  0.00     0.315 HD
HETATM   24  H14 UNL     1      26.742   9.682  51.366  1.00  0.00     0.315 HD
ENDBRANCH  21  22
ENDBRANCH  15  16
ENDBRANCH  11  15
ENDBRANCH   1  11
BRANCH   8  25
HETATM   25  N6  UNL     1      23.519   2.276  52.602  1.00  0.00    -0.340 N 
HETATM   26  H18 UNL     1      23.141   2.767  53.437  1.00  0.00     0.167 HD
BRANCH  25  27
HETATM   27  C13 UNL     1      24.626   1.550  53.099  1.00  0.00     0.035 A 
HETATM   28  C14 UNL     1      24.598   0.208  53.508  1.00  0.00     0.032 A 
HETATM   29  C15 UNL     1      25.772  -0.383  53.957  1.00  0.00     0.046 A 
HETATM   30  C16 UNL     1      26.974   0.259  54.031  1.00  0.00     0.138 A 
HETATM   31  F1  UNL     1      28.117  -0.315  54.467  1.00  0.00    -0.204 F 
HETATM   32  C17 UNL     1      27.056   1.569  53.646  1.00  0.00     0.074 A 
HETATM   33 CL1  UNL     1      28.531   2.511  53.681  1.00  0.00    -0.081 Cl
HETATM   34  C18 UNL     1      25.877   2.167  53.192  1.00  0.00     0.056 A 
ENDBRANCH  25  27
ENDBRANCH   8  25
TORSDOF 7
ENDMDL
MODEL 8
REMARK VINA RESULT:      -8.1      1.966      2.707
REMARK  7 active torsions:
REMARK  status: ('A' for Active; 'I' for Inactive)
REMARK    1  A    between atoms: N1_1  and  C1_2 
REMARK    2  A    between atoms: C1_2  and  C2_3 
REMARK    3  A    between atoms: C1_2  and  C7_11 
REMARK    4  A    between atoms: C2_3  and  N2_4 
REMARK    5  A    between atoms: C6_9  and  N3_10 
REMARK    6  A    between atoms: C12_18  and  N6_19 
REMARK    7  A    between atoms: N6_19  and  C13_20 
ROOT
HETATM    1  C7  UNL     1      23.103   1.135  53.015  1.00  0.00    -0.023 A 
HETATM    2  C8  UNL     1      22.015   0.354  52.717  1.00  0.00     0.012 A 
HETATM    3  C9  UNL     1      20.926   0.989  52.122  1.00  0.00     0.033 A 
HETATM    4  C10 UNL     1      20.997   2.356  51.863  1.00  0.00     0.072 A 
HETATM    5  N4  UNL     1      19.929   2.878  51.285  1.00  0.00    -0.241 NA
HETATM    6  C11 UNL     1      19.915   4.206  50.982  1.00  0.00     0.236 A 
HETATM    7  N5  UNL     1      20.981   4.991  51.269  1.00  0.00    -0.224 NA
HETATM    8  C12 UNL     1      22.063   4.455  51.858  1.00  0.00     0.142 A 
HETATM    9  C19 UNL     1      22.113   3.117  52.177  1.00  0.00     0.039 A 
HETATM   10  C20 UNL     1      23.199   2.508  52.766  1.00  0.00     0.027 A 
ENDROOT
BRANCH   1  11
HETATM   11  C1  UNL     1      24.298   0.419  53.629  1.00  0.00     0.279 C 
BRANCH  11  12
HETATM   12  N1  UNL     1      24.350  -0.847  53.023  1.00  0.00     0.089 N 
HETATM   13  H1  UNL     1      23.810  -0.920  52.108  1.00  0.00     0.313 HD
HETATM   14  H2  UNL     1      23.882  -1.600  53.617  1.00  0.00     0.313 HD
ENDBRANCH  11  12
BRANCH  11  15
HETATM   15  C2  UNL     1      25.444   1.334  53.581  1.00  0.00     0.315 C 
BRANCH  15  16
HETATM   16  N2  UNL     1      26.749   0.883  53.301  1.00  0.00     0.128 N 
HETATM   17  C3  UNL     1      27.379   0.418  54.562  1.00  0.00     0.301 C 
HETATM   18  C4  UNL     1      28.856   0.275  54.459  1.00  0.00     0.198 C 
HETATM   19  O1  UNL     1      29.481   1.508  54.211  1.00  0.00    -0.385 OA
HETATM   20  C5  UNL     1      28.515   2.435  53.801  1.00  0.00     0.235 C 
HETATM   21  C6  UNL     1      27.686   1.768  52.716  1.00  0.00     0.474 C 
BRANCH  21  22
HETATM   22  N3  UNL     1      27.232   2.772  51.824  1.00  0.00     0.114 N 
HETATM   23  H13 UNL     1      27.213   2.392  50.838  1.00  0.00     0.315 HD
HETATM   24  H14 UNL     1      27.824   3.651  51.857  1.00  0.00     0.315 HD
ENDBRANCH  21  22
ENDBRANCH  15  16
ENDBRANCH  11  15
ENDBRANCH   1  11
BRANCH   8  25
HETATM   25  N6  UNL     1      23.165   5.291  52.157  1.00  0.00    -0.340 N 
HETATM   26  H18 UNL     1      23.555   5.540  53.088  1.00  0.00     0.167 HD
BRANCH  25  27
HETATM   27  C13 UNL     1      23.988   5.987  51.242  1.00  0.00     0.035 A 
HETATM   28  C14 UNL     1      23.936   7.367  50.991  1.00  0.00     0.032 A 
HETATM   29  C15 UNL     1      24.824   7.918  50.075  1.00  0.00     0.046 A 
HETATM   30  C16 UNL     1      25.761   7.202  49.389  1.00  0.00     0.138 A 
HETATM   31  F1  UNL     1      26.626   7.737  48.500  1.00  0.00    -0.204 F 
HETATM   32  C17 UNL     1      25.854   5.853  49.597  1.00  0.00     0.074 A 
HETATM   33 CL1  UNL     1      27.012   4.815  48.793  1.00  0.00    -0.081 Cl
HETATM   34  C18 UNL     1      24.963   5.295  50.517  1.00  0.00     0.056 A 
ENDBRANCH  25  27
ENDBRANCH   8  25
TORSDOF 7
ENDMDL
MODEL 9
REMARK VINA RESULT:      -7.9      2.062      2.884
REMARK  7 active torsions:
REMARK  status: ('A' for Active; 'I' for Inactive)
REMARK    1  A    between atoms: N1_1  and  C1_2 
REMARK    2  A    between atoms: C1_2  and  C2_3 
REMARK    3  A    between atoms: C1_2  and  C7_11 
REMARK    4  A    between atoms: C2_3  and  N2_4 
REMARK    5  A    between atoms: C6_9  and  N3_10 
REMARK    6  A    between atoms: C12_18  and  N6_19 
REMARK    7  A    between atoms: N6_19  and  C13_20 
ROOT
HETATM    1  C7  UNL     1      23.105   0.788  52.228  1.00  0.00    -0.023 A 
HETATM    2  C8  UNL     1      21.907   0.121  52.195  1.00  0.00     0.012 A 
HETATM    3  C9  UNL     1      21.092   0.341  51.084  1.00  0.00     0.033 A 
HETATM    4  C10 UNL     1      21.529   1.208  50.084  1.00  0.00     0.072 A 
HETATM    5  N4  UNL     1      20.705   1.350  49.061  1.00  0.00    -0.241 NA
HETATM    6  C11 UNL     1      21.055   2.167  48.030  1.00  0.00     0.236 A 
HETATM    7  N5  UNL     1      22.235   2.833  48.046  1.00  0.00    -0.224 NA
HETATM    8  C12 UNL     1      23.068   2.685  49.090  1.00  0.00     0.142 A 
HETATM    9  C19 UNL     1      22.747   1.867  50.149  1.00  0.00     0.039 A 
HETATM   10  C20 UNL     1      23.566   1.663  51.238  1.00  0.00     0.027 A 
ENDROOT
BRANCH   1  11
HETATM   11  C1  UNL     1      23.999   0.507  53.428  1.00  0.00     0.279 C 
BRANCH  11  12
HETATM   12  N1  UNL     1      24.170  -0.886  53.471  1.00  0.00     0.089 N 
HETATM   13  H1  UNL     1      23.776  -1.405  52.629  1.00  0.00     0.313 HD
HETATM   14  H2  UNL     1      23.634  -1.335  54.278  1.00  0.00     0.313 HD
ENDBRANCH  11  12
BRANCH  11  15
HETATM   15  C2  UNL     1      25.151   1.414  53.352  1.00  0.00     0.315 C 
BRANCH  15  16
HETATM   16  N2  UNL     1      26.471   0.936  53.232  1.00  0.00     0.128 N 
HETATM   17  C3  UNL     1      26.961   0.531  54.572  1.00  0.00     0.301 C 
HETATM   18  C4  UNL     1      28.438   0.368  54.631  1.00  0.00     0.198 C 
HETATM   19  O1  UNL     1      29.104   1.580  54.387  1.00  0.00    -0.385 OA
HETATM   20  C5  UNL     1      28.199   2.494  53.833  1.00  0.00     0.235 C 
HETATM   21  C6  UNL     1      27.476   1.781  52.703  1.00  0.00     0.474 C 
BRANCH  21  22
HETATM   22  N3  UNL     1      27.131   2.742  51.720  1.00  0.00     0.114 N 
HETATM   23  H13 UNL     1      27.829   2.707  50.926  1.00  0.00     0.315 HD
HETATM   24  H14 UNL     1      27.079   3.727  52.107  1.00  0.00     0.315 HD
ENDBRANCH  21  22
ENDBRANCH  15  16
ENDBRANCH  11  15
ENDBRANCH   1  11
BRANCH   8  25
HETATM   25  N6  UNL     1      24.293   3.394  49.095  1.00  0.00    -0.340 N 
HETATM   26  H18 UNL     1      25.240   3.053  48.830  1.00  0.00     0.167 HD
BRANCH  25  27
HETATM   27  C13 UNL     1      24.505   4.740  49.471  1.00  0.00     0.035 A 
HETATM   28  C14 UNL     1      25.747   5.392  49.486  1.00  0.00     0.032 A 
HETATM   29  C15 UNL     1      25.801   6.730  49.859  1.00  0.00     0.046 A 
HETATM   30  C16 UNL     1      24.712   7.469  50.219  1.00  0.00     0.138 A 
HETATM   31  F1  UNL     1      24.763   8.770  50.582  1.00  0.00    -0.204 F 
HETATM   32  C17 UNL     1      23.477   6.881  50.222  1.00  0.00     0.074 A 
HETATM   33 CL1  UNL     1      21.997   7.711  50.653  1.00  0.00    -0.081 Cl
HETATM   34  C18 UNL     1      23.419   5.537  49.846  1.00  0.00     0.056 A 
ENDBRANCH  25  27
ENDBRANCH   8  25
TORSDOF 7
ENDMDL
