MODEL 1
REMARK VINA RESULT:      -8.0      0.000      0.000
REMARK  4 active torsions:
REMARK  status: ('A' for Active; 'I' for Inactive)
REMARK    1  A    between atoms: N1_1  and  N2_2 
REMARK    2  A    between atoms: N2_2  and  C1_3 
REMARK    3  A    between atoms: N2_2  and  C8_15 
REMARK    4  A    between atoms: C8_15  and  C9_16 
ROOT
HETATM    1  C1  UNL     1      24.461   3.173  52.163  1.00  0.00     0.114 C 
HETATM    2  C2  UNL     1      25.287   2.347  52.847  1.00  0.00    -0.005 C 
HETATM    3  C3  UNL     1      26.209   1.862  53.852  1.00  0.00     0.021 C 
HETATM    4  C4  UNL     1      26.657   0.666  53.658  1.00  0.00     0.257 A 
HETATM    5  C5  UNL     1      26.381  -0.200  52.539  1.00  0.00     0.213 A 
HETATM    6  C6  UNL     1      26.902  -1.440  52.680  1.00  0.00     0.211 A 
HETATM    7  N3  UNL     1      27.239  -0.771  53.910  1.00  0.00     0.045 N 
HETATM    8  N4  UNL     1      25.829  -0.893  54.393  1.00  0.00    -0.047 NA
HETATM    9  S1  UNL     1      24.649  -0.153  53.670  1.00  0.00     0.028 SA
HETATM   10  N5  UNL     1      22.978   0.288  53.457  1.00  0.00    -0.116 NA
HETATM   11  N6  UNL     1      23.151   1.114  52.549  1.00  0.00    -0.163 NA
HETATM   12  C7  UNL     1      24.612   1.079  52.358  1.00  0.00     0.252 A 
HETATM   13  H8  UNL     1      28.265  -0.474  54.032  1.00  0.00     0.312 HD
ENDROOT
BRANCH   1  14
HETATM   14  N2  UNL     1      23.606   3.275  51.032  1.00  0.00    -0.321 N 
BRANCH  14  15
HETATM   15  N1  UNL     1      22.284   3.631  51.397  1.00  0.00    -0.248 NA
HETATM   16  H1  UNL     1      21.889   2.773  51.845  1.00  0.00     0.143 HD
HETATM   17  H2  UNL     1      22.287   4.378  52.128  1.00  0.00     0.143 HD
ENDBRANCH  14  15
BRANCH  14  18
HETATM   18  C8  UNL     1      24.264   3.000  49.796  1.00  0.00     0.180 C 
BRANCH  18  19
HETATM   19  C9  UNL     1      25.316   3.942  49.397  1.00  0.00    -0.039 A 
HETATM   20  C10 UNL     1      24.899   5.229  49.033  1.00  0.00     0.009 A 
HETATM   21  C11 UNL     1      25.744   6.247  48.633  1.00  0.00     0.001 A 
HETATM   22  C12 UNL     1      27.098   5.996  48.583  1.00  0.00     0.000 A 
HETATM   23  C13 UNL     1      27.542   4.733  48.936  1.00  0.00     0.001 A 
HETATM   24  C14 UNL     1      26.670   3.734  49.333  1.00  0.00     0.009 A 
ENDBRANCH  18  19
ENDBRANCH  14  18
ENDBRANCH   1  14
TORSDOF 4
ENDMDL
MODEL 2
REMARK VINA RESULT:      -7.1      2.440      6.437
REMARK  4 active torsions:
REMARK  status: ('A' for Active; 'I' for Inactive)
REMARK    1  A    between atoms: N1_1  and  N2_2 
REMARK    2  A    between atoms: N2_2  and  C1_3 
REMARK    3  A    between atoms: N2_2  and  C8_15 
REMARK    4  A    between atoms: C8_15  and  C9_16 
ROOT
HETATM    1  C1  UNL     1      26.556   2.230  51.360  1.00  0.00     0.114 C 
HETATM    2  C2  UNL     1      26.413   3.250  50.482  1.00  0.00    -0.005 C 
HETATM    3  C3  UNL     1      26.600   4.081  49.311  1.00  0.00     0.021 C 
HETATM    4  C4  UNL     1      25.929   5.185  49.307  1.00  0.00     0.257 A 
HETATM    5  C5  UNL     1      25.070   5.690  50.349  1.00  0.00     0.213 A 
HETATM    6  C6  UNL     1      24.410   6.819  50.000  1.00  0.00     0.211 A 
HETATM    7  N3  UNL     1      25.151   6.460  48.817  1.00  0.00     0.045 N 
HETATM    8  N4  UNL     1      24.193   5.350  48.522  1.00  0.00    -0.047 NA
HETATM    9  S1  UNL     1      24.050   4.115  49.478  1.00  0.00     0.028 SA
HETATM   10  N5  UNL     1      23.373   2.585  49.966  1.00  0.00    -0.116 NA
HETATM   11  N6  UNL     1      24.128   2.383  50.929  1.00  0.00    -0.163 NA
HETATM   12  C7  UNL     1      24.995   3.575  50.913  1.00  0.00     0.252 A 
HETATM   13  H8  UNL     1      26.015   7.057  48.591  1.00  0.00     0.312 HD
ENDROOT
BRANCH   1  14
HETATM   14  N2  UNL     1      26.107   1.704  52.601  1.00  0.00    -0.321 N 
BRANCH  14  15
HETATM   15  N1  UNL     1      25.894   2.722  53.565  1.00  0.00    -0.248 NA
HETATM   16  H1  UNL     1      24.893   2.999  53.444  1.00  0.00     0.143 HD
HETATM   17  H2  UNL     1      25.987   2.343  54.535  1.00  0.00     0.143 HD
ENDBRANCH  14  15
BRANCH  14  18
HETATM   18  C8  UNL     1      25.969   0.283  52.600  1.00  0.00     0.180 C 
BRANCH  18  19
HETATM   19  C9  UNL     1      27.184  -0.488  52.886  1.00  0.00    -0.039 A 
HETATM   20  C10 UNL     1      27.128  -1.864  52.632  1.00  0.00     0.009 A 
HETATM   21  C11 UNL     1      28.171  -2.746  52.837  1.00  0.00     0.001 A 
HETATM   22  C12 UNL     1      29.362  -2.256  53.327  1.00  0.00     0.000 A 
HETATM   23  C13 UNL     1      29.450  -0.898  53.589  1.00  0.00     0.001 A 
HETATM   24  C14 UNL     1      28.386  -0.040  53.372  1.00  0.00     0.009 A 
ENDBRANCH  18  19
ENDBRANCH  14  18
ENDBRANCH   1  14
TORSDOF 4
ENDMDL
MODEL 3
REMARK VINA RESULT:      -7.0      1.584      2.283
REMARK  4 active torsions:
REMARK  status: ('A' for Active; 'I' for Inactive)
REMARK    1  A    between atoms: N1_1  and  N2_2 
REMARK    2  A    between atoms: N2_2  and  C1_3 
REMARK    3  A    between atoms: N2_2  and  C8_15 
REMARK    4  A    between atoms: C8_15  and  C9_16 
ROOT
HETATM    1  C1  UNL     1      24.382   3.103  52.615  1.00  0.00     0.114 C 
HETATM    2  C2  UNL     1      25.225   2.228  53.210  1.00  0.00    -0.005 C 
HETATM    3  C3  UNL     1      26.148   1.656  54.167  1.00  0.00     0.021 C 
HETATM    4  C4  UNL     1      26.641   0.508  53.839  1.00  0.00     0.257 A 
HETATM    5  C5  UNL     1      26.411  -0.226  52.619  1.00  0.00     0.213 A 
HETATM    6  C6  UNL     1      26.973  -1.457  52.620  1.00  0.00     0.211 A 
HETATM    7  N3  UNL     1      27.268  -0.930  53.928  1.00  0.00     0.045 N 
HETATM    8  N4  UNL     1      25.856  -1.155  54.366  1.00  0.00    -0.047 NA
HETATM    9  S1  UNL     1      24.662  -0.373  53.716  1.00  0.00     0.028 SA
HETATM   10  N5  UNL     1      22.980   0.037  53.526  1.00  0.00    -0.116 NA
HETATM   11  N6  UNL     1      23.138   0.971  52.727  1.00  0.00    -0.163 NA
HETATM   12  C7  UNL     1      24.602   1.007  52.560  1.00  0.00     0.252 A 
HETATM   13  H8  UNL     1      28.281  -0.617  54.103  1.00  0.00     0.312 HD
ENDROOT
BRANCH   1  14
HETATM   14  N2  UNL     1      23.540   3.312  51.489  1.00  0.00    -0.321 N 
BRANCH  14  15
HETATM   15  N1  UNL     1      22.195   3.552  51.867  1.00  0.00    -0.248 NA
HETATM   16  H1  UNL     1      22.225   3.656  52.908  1.00  0.00     0.143 HD
HETATM   17  H2  UNL     1      21.856   4.464  51.484  1.00  0.00     0.143 HD
ENDBRANCH  14  15
BRANCH  14  18
HETATM   18  C8  UNL     1      24.230   3.238  50.242  1.00  0.00     0.180 C 
BRANCH  18  19
HETATM   19  C9  UNL     1      23.419   3.446  49.037  1.00  0.00    -0.039 A 
HETATM   20  C10 UNL     1      23.321   4.763  48.568  1.00  0.00     0.009 A 
HETATM   21  C11 UNL     1      22.606   5.149  47.450  1.00  0.00     0.001 A 
HETATM   22  C12 UNL     1      21.935   4.184  46.732  1.00  0.00     0.000 A 
HETATM   23  C13 UNL     1      22.013   2.872  47.170  1.00  0.00     0.001 A 
HETATM   24  C14 UNL     1      22.738   2.517  48.294  1.00  0.00     0.009 A 
ENDBRANCH  18  19
ENDBRANCH  14  18
ENDBRANCH   1  14
TORSDOF 4
ENDMDL
MODEL 4
REMARK VINA RESULT:      -7.0      3.063      5.875
REMARK  4 active torsions:
REMARK  status: ('A' for Active; 'I' for Inactive)
REMARK    1  A    between atoms: N1_1  and  N2_2 
REMARK    2  A    between atoms: N2_2  and  C1_3 
REMARK    3  A    between atoms: N2_2  and  C8_15 
REMARK    4  A    between atoms: C8_15  and  C9_16 
ROOT
HETATM    1  C1  UNL     1      23.836   1.573  52.375  1.00  0.00     0.114 C 
HETATM    2  C2  UNL     1      22.858   1.377  51.460  1.00  0.00    -0.005 C 
HETATM    3  C3  UNL     1      21.649   0.879  50.838  1.00  0.00     0.021 C 
HETATM    4  C4  UNL     1      21.462   1.258  49.617  1.00  0.00     0.257 A 
HETATM    5  C5  UNL     1      22.339   2.066  48.808  1.00  0.00     0.213 A 
HETATM    6  C6  UNL     1      21.811   2.394  47.607  1.00  0.00     0.211 A 
HETATM    7  N3  UNL     1      20.766   1.650  48.264  1.00  0.00     0.045 N 
HETATM    8  N4  UNL     1      20.457   2.816  49.149  1.00  0.00    -0.047 NA
HETATM    9  S1  UNL     1      21.495   3.348  50.197  1.00  0.00     0.028 SA
HETATM   10  N5  UNL     1      22.033   4.421  51.460  1.00  0.00    -0.116 NA
HETATM   11  N6  UNL     1      23.096   3.837  51.716  1.00  0.00    -0.163 NA
HETATM   12  C7  UNL     1      23.079   2.709  50.767  1.00  0.00     0.252 A 
HETATM   13  H8  UNL     1      20.595   0.649  47.913  1.00  0.00     0.312 HD
ENDROOT
BRANCH   1  14
HETATM   14  N2  UNL     1      25.055   2.257  52.633  1.00  0.00    -0.321 N 
BRANCH  14  15
HETATM   15  N1  UNL     1      24.917   3.217  53.667  1.00  0.00    -0.248 NA
HETATM   16  H1  UNL     1      25.575   3.987  53.405  1.00  0.00     0.143 HD
HETATM   17  H2  UNL     1      23.956   3.629  53.667  1.00  0.00     0.143 HD
ENDBRANCH  14  15
BRANCH  14  18
HETATM   18  C8  UNL     1      26.135   1.826  51.805  1.00  0.00     0.180 C 
BRANCH  18  19
HETATM   19  C9  UNL     1      27.055   0.846  52.393  1.00  0.00    -0.039 A 
HETATM   20  C10 UNL     1      28.172   1.361  53.063  1.00  0.00     0.009 A 
HETATM   21  C11 UNL     1      29.142   0.594  53.681  1.00  0.00     0.001 A 
HETATM   22  C12 UNL     1      29.018  -0.777  53.645  1.00  0.00     0.000 A 
HETATM   23  C13 UNL     1      27.923  -1.318  52.989  1.00  0.00     0.001 A 
HETATM   24  C14 UNL     1      26.969  -0.522  52.381  1.00  0.00     0.009 A 
ENDBRANCH  18  19
ENDBRANCH  14  18
ENDBRANCH   1  14
TORSDOF 4
ENDMDL
MODEL 5
REMARK VINA RESULT:      -6.9      4.089      6.888
REMARK  4 active torsions:
REMARK  status: ('A' for Active; 'I' for Inactive)
REMARK    1  A    between atoms: N1_1  and  N2_2 
REMARK    2  A    between atoms: N2_2  and  C1_3 
REMARK    3  A    between atoms: N2_2  and  C8_15 
REMARK    4  A    between atoms: C8_15  and  C9_16 
ROOT
HETATM    1  C1  UNL     1      19.886  -0.243  52.945  1.00  0.00     0.114 C 
HETATM    2  C2  UNL     1      19.363   0.220  51.787  1.00  0.00    -0.005 C 
HETATM    3  C3  UNL     1      18.420   0.471  50.718  1.00  0.00     0.021 C 
HETATM    4  C4  UNL     1      18.891   1.130  49.711  1.00  0.00     0.257 A 
HETATM    5  C5  UNL     1      20.245   1.588  49.521  1.00  0.00     0.213 A 
HETATM    6  C6  UNL     1      20.402   2.356  48.419  1.00  0.00     0.211 A 
HETATM    7  N3  UNL     1      18.992   2.061  48.449  1.00  0.00     0.045 N 
HETATM    8  N4  UNL     1      18.786   3.034  49.566  1.00  0.00    -0.047 NA
HETATM    9  S1  UNL     1      19.426   2.806  50.980  1.00  0.00     0.028 SA
HETATM   10  N5  UNL     1      19.747   3.233  52.638  1.00  0.00    -0.116 NA
HETATM   11  N6  UNL     1      20.332   2.187  52.956  1.00  0.00    -0.163 NA
HETATM   12  C7  UNL     1      20.303   1.410  51.704  1.00  0.00     0.252 A 
HETATM   13  H8  UNL     1      18.635   1.344  47.733  1.00  0.00     0.312 HD
ENDROOT
BRANCH   1  14
HETATM   14  N2  UNL     1      21.052  -0.265  53.759  1.00  0.00    -0.321 N 
BRANCH  14  15
HETATM   15  N1  UNL     1      20.801   0.241  55.060  1.00  0.00    -0.248 NA
HETATM   16  H1  UNL     1      21.712   0.653  55.366  1.00  0.00     0.143 HD
HETATM   17  H2  UNL     1      20.111   1.026  55.028  1.00  0.00     0.143 HD
ENDBRANCH  14  15
BRANCH  14  18
HETATM   18  C8  UNL     1      22.201  -0.788  53.093  1.00  0.00     0.180 C 
BRANCH  18  19
HETATM   19  C9  UNL     1      23.455  -0.051  53.287  1.00  0.00    -0.039 A 
HETATM   20  C10 UNL     1      24.427  -0.668  54.086  1.00  0.00     0.009 A 
HETATM   21  C11 UNL     1      25.666  -0.129  54.376  1.00  0.00     0.001 A 
HETATM   22  C12 UNL     1      25.986   1.103  53.852  1.00  0.00     0.000 A 
HETATM   23  C13 UNL     1      25.046   1.740  53.057  1.00  0.00     0.001 A 
HETATM   24  C14 UNL     1      23.814   1.173  52.785  1.00  0.00     0.009 A 
ENDBRANCH  18  19
ENDBRANCH  14  18
ENDBRANCH   1  14
TORSDOF 4
ENDMDL
MODEL 6
REMARK VINA RESULT:      -6.9      2.748      6.551
REMARK  4 active torsions:
REMARK  status: ('A' for Active; 'I' for Inactive)
REMARK    1  A    between atoms: N1_1  and  N2_2 
REMARK    2  A    between atoms: N2_2  and  C1_3 
REMARK    3  A    between atoms: N2_2  and  C8_15 
REMARK    4  A    between atoms: C8_15  and  C9_16 
ROOT
HETATM    1  C1  UNL     1      26.451   2.113  51.364  1.00  0.00     0.114 C 
HETATM    2  C2  UNL     1      26.394   3.143  50.488  1.00  0.00    -0.005 C 
HETATM    3  C3  UNL     1      26.655   3.961  49.323  1.00  0.00     0.021 C 
HETATM    4  C4  UNL     1      26.069   5.112  49.316  1.00  0.00     0.257 A 
HETATM    5  C5  UNL     1      25.240   5.678  50.350  1.00  0.00     0.213 A 
HETATM    6  C6  UNL     1      24.671   6.854  49.999  1.00  0.00     0.211 A 
HETATM    7  N3  UNL     1      25.395   6.443  48.823  1.00  0.00     0.045 N 
HETATM    8  N4  UNL     1      24.359   5.410  48.514  1.00  0.00    -0.047 NA
HETATM    9  S1  UNL     1      24.114   4.186  49.464  1.00  0.00     0.028 SA
HETATM   10  N5  UNL     1      23.319   2.711  49.940  1.00  0.00    -0.116 NA
HETATM   11  N6  UNL     1      24.045   2.450  50.909  1.00  0.00    -0.163 NA
HETATM   12  C7  UNL     1      25.000   3.573  50.906  1.00  0.00     0.252 A 
HETATM   13  H8  UNL     1      26.304   6.975  48.607  1.00  0.00     0.312 HD
ENDROOT
BRANCH   1  14
HETATM   14  N2  UNL     1      25.950   1.618  52.599  1.00  0.00    -0.321 N 
BRANCH  14  15
HETATM   15  N1  UNL     1      25.787   2.650  53.558  1.00  0.00    -0.248 NA
HETATM   16  H1  UNL     1      25.929   2.181  54.481  1.00  0.00     0.143 HD
HETATM   17  H2  UNL     1      26.542   3.368  53.465  1.00  0.00     0.143 HD
ENDBRANCH  14  15
BRANCH  14  18
HETATM   18  C8  UNL     1      25.724   0.209  52.598  1.00  0.00     0.180 C 
BRANCH  18  19
HETATM   19  C9  UNL     1      24.685  -0.283  53.509  1.00  0.00    -0.039 A 
HETATM   20  C10 UNL     1      23.358  -0.138  53.084  1.00  0.00     0.009 A 
HETATM   21  C11 UNL     1      22.251  -0.544  53.805  1.00  0.00     0.001 A 
HETATM   22  C12 UNL     1      22.446  -1.136  55.033  1.00  0.00     0.000 A 
HETATM   23  C13 UNL     1      23.748  -1.295  55.482  1.00  0.00     0.001 A 
HETATM   24  C14 UNL     1      24.835  -0.878  54.736  1.00  0.00     0.009 A 
ENDBRANCH  18  19
ENDBRANCH  14  18
ENDBRANCH   1  14
TORSDOF 4
ENDMDL
MODEL 7
REMARK VINA RESULT:      -6.8      6.873      9.155
REMARK  4 active torsions:
REMARK  status: ('A' for Active; 'I' for Inactive)
REMARK    1  A    between atoms: N1_1  and  N2_2 
REMARK    2  A    between atoms: N2_2  and  C1_3 
REMARK    3  A    between atoms: N2_2  and  C8_15 
REMARK    4  A    between atoms: C8_15  and  C9_16 
ROOT
HETATM    1  C1  UNL     1      31.014   8.407  47.687  1.00  0.00     0.114 C 
HETATM    2  C2  UNL     1      32.072   7.816  47.085  1.00  0.00    -0.005 C 
HETATM    3  C3  UNL     1      33.364   7.643  46.453  1.00  0.00     0.021 C 
HETATM    4  C4  UNL     1      33.610   6.450  46.023  1.00  0.00     0.257 A 
HETATM    5  C5  UNL     1      32.732   5.308  46.059  1.00  0.00     0.213 A 
HETATM    6  C6  UNL     1      33.321   4.165  45.640  1.00  0.00     0.211 A 
HETATM    7  N3  UNL     1      34.372   5.149  45.580  1.00  0.00     0.045 N 
HETATM    8  N4  UNL     1      34.512   5.127  47.069  1.00  0.00    -0.047 NA
HETATM    9  S1  UNL     1      33.354   5.615  48.008  1.00  0.00     0.028 SA
HETATM   10  N5  UNL     1      32.632   5.942  49.559  1.00  0.00    -0.116 NA
HETATM   11  N6  UNL     1      31.606   6.496  49.138  1.00  0.00    -0.163 NA
HETATM   12  C7  UNL     1      31.792   6.447  47.676  1.00  0.00     0.252 A 
HETATM   13  H8  UNL     1      34.654   5.492  44.602  1.00  0.00     0.312 HD
ENDROOT
BRANCH   1  14
HETATM   14  N2  UNL     1      29.725   8.179  48.240  1.00  0.00    -0.321 N 
BRANCH  14  15
HETATM   15  N1  UNL     1      29.606   8.712  49.548  1.00  0.00    -0.248 NA
HETATM   16  H1  UNL     1      30.589   8.787  49.896  1.00  0.00     0.143 HD
HETATM   17  H2  UNL     1      29.222   9.685  49.521  1.00  0.00     0.143 HD
ENDBRANCH  14  15
BRANCH  14  18
HETATM   18  C8  UNL     1      28.847   7.473  47.363  1.00  0.00     0.180 C 
BRANCH  18  19
HETATM   19  C9  UNL     1      27.933   6.514  47.994  1.00  0.00    -0.039 A 
HETATM   20  C10 UNL     1      26.616   6.946  48.200  1.00  0.00     0.009 A 
HETATM   21  C11 UNL     1      25.618   6.183  48.775  1.00  0.00     0.001 A 
HETATM   22  C12 UNL     1      25.920   4.902  49.182  1.00  0.00     0.000 A 
HETATM   23  C13 UNL     1      27.214   4.445  48.992  1.00  0.00     0.001 A 
HETATM   24  C14 UNL     1      28.191   5.234  48.412  1.00  0.00     0.009 A 
ENDBRANCH  18  19
ENDBRANCH  14  18
ENDBRANCH   1  14
TORSDOF 4
ENDMDL
MODEL 8
REMARK VINA RESULT:      -6.8      3.206      5.907
REMARK  4 active torsions:
REMARK  status: ('A' for Active; 'I' for Inactive)
REMARK    1  A    between atoms: N1_1  and  N2_2 
REMARK    2  A    between atoms: N2_2  and  C1_3 
REMARK    3  A    between atoms: N2_2  and  C8_15 
REMARK    4  A    between atoms: C8_15  and  C9_16 
ROOT
HETATM    1  C1  UNL     1      24.926   2.880  52.261  1.00  0.00     0.114 C 
HETATM    2  C2  UNL     1      23.581   2.907  52.123  1.00  0.00    -0.005 C 
HETATM    3  C3  UNL     1      22.197   3.295  52.298  1.00  0.00     0.021 C 
HETATM    4  C4  UNL     1      21.337   2.568  51.664  1.00  0.00     0.257 A 
HETATM    5  C5  UNL     1      21.601   1.404  50.857  1.00  0.00     0.213 A 
HETATM    6  C6  UNL     1      20.505   0.929  50.224  1.00  0.00     0.211 A 
HETATM    7  N3  UNL     1      20.037   2.104  50.914  1.00  0.00     0.045 N 
HETATM    8  N4  UNL     1      20.704   2.990  49.910  1.00  0.00    -0.047 NA
HETATM    9  S1  UNL     1      22.264   3.027  49.758  1.00  0.00     0.028 SA
HETATM   10  N5  UNL     1      23.753   3.586  49.048  1.00  0.00    -0.116 NA
HETATM   11  N6  UNL     1      24.523   3.004  49.826  1.00  0.00    -0.163 NA
HETATM   12  C7  UNL     1      23.595   2.302  50.731  1.00  0.00     0.252 A 
HETATM   13  H8  UNL     1      19.435   1.941  51.789  1.00  0.00     0.312 HD
ENDROOT
BRANCH   1  14
HETATM   14  N2  UNL     1      26.118   2.232  51.835  1.00  0.00    -0.321 N 
BRANCH  14  15
HETATM   15  N1  UNL     1      27.006   3.126  51.186  1.00  0.00    -0.248 NA
HETATM   16  H1  UNL     1      27.346   2.603  50.347  1.00  0.00     0.143 HD
HETATM   17  H2  UNL     1      26.496   3.967  50.831  1.00  0.00     0.143 HD
ENDBRANCH  14  15
BRANCH  14  18
HETATM   18  C8  UNL     1      26.155   0.841  52.155  1.00  0.00     0.180 C 
BRANCH  18  19
HETATM   19  C9  UNL     1      27.403   0.342  52.742  1.00  0.00    -0.039 A 
HETATM   20  C10 UNL     1      27.590  -1.046  52.730  1.00  0.00     0.009 A 
HETATM   21  C11 UNL     1      28.701  -1.695  53.233  1.00  0.00     0.001 A 
HETATM   22  C12 UNL     1      29.708  -0.940  53.792  1.00  0.00     0.000 A 
HETATM   23  C13 UNL     1      29.553   0.437  53.820  1.00  0.00     0.001 A 
HETATM   24  C14 UNL     1      28.429   1.057  53.306  1.00  0.00     0.009 A 
ENDBRANCH  18  19
ENDBRANCH  14  18
ENDBRANCH   1  14
TORSDOF 4
ENDMDL
MODEL 9
REMARK VINA RESULT:      -6.8      1.735      2.452
REMARK  4 active torsions:
REMARK  status: ('A' for Active; 'I' for Inactive)
REMARK    1  A    between atoms: N1_1  and  N2_2 
REMARK    2  A    between atoms: N2_2  and  C1_3 
REMARK    3  A    between atoms: N2_2  and  C8_15 
REMARK    4  A    between atoms: C8_15  and  C9_16 
ROOT
HETATM    1  C1  UNL     1      23.599   2.844  52.054  1.00  0.00     0.114 C 
HETATM    2  C2  UNL     1      24.098   1.677  52.524  1.00  0.00    -0.005 C 
HETATM    3  C3  UNL     1      24.246   0.260  52.782  1.00  0.00     0.021 C 
HETATM    4  C4  UNL     1      25.213  -0.057  53.578  1.00  0.00     0.257 A 
HETATM    5  C5  UNL     1      26.111   0.839  54.262  1.00  0.00     0.213 A 
HETATM    6  C6  UNL     1      27.098   0.202  54.932  1.00  0.00     0.211 A 
HETATM    7  N3  UNL     1      26.366  -0.857  54.285  1.00  0.00     0.045 N 
HETATM    8  N4  UNL     1      26.968  -0.502  52.963  1.00  0.00    -0.047 NA
HETATM    9  S1  UNL     1      26.673   0.874  52.271  1.00  0.00     0.028 SA
HETATM   10  N5  UNL     1      26.830   2.047  50.993  1.00  0.00    -0.116 NA
HETATM   11  N6  UNL     1      25.987   2.851  51.417  1.00  0.00    -0.163 NA
HETATM   12  C7  UNL     1      25.516   2.201  52.653  1.00  0.00     0.252 A 
HETATM   13  H8  UNL     1      25.736  -1.460  54.913  1.00  0.00     0.312 HD
ENDROOT
BRANCH   1  14
HETATM   14  N2  UNL     1      23.787   4.252  52.028  1.00  0.00    -0.321 N 
BRANCH  14  15
HETATM   15  N1  UNL     1      24.128   4.767  53.305  1.00  0.00    -0.248 NA
HETATM   16  H1  UNL     1      24.903   5.445  53.121  1.00  0.00     0.143 HD
HETATM   17  H2  UNL     1      23.336   5.317  53.709  1.00  0.00     0.143 HD
ENDBRANCH  14  15
BRANCH  14  18
HETATM   18  C8  UNL     1      23.594   4.828  50.736  1.00  0.00     0.180 C 
BRANCH  18  19
HETATM   19  C9  UNL     1      24.644   5.741  50.269  1.00  0.00    -0.039 A 
HETATM   20  C10 UNL     1      25.482   5.263  49.253  1.00  0.00     0.009 A 
HETATM   21  C11 UNL     1      26.519   5.979  48.686  1.00  0.00     0.001 A 
HETATM   22  C12 UNL     1      26.763   7.256  49.141  1.00  0.00     0.000 A 
HETATM   23  C13 UNL     1      25.952   7.757  50.146  1.00  0.00     0.001 A 
HETATM   24  C14 UNL     1      24.920   7.015  50.692  1.00  0.00     0.009 A 
ENDBRANCH  18  19
ENDBRANCH  14  18
ENDBRANCH   1  14
TORSDOF 4
ENDMDL
