MODEL 1
REMARK VINA RESULT:      -7.8      0.000      0.000
REMARK  4 active torsions:
REMARK  status: ('A' for Active; 'I' for Inactive)
REMARK    1  A    between atoms: N1_7  and  C7_8 
REMARK    2  A    between atoms: C9_11  and  C10_12 
REMARK    3  A    between atoms: N3_13  and  C11_14 
REMARK    4  A    between atoms: C17_22  and  N5_23 
ROOT
HETATM    1  C10 UNL     1      23.385  -0.782  54.611  1.00  0.00     0.118 C 
HETATM    2  N3  UNL     1      24.195  -0.498  53.671  1.00  0.00    -0.273 NA
ENDROOT
BRANCH   2   3
HETATM    3  C11 UNL     1      25.575  -0.811  53.682  1.00  0.00     0.145 C 
HETATM    4  C12 UNL     1      26.859  -0.698  53.957  1.00  0.00     0.081 C 
HETATM    5  N4  UNL     1      27.640  -1.748  53.392  1.00  0.00    -0.388 N 
HETATM    6  C17 UNL     1      27.134   0.503  54.788  1.00  0.00     0.405 C 
HETATM    7  C13 UNL     1      29.021  -1.869  52.936  1.00  0.00     0.119 C 
HETATM    8  H16 UNL     1      27.097  -2.623  53.281  1.00  0.00     0.159 HD
HETATM    9  C14 UNL     1      29.901  -0.976  53.780  1.00  0.00     0.022 C 
HETATM   10  C15 UNL     1      29.822   0.464  53.368  1.00  0.00     0.028 C 
HETATM   11  C16 UNL     1      29.285   1.309  54.530  1.00  0.00     0.171 C 
HETATM   12  O1  UNL     1      28.432   0.519  55.263  1.00  0.00    -0.353 OA
BRANCH   6  13
HETATM   13  N5  UNL     1      26.943   1.691  53.988  1.00  0.00     0.113 N 
HETATM   14  H26 UNL     1      26.511   1.491  53.055  1.00  0.00     0.316 HD
HETATM   15  H27 UNL     1      27.814   2.245  53.868  1.00  0.00     0.316 HD
ENDBRANCH   6  13
ENDBRANCH   2   3
BRANCH   1  16
HETATM   16  C9  UNL     1      21.957  -0.366  54.415  1.00  0.00     0.175 A 
HETATM   17  C7  UNL     1      21.403  -0.597  53.077  1.00  0.00     0.150 A 
HETATM   18  C8  UNL     1      20.543  -1.504  53.812  1.00  0.00     0.111 A 
HETATM   19  N2  UNL     1      21.033  -1.283  54.911  1.00  0.00    -0.291 NA
BRANCH  17  20
HETATM   20  N1  UNL     1      20.801   0.538  52.457  1.00  0.00    -0.394 N 
HETATM   21  C2  UNL     1      21.544   1.721  52.334  1.00  0.00     0.079 C 
HETATM   22  C1  UNL     1      22.209   1.752  50.959  1.00  0.00     0.032 C 
HETATM   23  C3  UNL     1      20.717   2.987  52.402  1.00  0.00     0.051 C 
HETATM   24  C4  UNL     1      19.382   2.685  51.823  1.00  0.00    -0.027 C 
HETATM   25  C5  UNL     1      18.832   1.538  51.450  1.00  0.00    -0.011 C 
HETATM   26  C6  UNL     1      19.680   0.328  51.635  1.00  0.00     0.145 C 
ENDBRANCH  17  20
ENDBRANCH   1  16
TORSDOF 4
ENDMDL
MODEL 2
REMARK VINA RESULT:      -7.5      1.015      1.037
REMARK  4 active torsions:
REMARK  status: ('A' for Active; 'I' for Inactive)
REMARK    1  A    between atoms: N1_7  and  C7_8 
REMARK    2  A    between atoms: C9_11  and  C10_12 
REMARK    3  A    between atoms: N3_13  and  C11_14 
REMARK    4  A    between atoms: C17_22  and  N5_23 
ROOT
HETATM    1  C10 UNL     1      23.002  -0.174  53.824  1.00  0.00     0.118 C 
HETATM    2  N3  UNL     1      24.020   0.211  53.163  1.00  0.00    -0.273 NA
ENDROOT
BRANCH   2   3
HETATM    3  C11 UNL     1      25.318  -0.336  53.302  1.00  0.00     0.145 C 
HETATM    4  C12 UNL     1      26.568  -0.449  53.708  1.00  0.00     0.081 C 
HETATM    5  N4  UNL     1      27.213  -1.610  53.190  1.00  0.00    -0.388 N 
HETATM    6  C17 UNL     1      26.954   0.674  54.600  1.00  0.00     0.405 C 
HETATM    7  C13 UNL     1      28.594  -1.960  52.872  1.00  0.00     0.119 C 
HETATM    8  H16 UNL     1      26.544  -2.377  52.997  1.00  0.00     0.159 HD
HETATM    9  C14 UNL     1      29.519  -1.244  53.827  1.00  0.00     0.022 C 
HETATM   10  C15 UNL     1      29.729   0.193  53.456  1.00  0.00     0.028 C 
HETATM   11  C16 UNL     1      29.226   1.102  54.584  1.00  0.00     0.171 C 
HETATM   12  O1  UNL     1      28.179   0.460  55.203  1.00  0.00    -0.353 OA
BRANCH   6  13
HETATM   13  N5  UNL     1      27.052   1.889  53.824  1.00  0.00     0.113 N 
HETATM   14  H26 UNL     1      27.974   2.375  53.937  1.00  0.00     0.316 HD
HETATM   15  H27 UNL     1      26.273   2.552  54.005  1.00  0.00     0.316 HD
ENDBRANCH   6  13
ENDBRANCH   2   3
BRANCH   1  16
HETATM   16  C9  UNL     1      21.710   0.529  53.535  1.00  0.00     0.175 A 
HETATM   17  C7  UNL     1      20.968   0.047  52.366  1.00  0.00     0.150 A 
HETATM   18  C8  UNL     1      19.999  -0.312  53.383  1.00  0.00     0.111 A 
HETATM   19  N2  UNL     1      20.650   0.103  54.332  1.00  0.00    -0.291 NA
BRANCH  17  20
HETATM   20  N1  UNL     1      20.599   1.046  51.416  1.00  0.00    -0.394 N 
HETATM   21  C2  UNL     1      21.503   2.080  51.130  1.00  0.00     0.079 C 
HETATM   22  C1  UNL     1      22.321   1.698  49.898  1.00  0.00     0.032 C 
HETATM   23  C3  UNL     1      20.850   3.399  50.779  1.00  0.00     0.051 C 
HETATM   24  C4  UNL     1      19.564   3.099  50.099  1.00  0.00    -0.027 C 
HETATM   25  C5  UNL     1      18.913   1.957  49.929  1.00  0.00    -0.011 C 
HETATM   26  C6  UNL     1      19.563   0.752  50.512  1.00  0.00     0.145 C 
ENDBRANCH  17  20
ENDBRANCH   1  16
TORSDOF 4
ENDMDL
MODEL 3
REMARK VINA RESULT:      -7.4      7.931     12.093
REMARK  4 active torsions:
REMARK  status: ('A' for Active; 'I' for Inactive)
REMARK    1  A    between atoms: N1_7  and  C7_8 
REMARK    2  A    between atoms: C9_11  and  C10_12 
REMARK    3  A    between atoms: N3_13  and  C11_14 
REMARK    4  A    between atoms: C17_22  and  N5_23 
ROOT
HETATM    1  C10 UNL     1      30.452   6.050  48.684  1.00  0.00     0.118 C 
HETATM    2  N3  UNL     1      29.638   5.270  48.092  1.00  0.00    -0.273 NA
ENDROOT
BRANCH   2   3
HETATM    3  C11 UNL     1      28.300   5.051  48.499  1.00  0.00     0.145 C 
HETATM    4  C12 UNL     1      27.037   5.319  48.766  1.00  0.00     0.081 C 
HETATM    5  N4  UNL     1      26.319   4.181  49.236  1.00  0.00    -0.388 N 
HETATM    6  C17 UNL     1      26.714   6.744  48.497  1.00  0.00     0.405 C 
HETATM    7  C13 UNL     1      25.167   3.984  50.112  1.00  0.00     0.119 C 
HETATM    8  H16 UNL     1      26.708   3.294  48.871  1.00  0.00     0.159 HD
HETATM    9  C14 UNL     1      24.227   5.157  49.963  1.00  0.00     0.022 C 
HETATM   10  C15 UNL     1      24.685   6.362  50.728  1.00  0.00     0.028 C 
HETATM   11  C16 UNL     1      24.943   7.525  49.762  1.00  0.00     0.171 C 
HETATM   12  O1  UNL     1      25.356   6.990  48.565  1.00  0.00    -0.353 OA
BRANCH   6  13
HETATM   13  N5  UNL     1      27.361   7.575  49.487  1.00  0.00     0.113 N 
HETATM   14  H26 UNL     1      27.099   8.586  49.408  1.00  0.00     0.316 HD
HETATM   15  H27 UNL     1      28.395   7.473  49.491  1.00  0.00     0.316 HD
ENDBRANCH   6  13
ENDBRANCH   2   3
BRANCH   1  16
HETATM   16  C9  UNL     1      31.830   6.149  48.102  1.00  0.00     0.175 A 
HETATM   17  C7  UNL     1      31.958   5.761  46.693  1.00  0.00     0.150 A 
HETATM   18  C8  UNL     1      32.310   7.160  46.552  1.00  0.00     0.111 A 
HETATM   19  N2  UNL     1      32.193   7.443  47.736  1.00  0.00    -0.291 NA
BRANCH  17  20
HETATM   20  N1  UNL     1      32.963   4.787  46.412  1.00  0.00    -0.394 N 
HETATM   21  C2  UNL     1      33.096   3.681  47.263  1.00  0.00     0.079 C 
HETATM   22  C1  UNL     1      32.291   2.514  46.693  1.00  0.00     0.032 C 
HETATM   23  C3  UNL     1      34.511   3.160  47.392  1.00  0.00     0.051 C 
HETATM   24  C4  UNL     1      35.200   3.403  46.098  1.00  0.00    -0.027 C 
HETATM   25  C5  UNL     1      34.827   4.088  45.026  1.00  0.00    -0.011 C 
HETATM   26  C6  UNL     1      33.490   4.736  45.110  1.00  0.00     0.145 C 
ENDBRANCH  17  20
ENDBRANCH   1  16
TORSDOF 4
ENDMDL
MODEL 4
REMARK VINA RESULT:      -7.3      1.592      2.854
REMARK  4 active torsions:
REMARK  status: ('A' for Active; 'I' for Inactive)
REMARK    1  A    between atoms: N1_7  and  C7_8 
REMARK    2  A    between atoms: C9_11  and  C10_12 
REMARK    3  A    between atoms: N3_13  and  C11_14 
REMARK    4  A    between atoms: C17_22  and  N5_23 
ROOT
HETATM    1  C10 UNL     1      24.359   1.824  51.323  1.00  0.00     0.118 C 
HETATM    2  N3  UNL     1      24.385   0.936  52.234  1.00  0.00    -0.273 NA
ENDROOT
BRANCH   2   3
HETATM    3  C11 UNL     1      25.555   0.268  52.667  1.00  0.00     0.145 C 
HETATM    4  C12 UNL     1      26.697   0.071  53.296  1.00  0.00     0.081 C 
HETATM    5  N4  UNL     1      27.246  -1.221  53.053  1.00  0.00    -0.388 N 
HETATM    6  C17 UNL     1      27.093   1.263  54.091  1.00  0.00     0.405 C 
HETATM    7  C13 UNL     1      28.597  -1.775  53.028  1.00  0.00     0.119 C 
HETATM    8  H16 UNL     1      26.515  -1.925  52.846  1.00  0.00     0.159 HD
HETATM    9  C14 UNL     1      29.453  -1.036  54.031  1.00  0.00     0.022 C 
HETATM   10  C15 UNL     1      29.918   0.295  53.520  1.00  0.00     0.028 C 
HETATM   11  C16 UNL     1      29.377   1.414  54.418  1.00  0.00     0.171 C 
HETATM   12  O1  UNL     1      28.166   0.999  54.921  1.00  0.00    -0.353 OA
BRANCH   6  13
HETATM   13  N5  UNL     1      27.481   2.327  53.194  1.00  0.00     0.113 N 
HETATM   14  H26 UNL     1      26.792   2.483  52.420  1.00  0.00     0.316 HD
HETATM   15  H27 UNL     1      28.436   2.203  52.803  1.00  0.00     0.316 HD
ENDBRANCH   6  13
ENDBRANCH   2   3
BRANCH   1  16
HETATM   16  C9  UNL     1      23.020   2.418  51.002  1.00  0.00     0.175 A 
HETATM   17  C7  UNL     1      22.145   2.676  52.151  1.00  0.00     0.150 A 
HETATM   18  C8  UNL     1      22.329   4.049  51.723  1.00  0.00     0.111 A 
HETATM   19  N2  UNL     1      23.056   3.791  50.773  1.00  0.00    -0.291 NA
BRANCH  17  20
HETATM   20  N1  UNL     1      20.834   2.119  52.063  1.00  0.00    -0.394 N 
HETATM   21  C2  UNL     1      20.665   0.742  52.265  1.00  0.00     0.079 C 
HETATM   22  C1  UNL     1      20.300   0.494  53.728  1.00  0.00     0.032 C 
HETATM   23  C3  UNL     1      19.535   0.129  51.466  1.00  0.00     0.051 C 
HETATM   24  C4  UNL     1      18.480   1.163  51.310  1.00  0.00    -0.027 C 
HETATM   25  C5  UNL     1      18.475   2.456  51.604  1.00  0.00    -0.011 C 
HETATM   26  C6  UNL     1      19.735   2.986  52.195  1.00  0.00     0.145 C 
ENDBRANCH  17  20
ENDBRANCH   1  16
TORSDOF 4
ENDMDL
MODEL 5
REMARK VINA RESULT:      -6.9      5.085      7.150
REMARK  4 active torsions:
REMARK  status: ('A' for Active; 'I' for Inactive)
REMARK    1  A    between atoms: N1_7  and  C7_8 
REMARK    2  A    between atoms: C9_11  and  C10_12 
REMARK    3  A    between atoms: N3_13  and  C11_14 
REMARK    4  A    between atoms: C17_22  and  N5_23 
ROOT
HETATM    1  C10 UNL     1      24.637   3.272  51.396  1.00  0.00     0.118 C 
HETATM    2  N3  UNL     1      24.039   4.378  51.195  1.00  0.00    -0.273 NA
ENDROOT
BRANCH   2   3
HETATM    3  C11 UNL     1      24.180   5.162  50.024  1.00  0.00     0.145 C 
HETATM    4  C12 UNL     1      24.741   5.965  49.143  1.00  0.00     0.081 C 
HETATM    5  N4  UNL     1      23.891   6.250  48.035  1.00  0.00    -0.388 N 
HETATM    6  C17 UNL     1      26.115   6.351  49.555  1.00  0.00     0.405 C 
HETATM    7  C13 UNL     1      23.749   7.372  47.112  1.00  0.00     0.119 C 
HETATM    8  H16 UNL     1      23.222   5.481  47.847  1.00  0.00     0.159 HD
HETATM    9  C14 UNL     1      25.101   8.008  46.895  1.00  0.00     0.022 C 
HETATM   10  C15 UNL     1      25.503   8.906  48.027  1.00  0.00     0.028 C 
HETATM   11  C16 UNL     1      26.788   8.380  48.677  1.00  0.00     0.171 C 
HETATM   12  O1  UNL     1      26.793   7.012  48.549  1.00  0.00    -0.353 OA
BRANCH   6  13
HETATM   13  N5  UNL     1      26.041   7.239  50.693  1.00  0.00     0.113 N 
HETATM   14  H26 UNL     1      25.619   6.787  51.539  1.00  0.00     0.316 HD
HETATM   15  H27 UNL     1      25.551   8.131  50.482  1.00  0.00     0.316 HD
ENDBRANCH   6  13
ENDBRANCH   2   3
BRANCH   1  16
HETATM   16  C9  UNL     1      24.360   2.587  52.701  1.00  0.00     0.175 A 
HETATM   17  C7  UNL     1      24.364   1.121  52.666  1.00  0.00     0.150 A 
HETATM   18  C8  UNL     1      25.501   1.306  53.546  1.00  0.00     0.111 A 
HETATM   19  N2  UNL     1      25.463   2.529  53.549  1.00  0.00    -0.291 NA
BRANCH  17  20
HETATM   20  N1  UNL     1      23.201   0.490  53.202  1.00  0.00    -0.394 N 
HETATM   21  C2  UNL     1      21.936   0.945  52.805  1.00  0.00     0.079 C 
HETATM   22  C1  UNL     1      21.442   0.092  51.638  1.00  0.00     0.032 C 
HETATM   23  C3  UNL     1      20.866   0.819  53.869  1.00  0.00     0.051 C 
HETATM   24  C4  UNL     1      21.188  -0.376  54.692  1.00  0.00    -0.027 C 
HETATM   25  C5  UNL     1      22.259  -1.157  54.714  1.00  0.00    -0.011 C 
HETATM   26  C6  UNL     1      23.340  -0.794  53.758  1.00  0.00     0.145 C 
ENDBRANCH  17  20
ENDBRANCH   1  16
TORSDOF 4
ENDMDL
MODEL 6
REMARK VINA RESULT:      -6.9      5.025      6.720
REMARK  4 active torsions:
REMARK  status: ('A' for Active; 'I' for Inactive)
REMARK    1  A    between atoms: N1_7  and  C7_8 
REMARK    2  A    between atoms: C9_11  and  C10_12 
REMARK    3  A    between atoms: N3_13  and  C11_14 
REMARK    4  A    between atoms: C17_22  and  N5_23 
ROOT
HETATM    1  C10 UNL     1      23.661   5.259  51.999  1.00  0.00     0.118 C 
HETATM    2  N3  UNL     1      24.150   4.177  51.541  1.00  0.00    -0.273 NA
ENDROOT
BRANCH   2   3
HETATM    3  C11 UNL     1      24.210   2.959  52.259  1.00  0.00     0.145 C 
HETATM    4  C12 UNL     1      24.684   2.027  53.062  1.00  0.00     0.081 C 
HETATM    5  N4  UNL     1      23.816   0.902  53.176  1.00  0.00    -0.388 N 
HETATM    6  C17 UNL     1      26.002   2.416  53.628  1.00  0.00     0.405 C 
HETATM    7  C13 UNL     1      24.009  -0.519  53.451  1.00  0.00     0.119 C 
HETATM    8  H16 UNL     1      22.823   1.157  53.030  1.00  0.00     0.159 HD
HETATM    9  C14 UNL     1      25.191  -0.688  54.377  1.00  0.00     0.022 C 
HETATM   10  C15 UNL     1      26.503  -0.582  53.660  1.00  0.00     0.028 C 
HETATM   11  C16 UNL     1      27.306   0.600  54.216  1.00  0.00     0.171 C 
HETATM   12  O1  UNL     1      26.410   1.557  54.630  1.00  0.00    -0.353 OA
BRANCH   6  13
HETATM   13  N5  UNL     1      27.000   2.379  52.583  1.00  0.00     0.113 N 
HETATM   14  H26 UNL     1      27.317   1.407  52.354  1.00  0.00     0.316 HD
HETATM   15  H27 UNL     1      27.820   2.986  52.782  1.00  0.00     0.316 HD
ENDBRANCH   6  13
ENDBRANCH   2   3
BRANCH   1  16
HETATM   16  C9  UNL     1      23.687   6.448  51.085  1.00  0.00     0.175 A 
HETATM   17  C7  UNL     1      23.786   6.149  49.653  1.00  0.00     0.150 A 
HETATM   18  C8  UNL     1      22.474   6.763  49.641  1.00  0.00     0.111 A 
HETATM   19  N2  UNL     1      22.430   6.995  50.841  1.00  0.00    -0.291 NA
BRANCH  17  20
HETATM   20  N1  UNL     1      24.841   6.814  48.958  1.00  0.00    -0.394 N 
HETATM   21  C2  UNL     1      26.152   6.705  49.444  1.00  0.00     0.079 C 
HETATM   22  C1  UNL     1      26.858   5.561  48.719  1.00  0.00     0.032 C 
HETATM   23  C3  UNL     1      27.013   7.924  49.193  1.00  0.00     0.051 C 
HETATM   24  C4  UNL     1      26.562   8.540  47.919  1.00  0.00    -0.027 C 
HETATM   25  C5  UNL     1      25.515   8.283  47.148  1.00  0.00    -0.011 C 
HETATM   26  C6  UNL     1      24.619   7.192  47.622  1.00  0.00     0.145 C 
ENDBRANCH  17  20
ENDBRANCH   1  16
TORSDOF 4
ENDMDL
MODEL 7
REMARK VINA RESULT:      -6.9      6.379      8.141
REMARK  4 active torsions:
REMARK  status: ('A' for Active; 'I' for Inactive)
REMARK    1  A    between atoms: N1_7  and  C7_8 
REMARK    2  A    between atoms: C9_11  and  C10_12 
REMARK    3  A    between atoms: N3_13  and  C11_14 
REMARK    4  A    between atoms: C17_22  and  N5_23 
ROOT
HETATM    1  C10 UNL     1      25.489   4.654  50.033  1.00  0.00     0.118 C 
HETATM    2  N3  UNL     1      26.370   4.927  49.155  1.00  0.00    -0.273 NA
ENDROOT
BRANCH   2   3
HETATM    3  C11 UNL     1      26.887   6.222  48.917  1.00  0.00     0.145 C 
HETATM    4  C12 UNL     1      27.733   7.156  48.528  1.00  0.00     0.081 C 
HETATM    5  N4  UNL     1      27.241   8.475  48.754  1.00  0.00    -0.388 N 
HETATM    6  C17 UNL     1      28.971   6.566  47.957  1.00  0.00     0.405 C 
HETATM    7  C13 UNL     1      27.861   9.771  49.010  1.00  0.00     0.119 C 
HETATM    8  H16 UNL     1      26.206   8.516  48.731  1.00  0.00     0.159 HD
HETATM    9  C14 UNL     1      29.187   9.837  48.290  1.00  0.00     0.022 C 
HETATM   10  C15 UNL     1      30.273   9.101  49.016  1.00  0.00     0.028 C 
HETATM   11  C16 UNL     1      30.806   7.961  48.139  1.00  0.00     0.171 C 
HETATM   12  O1  UNL     1      29.769   7.519  47.352  1.00  0.00    -0.353 OA
BRANCH   6  13
HETATM   13  N5  UNL     1      29.741   5.956  49.017  1.00  0.00     0.113 N 
HETATM   14  H26 UNL     1      30.376   5.195  48.676  1.00  0.00     0.316 HD
HETATM   15  H27 UNL     1      29.153   5.607  49.799  1.00  0.00     0.316 HD
ENDBRANCH   6  13
ENDBRANCH   2   3
BRANCH   1  16
HETATM   16  C9  UNL     1      25.066   3.218  50.136  1.00  0.00     0.175 A 
HETATM   17  C7  UNL     1      24.432   2.829  51.400  1.00  0.00     0.150 A 
HETATM   18  C8  UNL     1      23.296   2.609  50.526  1.00  0.00     0.111 A 
HETATM   19  N2  UNL     1      23.862   2.942  49.494  1.00  0.00    -0.291 NA
BRANCH  17  20
HETATM   20  N1  UNL     1      25.004   1.694  52.050  1.00  0.00    -0.394 N 
HETATM   21  C2  UNL     1      26.389   1.489  51.970  1.00  0.00     0.079 C 
HETATM   22  C1  UNL     1      27.055   2.101  53.201  1.00  0.00     0.032 C 
HETATM   23  C3  UNL     1      26.805   0.034  51.976  1.00  0.00     0.051 C 
HETATM   24  C4  UNL     1      25.820  -0.713  52.799  1.00  0.00    -0.027 C 
HETATM   25  C5  UNL     1      24.664  -0.339  53.329  1.00  0.00    -0.011 C 
HETATM   26  C6  UNL     1      24.262   1.070  53.068  1.00  0.00     0.145 C 
ENDBRANCH  17  20
ENDBRANCH   1  16
TORSDOF 4
ENDMDL
MODEL 8
REMARK VINA RESULT:      -6.7      2.787      3.743
REMARK  4 active torsions:
REMARK  status: ('A' for Active; 'I' for Inactive)
REMARK    1  A    between atoms: N1_7  and  C7_8 
REMARK    2  A    between atoms: C9_11  and  C10_12 
REMARK    3  A    between atoms: N3_13  and  C11_14 
REMARK    4  A    between atoms: C17_22  and  N5_23 
ROOT
HETATM    1  C10 UNL     1      23.610   2.057  52.521  1.00  0.00     0.118 C 
HETATM    2  N3  UNL     1      24.430   1.391  51.810  1.00  0.00    -0.273 NA
ENDROOT
BRANCH   2   3
HETATM    3  C11 UNL     1      25.507   0.633  52.328  1.00  0.00     0.145 C 
HETATM    4  C12 UNL     1      26.580   0.349  53.039  1.00  0.00     0.081 C 
HETATM    5  N4  UNL     1      27.036  -0.987  52.840  1.00  0.00    -0.388 N 
HETATM    6  C17 UNL     1      27.016   1.511  53.856  1.00  0.00     0.405 C 
HETATM    7  C13 UNL     1      28.334  -1.650  52.915  1.00  0.00     0.119 C 
HETATM    8  H16 UNL     1      26.265  -1.630  52.584  1.00  0.00     0.159 HD
HETATM    9  C14 UNL     1      29.174  -0.975  53.974  1.00  0.00     0.022 C 
HETATM   10  C15 UNL     1      29.784   0.308  53.494  1.00  0.00     0.028 C 
HETATM   11  C16 UNL     1      29.275   1.477  54.346  1.00  0.00     0.171 C 
HETATM   12  O1  UNL     1      28.001   1.168  54.761  1.00  0.00    -0.353 OA
BRANCH   6  13
HETATM   13  N5  UNL     1      27.554   2.531  52.985  1.00  0.00     0.113 N 
HETATM   14  H26 UNL     1      26.832   3.221  52.666  1.00  0.00     0.316 HD
HETATM   15  H27 UNL     1      28.063   2.142  52.167  1.00  0.00     0.316 HD
ENDBRANCH   6  13
ENDBRANCH   2   3
BRANCH   1  16
HETATM   16  C9  UNL     1      22.533   2.798  51.786  1.00  0.00     0.175 A 
HETATM   17  C7  UNL     1      22.859   3.204  50.415  1.00  0.00     0.150 A 
HETATM   18  C8  UNL     1      21.783   2.284  50.104  1.00  0.00     0.111 A 
HETATM   19  N2  UNL     1      21.542   1.972  51.261  1.00  0.00    -0.291 NA
BRANCH  17  20
HETATM   20  N1  UNL     1      22.661   4.587  50.120  1.00  0.00    -0.394 N 
HETATM   21  C2  UNL     1      22.642   5.511  51.174  1.00  0.00     0.079 C 
HETATM   22  C1  UNL     1      24.041   6.101  51.346  1.00  0.00     0.032 C 
HETATM   23  C3  UNL     1      21.737   6.702  50.942  1.00  0.00     0.051 C 
HETATM   24  C4  UNL     1      21.727   6.983  49.483  1.00  0.00    -0.027 C 
HETATM   25  C5  UNL     1      22.220   6.300  48.460  1.00  0.00    -0.011 C 
HETATM   26  C6  UNL     1      22.908   5.027  48.808  1.00  0.00     0.145 C 
ENDBRANCH  17  20
ENDBRANCH   1  16
TORSDOF 4
ENDMDL
MODEL 9
REMARK VINA RESULT:      -6.6      5.104     10.456
REMARK  4 active torsions:
REMARK  status: ('A' for Active; 'I' for Inactive)
REMARK    1  A    between atoms: N1_7  and  C7_8 
REMARK    2  A    between atoms: C9_11  and  C10_12 
REMARK    3  A    between atoms: N3_13  and  C11_14 
REMARK    4  A    between atoms: C17_22  and  N5_23 
ROOT
HETATM    1  C10 UNL     1      19.285   3.799  51.518  1.00  0.00     0.118 C 
HETATM    2  N3  UNL     1      18.162   3.523  52.052  1.00  0.00    -0.273 NA
ENDROOT
BRANCH   2   3
HETATM    3  C11 UNL     1      16.909   3.928  51.533  1.00  0.00     0.145 C 
HETATM    4  C12 UNL     1      15.619   4.198  51.505  1.00  0.00     0.081 C 
HETATM    5  N4  UNL     1      15.177   4.654  50.229  1.00  0.00    -0.388 N 
HETATM    6  C17 UNL     1      14.983   3.951  52.825  1.00  0.00     0.405 C 
HETATM    7  C13 UNL     1      13.914   4.599  49.501  1.00  0.00     0.119 C 
HETATM    8  H16 UNL     1      15.930   5.133  49.702  1.00  0.00     0.159 HD
HETATM    9  C14 UNL     1      12.771   4.656  50.487  1.00  0.00     0.022 C 
HETATM   10  C15 UNL     1      12.520   3.336  51.152  1.00  0.00     0.028 C 
HETATM   11  C16 UNL     1      12.727   3.468  52.666  1.00  0.00     0.171 C 
HETATM   12  O1  UNL     1      13.688   4.430  52.874  1.00  0.00    -0.353 OA
BRANCH   6  13
HETATM   13  N5  UNL     1      14.936   2.528  53.073  1.00  0.00     0.113 N 
HETATM   14  H26 UNL     1      14.669   1.973  52.225  1.00  0.00     0.316 HD
HETATM   15  H27 UNL     1      14.324   2.274  53.873  1.00  0.00     0.316 HD
ENDBRANCH   6  13
ENDBRANCH   2   3
BRANCH   1  16
HETATM   16  C9  UNL     1      20.506   3.281  52.219  1.00  0.00     0.175 A 
HETATM   17  C7  UNL     1      21.131   2.098  51.619  1.00  0.00     0.150 A 
HETATM   18  C8  UNL     1      22.223   3.030  51.415  1.00  0.00     0.111 A 
HETATM   19  N2  UNL     1      21.666   3.993  51.924  1.00  0.00    -0.291 NA
BRANCH  17  20
HETATM   20  N1  UNL     1      21.348   1.001  52.505  1.00  0.00    -0.394 N 
HETATM   21  C2  UNL     1      20.386   0.718  53.486  1.00  0.00     0.079 C 
HETATM   22  C1  UNL     1      19.429  -0.347  52.952  1.00  0.00     0.032 C 
HETATM   23  C3  UNL     1      20.950   0.136  54.764  1.00  0.00     0.051 C 
HETATM   24  C4  UNL     1      22.148  -0.666  54.404  1.00  0.00    -0.027 C 
HETATM   25  C5  UNL     1      22.805  -0.787  53.259  1.00  0.00    -0.011 C 
HETATM   26  C6  UNL     1      22.269   0.010  52.122  1.00  0.00     0.145 C 
ENDBRANCH  17  20
ENDBRANCH   1  16
TORSDOF 4
ENDMDL
