MODEL 1
REMARK VINA RESULT:      -7.7      0.000      0.000
REMARK  3 active torsions:
REMARK  status: ('A' for Active; 'I' for Inactive)
REMARK    1  A    between atoms: C5_5  and  O1_6 
REMARK    2  A    between atoms: C8_10  and  C9_11 
REMARK    3  A    between atoms: C15_19  and  C16_20 
ROOT
HETATM    1  C1  UNL     1      26.789  -2.010  52.343  1.00  0.00     0.068 C 
HETATM    2  C2  UNL     1      26.788  -0.531  52.587  1.00  0.00     0.013 C 
HETATM    3  C3  UNL     1      27.599  -0.174  53.563  1.00  0.00     0.010 A 
HETATM    4  C4  UNL     1      28.548   0.102  54.684  1.00  0.00     0.115 A 
HETATM    5  C5  UNL     1      28.025   1.259  53.967  1.00  0.00     0.198 A 
HETATM    6  O2  UNL     1      26.832   1.939  54.268  1.00  0.00    -0.312 OA
HETATM    7  C6  UNL     1      25.737   2.151  53.393  1.00  0.00     0.074 C 
HETATM    8  C7  UNL     1      24.973   3.356  53.746  1.00  0.00     0.079 C 
HETATM    9  C8  UNL     1      25.235   1.522  52.356  1.00  0.00     0.072 C 
HETATM   10  N2  UNL     1      25.977   0.378  51.858  1.00  0.00    -0.357 N 
HETATM   11  H16 UNL     1      25.982   0.105  50.811  1.00  0.00     0.166 HD
ENDROOT
BRANCH   9  12
HETATM   12  C9  UNL     1      24.121   1.826  51.516  1.00  0.00     0.007 C 
HETATM   13  C10 UNL     1      23.892   2.761  50.630  1.00  0.00     0.088 C 
HETATM   14  C11 UNL     1      22.975   3.368  49.651  1.00  0.00     0.245 C 
HETATM   15  O3  UNL     1      23.179   4.579  49.442  1.00  0.00    -0.268 OA
HETATM   16  N1  UNL     1      21.904   2.685  48.945  1.00  0.00    -0.334 N 
HETATM   17  C12 UNL     1      21.375   1.335  48.939  1.00  0.00     0.091 C 
HETATM   18  H11 UNL     1      21.417   3.350  48.291  1.00  0.00     0.168 HD
HETATM   19  C13 UNL     1      21.391   0.438  49.944  1.00  0.00     0.018 C 
HETATM   20  C14 UNL     1      21.882   0.424  51.314  1.00  0.00     0.012 C 
HETATM   21  C15 UNL     1      22.942   0.981  51.857  1.00  0.00    -0.012 C 
BRANCH  21  22
HETATM   22  C16 UNL     1      22.831   0.711  53.323  1.00  0.00     0.430 C 
HETATM   23  O4  UNL     1      22.708  -0.440  53.790  1.00  0.00    -0.426 OA
ENDBRANCH  21  22
ENDBRANCH   9  12
BRANCH   5  24
HETATM   24  O1  UNL     1      28.801   1.867  52.967  1.00  0.00    -0.361 OA
HETATM   25  H6  UNL     1      29.107   2.774  53.226  1.00  0.00     0.213 HD
ENDBRANCH   5  24
TORSDOF 3
ENDMDL
MODEL 2
REMARK VINA RESULT:      -7.6      2.452      5.685
REMARK  3 active torsions:
REMARK  status: ('A' for Active; 'I' for Inactive)
REMARK    1  A    between atoms: C5_5  and  O1_6 
REMARK    2  A    between atoms: C8_10  and  C9_11 
REMARK    3  A    between atoms: C15_19  and  C16_20 
ROOT
HETATM    1  C1  UNL     1      20.352   3.951  51.881  1.00  0.00     0.068 C 
HETATM    2  C2  UNL     1      21.849   4.017  51.917  1.00  0.00     0.013 C 
HETATM    3  C3  UNL     1      22.337   4.964  51.139  1.00  0.00     0.010 A 
HETATM    4  C4  UNL     1      22.765   6.065  50.224  1.00  0.00     0.115 A 
HETATM    5  C5  UNL     1      23.797   5.475  51.069  1.00  0.00     0.198 A 
HETATM    6  O2  UNL     1      24.577   4.351  50.745  1.00  0.00    -0.312 OA
HETATM    7  C6  UNL     1      24.681   3.151  51.492  1.00  0.00     0.074 C 
HETATM    8  C7  UNL     1      25.965   2.471  51.272  1.00  0.00     0.079 C 
HETATM    9  C8  UNL     1      23.900   2.496  52.320  1.00  0.00     0.072 C 
HETATM   10  N2  UNL     1      22.650   3.135  52.689  1.00  0.00    -0.357 N 
HETATM   11  H16 UNL     1      22.192   2.990  53.659  1.00  0.00     0.166 HD
ENDROOT
BRANCH   9  12
HETATM   12  C9  UNL     1      24.100   1.284  53.048  1.00  0.00     0.007 C 
HETATM   13  C10 UNL     1      25.128   0.773  53.676  1.00  0.00     0.088 C 
HETATM   14  C11 UNL     1      25.695  -0.331  54.467  1.00  0.00     0.245 C 
HETATM   15  O3  UNL     1      26.932  -0.443  54.375  1.00  0.00    -0.268 OA
HETATM   16  N1  UNL     1      24.949  -1.253  55.307  1.00  0.00    -0.334 N 
HETATM   17  C12 UNL     1      23.550  -1.438  55.637  1.00  0.00     0.091 C 
HETATM   18  H11 UNL     1      25.603  -1.932  55.774  1.00  0.00     0.168 HD
HETATM   19  C13 UNL     1      22.476  -1.134  54.883  1.00  0.00     0.018 C 
HETATM   20  C14 UNL     1      22.266  -0.556  53.563  1.00  0.00     0.012 C 
HETATM   21  C15 UNL     1      22.930   0.373  52.912  1.00  0.00    -0.012 C 
BRANCH  21  22
HETATM   22  C16 UNL     1      22.304   0.436  51.556  1.00  0.00     0.430 C 
HETATM   23  O4  UNL     1      21.072   0.539  51.384  1.00  0.00    -0.426 OA
ENDBRANCH  21  22
ENDBRANCH   9  12
BRANCH   5  24
HETATM   24  O1  UNL     1      24.176   6.119  52.257  1.00  0.00    -0.361 OA
HETATM   25  H6  UNL     1      24.494   5.482  52.947  1.00  0.00     0.213 HD
ENDBRANCH   5  24
TORSDOF 3
ENDMDL
MODEL 3
REMARK VINA RESULT:      -7.6      3.104      5.749
REMARK  3 active torsions:
REMARK  status: ('A' for Active; 'I' for Inactive)
REMARK    1  A    between atoms: C5_5  and  O1_6 
REMARK    2  A    between atoms: C8_10  and  C9_11 
REMARK    3  A    between atoms: C15_19  and  C16_20 
ROOT
HETATM    1  C1  UNL     1      20.371   5.274  50.596  1.00  0.00     0.068 C 
HETATM    2  C2  UNL     1      21.438   4.589  51.395  1.00  0.00     0.013 C 
HETATM    3  C3  UNL     1      22.610   5.188  51.302  1.00  0.00     0.010 A 
HETATM    4  C4  UNL     1      23.880   5.953  51.115  1.00  0.00     0.115 A 
HETATM    5  C5  UNL     1      23.887   4.909  52.133  1.00  0.00     0.198 A 
HETATM    6  O2  UNL     1      24.193   3.554  51.916  1.00  0.00    -0.312 OA
HETATM    7  C6  UNL     1      23.360   2.444  52.202  1.00  0.00     0.074 C 
HETATM    8  C7  UNL     1      24.136   1.222  52.457  1.00  0.00     0.079 C 
HETATM    9  C8  UNL     1      22.065   2.242  52.279  1.00  0.00     0.072 C 
HETATM   10  N2  UNL     1      21.210   3.408  52.149  1.00  0.00    -0.357 N 
HETATM   11  H16 UNL     1      20.259   3.485  52.659  1.00  0.00     0.166 HD
ENDROOT
BRANCH   9  12
HETATM   12  C9  UNL     1      21.308   1.073  52.595  1.00  0.00     0.007 C 
HETATM   13  C10 UNL     1      21.328   0.235  53.598  1.00  0.00     0.088 C 
HETATM   14  C11 UNL     1      20.779  -0.972  54.239  1.00  0.00     0.245 C 
HETATM   15  O3  UNL     1      21.571  -1.548  55.008  1.00  0.00    -0.268 OA
HETATM   16  N1  UNL     1      19.442  -1.508  54.048  1.00  0.00    -0.334 N 
HETATM   17  C12 UNL     1      18.290  -1.136  53.250  1.00  0.00     0.091 C 
HETATM   18  H11 UNL     1      19.306  -2.367  54.641  1.00  0.00     0.168 HD
HETATM   19  C13 UNL     1      18.278  -0.475  52.076  1.00  0.00     0.018 C 
HETATM   20  C14 UNL     1      19.288   0.088  51.192  1.00  0.00     0.012 C 
HETATM   21  C15 UNL     1      20.437   0.671  51.455  1.00  0.00    -0.012 C 
BRANCH  21  22
HETATM   22  C16 UNL     1      21.076   0.915  50.126  1.00  0.00     0.430 C 
HETATM   23  O4  UNL     1      20.455   1.398  49.157  1.00  0.00    -0.426 OA
ENDBRANCH  21  22
ENDBRANCH   9  12
BRANCH   5  24
HETATM   24  O1  UNL     1      23.708   5.252  53.482  1.00  0.00    -0.361 OA
HETATM   25  H6  UNL     1      22.899   5.808  53.626  1.00  0.00     0.213 HD
ENDBRANCH   5  24
TORSDOF 3
ENDMDL
MODEL 4
REMARK VINA RESULT:      -7.5      2.668      5.826
REMARK  3 active torsions:
REMARK  status: ('A' for Active; 'I' for Inactive)
REMARK    1  A    between atoms: C5_5  and  O1_6 
REMARK    2  A    between atoms: C8_10  and  C9_11 
REMARK    3  A    between atoms: C15_19  and  C16_20 
ROOT
HETATM    1  C1  UNL     1      21.745   6.296  51.159  1.00  0.00     0.068 C 
HETATM    2  C2  UNL     1      23.195   5.983  50.945  1.00  0.00     0.013 C 
HETATM    3  C3  UNL     1      23.809   6.889  50.210  1.00  0.00     0.010 A 
HETATM    4  C4  UNL     1      24.390   7.979  49.368  1.00  0.00     0.115 A 
HETATM    5  C5  UNL     1      25.330   7.027  49.948  1.00  0.00     0.198 A 
HETATM    6  O2  UNL     1      25.727   5.810  49.367  1.00  0.00    -0.312 OA
HETATM    7  C6  UNL     1      25.604   4.520  49.941  1.00  0.00     0.074 C 
HETATM    8  C7  UNL     1      26.615   3.586  49.426  1.00  0.00     0.079 C 
HETATM    9  C8  UNL     1      24.795   3.958  50.809  1.00  0.00     0.072 C 
HETATM   10  N2  UNL     1      23.826   4.820  51.460  1.00  0.00    -0.357 N 
HETATM   11  H16 UNL     1      23.482   4.642  52.470  1.00  0.00     0.166 HD
ENDROOT
BRANCH   9  12
HETATM   12  C9  UNL     1      24.759   2.635  51.346  1.00  0.00     0.007 C 
HETATM   13  C10 UNL     1      25.662   1.861  51.891  1.00  0.00     0.088 C 
HETATM   14  C11 UNL     1      26.004   0.569  52.506  1.00  0.00     0.245 C 
HETATM   15  O3  UNL     1      27.204   0.252  52.399  1.00  0.00    -0.268 OA
HETATM   16  N1  UNL     1      25.085  -0.319  53.198  1.00  0.00    -0.334 N 
HETATM   17  C12 UNL     1      23.666  -0.298  53.497  1.00  0.00     0.091 C 
HETATM   18  H11 UNL     1      25.596  -1.166  53.557  1.00  0.00     0.168 HD
HETATM   19  C13 UNL     1      22.684   0.302  52.796  1.00  0.00     0.018 C 
HETATM   20  C14 UNL     1      22.615   1.096  51.578  1.00  0.00     0.012 C 
HETATM   21  C15 UNL     1      23.450   1.978  51.074  1.00  0.00    -0.012 C 
BRANCH  21  22
HETATM   22  C16 UNL     1      22.882   2.352  49.743  1.00  0.00     0.430 C 
HETATM   23  O4  UNL     1      21.806   2.972  49.618  1.00  0.00    -0.426 OA
ENDBRANCH  21  22
ENDBRANCH   9  12
BRANCH   5  24
HETATM   24  O1  UNL     1      26.026   7.363  51.120  1.00  0.00    -0.361 OA
HETATM   25  H6  UNL     1      26.347   6.563  51.610  1.00  0.00     0.213 HD
ENDBRANCH   5  24
TORSDOF 3
ENDMDL
MODEL 5
REMARK VINA RESULT:      -7.2      2.541      5.673
REMARK  3 active torsions:
REMARK  status: ('A' for Active; 'I' for Inactive)
REMARK    1  A    between atoms: C5_5  and  O1_6 
REMARK    2  A    between atoms: C8_10  and  C9_11 
REMARK    3  A    between atoms: C15_19  and  C16_20 
ROOT
HETATM    1  C1  UNL     1      20.675   5.670  50.614  1.00  0.00     0.068 C 
HETATM    2  C2  UNL     1      22.117   5.422  50.941  1.00  0.00     0.013 C 
HETATM    3  C3  UNL     1      22.914   6.366  50.482  1.00  0.00     0.010 A 
HETATM    4  C4  UNL     1      23.711   7.495  49.911  1.00  0.00     0.115 A 
HETATM    5  C5  UNL     1      24.418   6.571  50.792  1.00  0.00     0.198 A 
HETATM    6  O2  UNL     1      25.054   5.383  50.392  1.00  0.00    -0.312 OA
HETATM    7  C6  UNL     1      24.789   4.079  50.879  1.00  0.00     0.074 C 
HETATM    8  C7  UNL     1      25.960   3.197  50.764  1.00  0.00     0.079 C 
HETATM    9  C8  UNL     1      23.747   3.467  51.392  1.00  0.00     0.072 C 
HETATM   10  N2  UNL     1      22.569   4.276  51.647  1.00  0.00    -0.357 N 
HETATM   11  H16 UNL     1      21.891   4.065  52.463  1.00  0.00     0.166 HD
ENDROOT
BRANCH   9  12
HETATM   12  C9  UNL     1      23.578   2.134  51.876  1.00  0.00     0.007 C 
HETATM   13  C10 UNL     1      24.236   1.400  52.736  1.00  0.00     0.088 C 
HETATM   14  C11 UNL     1      24.381   0.117  53.442  1.00  0.00     0.245 C 
HETATM   15  O3  UNL     1      25.542  -0.131  53.820  1.00  0.00    -0.268 OA
HETATM   16  N1  UNL     1      23.316  -0.833  53.716  1.00  0.00    -0.334 N 
HETATM   17  C12 UNL     1      21.896  -0.896  53.429  1.00  0.00     0.091 C 
HETATM   18  H11 UNL     1      23.692  -1.657  54.252  1.00  0.00     0.168 HD
HETATM   19  C13 UNL     1      21.238  -0.337  52.395  1.00  0.00     0.018 C 
HETATM   20  C14 UNL     1      21.610   0.476  51.246  1.00  0.00     0.012 C 
HETATM   21  C15 UNL     1      22.524   1.412  51.110  1.00  0.00    -0.012 C 
BRANCH  21  22
HETATM   22  C16 UNL     1      22.508   1.780  49.662  1.00  0.00     0.430 C 
HETATM   23  O4  UNL     1      21.699   1.290  48.848  1.00  0.00    -0.426 OA
ENDBRANCH  21  22
ENDBRANCH   9  12
BRANCH   5  24
HETATM   24  O1  UNL     1      24.625   6.914  52.137  1.00  0.00    -0.361 OA
HETATM   25  H6  UNL     1      24.695   6.116  52.723  1.00  0.00     0.213 HD
ENDBRANCH   5  24
TORSDOF 3
ENDMDL
MODEL 6
REMARK VINA RESULT:      -7.0      2.440      5.474
REMARK  3 active torsions:
REMARK  status: ('A' for Active; 'I' for Inactive)
REMARK    1  A    between atoms: C5_5  and  O1_6 
REMARK    2  A    between atoms: C8_10  and  C9_11 
REMARK    3  A    between atoms: C15_19  and  C16_20 
ROOT
HETATM    1  C1  UNL     1      27.163   4.355  48.958  1.00  0.00     0.068 C 
HETATM    2  C2  UNL     1      25.718   4.494  49.331  1.00  0.00     0.013 C 
HETATM    3  C3  UNL     1      25.267   5.723  49.178  1.00  0.00     0.010 A 
HETATM    4  C4  UNL     1      24.877   7.150  48.965  1.00  0.00     0.115 A 
HETATM    5  C5  UNL     1      23.799   6.212  49.257  1.00  0.00     0.198 A 
HETATM    6  O2  UNL     1      23.349   5.855  50.539  1.00  0.00    -0.312 OA
HETATM    7  C6  UNL     1      23.293   4.547  51.082  1.00  0.00     0.074 C 
HETATM    8  C7  UNL     1      22.254   4.419  52.114  1.00  0.00     0.079 C 
HETATM    9  C8  UNL     1      23.956   3.429  50.894  1.00  0.00     0.072 C 
HETATM   10  N2  UNL     1      24.933   3.417  49.821  1.00  0.00    -0.357 N 
HETATM   11  H16 UNL     1      25.157   2.522  49.256  1.00  0.00     0.166 HD
ENDROOT
BRANCH   9  12
HETATM   12  C9  UNL     1      23.814   2.137  51.485  1.00  0.00     0.007 C 
HETATM   13  C10 UNL     1      24.583   1.413  52.256  1.00  0.00     0.088 C 
HETATM   14  C11 UNL     1      24.793   0.163  53.005  1.00  0.00     0.245 C 
HETATM   15  O3  UNL     1      25.990  -0.134  53.180  1.00  0.00    -0.268 OA
HETATM   16  N1  UNL     1      23.752  -0.705  53.530  1.00  0.00    -0.334 N 
HETATM   17  C12 UNL     1      22.303  -0.698  53.510  1.00  0.00     0.091 C 
HETATM   18  H11 UNL     1      24.180  -1.520  54.039  1.00  0.00     0.168 HD
HETATM   19  C13 UNL     1      21.492  -0.157  52.580  1.00  0.00     0.018 C 
HETATM   20  C14 UNL     1      21.684   0.569  51.333  1.00  0.00     0.012 C 
HETATM   21  C15 UNL     1      22.602   1.440  50.973  1.00  0.00    -0.012 C 
BRANCH  21  22
HETATM   22  C16 UNL     1      22.335   1.729  49.531  1.00  0.00     0.430 C 
HETATM   23  O4  UNL     1      21.604   1.010  48.821  1.00  0.00    -0.426 OA
ENDBRANCH  21  22
ENDBRANCH   9  12
BRANCH   5  24
HETATM   24  O1  UNL     1      23.026   5.692  48.207  1.00  0.00    -0.361 OA
HETATM   25  H6  UNL     1      22.424   4.963  48.507  1.00  0.00     0.213 HD
ENDBRANCH   5  24
TORSDOF 3
ENDMDL
MODEL 7
REMARK VINA RESULT:      -7.0      3.707      5.944
REMARK  3 active torsions:
REMARK  status: ('A' for Active; 'I' for Inactive)
REMARK    1  A    between atoms: C5_5  and  O1_6 
REMARK    2  A    between atoms: C8_10  and  C9_11 
REMARK    3  A    between atoms: C15_19  and  C16_20 
ROOT
HETATM    1  C1  UNL     1      23.493   7.325  47.051  1.00  0.00     0.068 C 
HETATM    2  C2  UNL     1      24.414   6.659  48.028  1.00  0.00     0.013 C 
HETATM    3  C3  UNL     1      25.667   7.048  47.894  1.00  0.00     0.010 A 
HETATM    4  C4  UNL     1      27.046   7.567  47.645  1.00  0.00     0.115 A 
HETATM    5  C5  UNL     1      26.858   6.751  48.839  1.00  0.00     0.198 A 
HETATM    6  O2  UNL     1      26.955   5.351  48.899  1.00  0.00    -0.312 OA
HETATM    7  C6  UNL     1      25.951   4.452  49.338  1.00  0.00     0.074 C 
HETATM    8  C7  UNL     1      26.518   3.202  49.864  1.00  0.00     0.079 C 
HETATM    9  C8  UNL     1      24.638   4.463  49.372  1.00  0.00     0.072 C 
HETATM   10  N2  UNL     1      23.980   5.694  48.974  1.00  0.00    -0.357 N 
HETATM   11  H16 UNL     1      23.038   6.008  49.403  1.00  0.00     0.166 HD
ENDROOT
BRANCH   9  12
HETATM   12  C9  UNL     1      23.699   3.502  49.856  1.00  0.00     0.007 C 
HETATM   13  C10 UNL     1      22.928   2.624  49.267  1.00  0.00     0.088 C 
HETATM   14  C11 UNL     1      21.919   1.559  49.384  1.00  0.00     0.245 C 
HETATM   15  O3  UNL     1      21.208   1.414  48.372  1.00  0.00    -0.268 OA
HETATM   16  N1  UNL     1      21.707   0.706  50.541  1.00  0.00    -0.334 N 
HETATM   17  C12 UNL     1      22.303   0.593  51.858  1.00  0.00     0.091 C 
HETATM   18  H11 UNL     1      20.934   0.017  50.350  1.00  0.00     0.168 HD
HETATM   19  C13 UNL     1      22.891   1.564  52.584  1.00  0.00     0.018 C 
HETATM   20  C14 UNL     1      23.156   2.983  52.396  1.00  0.00     0.012 C 
HETATM   21  C15 UNL     1      23.461   3.669  51.317  1.00  0.00    -0.012 C 
BRANCH  21  22
HETATM   22  C16 UNL     1      23.483   5.101  51.745  1.00  0.00     0.430 C 
HETATM   23  O4  UNL     1      22.486   5.847  51.661  1.00  0.00    -0.426 OA
ENDBRANCH  21  22
ENDBRANCH   9  12
BRANCH   5  24
HETATM   24  O1  UNL     1      26.693   7.374  50.087  1.00  0.00    -0.361 OA
HETATM   25  H6  UNL     1      27.557   7.520  50.552  1.00  0.00     0.213 HD
ENDBRANCH   5  24
TORSDOF 3
ENDMDL
MODEL 8
REMARK VINA RESULT:      -6.8      2.634      6.144
REMARK  3 active torsions:
REMARK  status: ('A' for Active; 'I' for Inactive)
REMARK    1  A    between atoms: C5_5  and  O1_6 
REMARK    2  A    between atoms: C8_10  and  C9_11 
REMARK    3  A    between atoms: C15_19  and  C16_20 
ROOT
HETATM    1  C1  UNL     1      20.929  -0.266  54.608  1.00  0.00     0.068 C 
HETATM    2  C2  UNL     1      20.708   0.391  53.279  1.00  0.00     0.013 C 
HETATM    3  C3  UNL     1      19.594  -0.001  52.695  1.00  0.00     0.010 A 
HETATM    4  C4  UNL     1      18.310  -0.524  52.136  1.00  0.00     0.115 A 
HETATM    5  C5  UNL     1      18.924   0.596  51.432  1.00  0.00     0.198 A 
HETATM    6  O2  UNL     1      19.883   0.494  50.410  1.00  0.00    -0.312 OA
HETATM    7  C6  UNL     1      21.176   1.073  50.405  1.00  0.00     0.074 C 
HETATM    8  C7  UNL     1      21.665   1.324  49.041  1.00  0.00     0.079 C 
HETATM    9  C8  UNL     1      22.046   1.423  51.324  1.00  0.00     0.072 C 
HETATM   10  N2  UNL     1      21.621   1.316  52.707  1.00  0.00    -0.357 N 
HETATM   11  H16 UNL     1      21.982   1.987  53.475  1.00  0.00     0.166 HD
ENDROOT
BRANCH   9  12
HETATM   12  C9  UNL     1      23.338   2.023  51.221  1.00  0.00     0.007 C 
HETATM   13  C10 UNL     1      24.543   1.622  51.537  1.00  0.00     0.088 C 
HETATM   14  C11 UNL     1      25.987   1.903  51.593  1.00  0.00     0.245 C 
HETATM   15  O3  UNL     1      26.599   1.264  52.469  1.00  0.00    -0.268 OA
HETATM   16  N1  UNL     1      26.712   2.827  50.737  1.00  0.00    -0.334 N 
HETATM   17  C12 UNL     1      26.351   3.725  49.657  1.00  0.00     0.091 C 
HETATM   18  H11 UNL     1      27.736   2.820  50.978  1.00  0.00     0.168 HD
HETATM   19  C13 UNL     1      25.171   4.342  49.456  1.00  0.00     0.018 C 
HETATM   20  C14 UNL     1      23.890   4.381  50.147  1.00  0.00     0.012 C 
HETATM   21  C15 UNL     1      23.238   3.451  50.810  1.00  0.00    -0.012 C 
BRANCH  21  22
HETATM   22  C16 UNL     1      22.045   4.137  51.394  1.00  0.00     0.430 C 
HETATM   23  O4  UNL     1      22.050   4.648  52.533  1.00  0.00    -0.426 OA
ENDBRANCH  21  22
ENDBRANCH   9  12
BRANCH   5  24
HETATM   24  O1  UNL     1      18.460   1.900  51.663  1.00  0.00    -0.361 OA
HETATM   25  H6  UNL     1      18.951   2.575  51.128  1.00  0.00     0.213 HD
ENDBRANCH   5  24
TORSDOF 3
ENDMDL
MODEL 9
REMARK VINA RESULT:      -6.6      2.624      5.282
REMARK  3 active torsions:
REMARK  status: ('A' for Active; 'I' for Inactive)
REMARK    1  A    between atoms: C5_5  and  O1_6 
REMARK    2  A    between atoms: C8_10  and  C9_11 
REMARK    3  A    between atoms: C15_19  and  C16_20 
ROOT
HETATM    1  C1  UNL     1      26.728   3.189  49.623  1.00  0.00     0.068 C 
HETATM    2  C2  UNL     1      25.314   3.680  49.712  1.00  0.00     0.013 C 
HETATM    3  C3  UNL     1      25.175   4.914  49.268  1.00  0.00     0.010 A 
HETATM    4  C4  UNL     1      25.146   6.313  48.741  1.00  0.00     0.115 A 
HETATM    5  C5  UNL     1      23.857   5.684  49.004  1.00  0.00     0.198 A 
HETATM    6  O2  UNL     1      23.174   5.699  50.232  1.00  0.00    -0.312 OA
HETATM    7  C6  UNL     1      22.755   4.570  50.980  1.00  0.00     0.074 C 
HETATM    8  C7  UNL     1      21.589   4.866  51.823  1.00  0.00     0.079 C 
HETATM    9  C8  UNL     1      23.170   3.331  51.111  1.00  0.00     0.072 C 
HETATM   10  N2  UNL     1      24.251   2.903  50.242  1.00  0.00    -0.357 N 
HETATM   11  H16 UNL     1      24.341   1.884  49.891  1.00  0.00     0.166 HD
ENDROOT
BRANCH   9  12
HETATM   12  C9  UNL     1      22.666   2.244  51.888  1.00  0.00     0.007 C 
HETATM   13  C10 UNL     1      21.480   1.706  52.019  1.00  0.00     0.088 C 
HETATM   14  C11 UNL     1      20.625   0.687  52.648  1.00  0.00     0.245 C 
HETATM   15  O3  UNL     1      19.420   0.995  52.706  1.00  0.00    -0.268 OA
HETATM   16  N1  UNL     1      21.068  -0.592  53.178  1.00  0.00    -0.334 N 
HETATM   17  C12 UNL     1      22.345  -1.267  53.300  1.00  0.00     0.091 C 
HETATM   18  H11 UNL     1      20.248  -1.135  53.554  1.00  0.00     0.168 HD
HETATM   19  C13 UNL     1      23.566  -0.709  53.412  1.00  0.00     0.018 C 
HETATM   20  C14 UNL     1      24.085   0.651  53.458  1.00  0.00     0.012 C 
HETATM   21  C15 UNL     1      23.691   1.746  52.847  1.00  0.00    -0.012 C 
BRANCH  21  22
HETATM   22  C16 UNL     1      24.543   2.842  53.401  1.00  0.00     0.430 C 
HETATM   23  O4  UNL     1      25.761   2.699  53.637  1.00  0.00    -0.426 OA
ENDBRANCH  21  22
ENDBRANCH   9  12
BRANCH   5  24
HETATM   24  O1  UNL     1      23.131   5.116  47.946  1.00  0.00    -0.361 OA
HETATM   25  H6  UNL     1      22.458   5.741  47.572  1.00  0.00     0.213 HD
ENDBRANCH   5  24
TORSDOF 3
ENDMDL
