MODEL 1
REMARK VINA RESULT:      -8.5      0.000      0.000
REMARK  1 active torsions:
REMARK  status: ('A' for Active; 'I' for Inactive)
REMARK    1  A    between atoms: C3_3  and  C4_4 
ROOT
HETATM    1  C4  UNL     1      26.017  -0.898  52.981  1.00  0.00     0.059 C 
HETATM    2  C5  UNL     1      25.255   0.104  52.930  1.00  0.00     0.140 C 
HETATM    3  O1  UNL     1      23.980  -0.541  53.236  1.00  0.00    -0.306 OA
HETATM    4  C6  UNL     1      22.556  -0.108  52.878  1.00  0.00     0.549 A 
HETATM    5  N1  UNL     1      22.163  -0.122  54.199  1.00  0.00     0.425 N 
HETATM    6  C7  UNL     1      20.845   0.263  54.539  1.00  0.00     0.616 A 
HETATM    7  N2  UNL     1      21.980  -0.029  53.884  1.00  0.00     0.425 N 
HETATM    8  N3  UNL     1      21.935   0.093  52.644  1.00  0.00     0.000 N 
HETATM    9  C8  UNL     1      23.011   1.020  51.801  1.00  0.00     0.021 A 
HETATM   10  C9  UNL     1      23.947   2.003  52.296  1.00  0.00     0.012 C 
HETATM   11  C10 UNL     1      23.406   3.326  52.463  1.00  0.00     0.045 C 
HETATM   12  C11 UNL     1      22.043   3.398  51.657  1.00  0.00     0.119 C 
HETATM   13  C12 UNL     1      21.525   4.776  51.944  1.00  0.00     0.039 C 
HETATM   14  O2  UNL     1      21.169   2.406  51.763  1.00  0.00    -0.378 OA
HETATM   15  C13 UNL     1      20.109   1.582  51.595  1.00  0.00     0.163 C 
HETATM   16  C14 UNL     1      20.726   0.487  51.130  1.00  0.00     0.028 C 
HETATM   17  C15 UNL     1      21.916   0.206  51.403  1.00  0.00     0.090 A 
HETATM   18  C16 UNL     1      25.332   1.660  52.653  1.00  0.00     0.218 C 
HETATM   19  F1  UNL     1      26.174   1.848  51.649  1.00  0.00    -0.245 F 
ENDROOT
BRANCH   1  20
HETATM   20  C3  UNL     1      27.261  -1.622  52.914  1.00  0.00    -0.022 C 
HETATM   21  C2  UNL     1      28.187  -0.726  53.319  1.00  0.00    -0.034 C 
HETATM   22  C1  UNL     1      29.594  -1.237  53.340  1.00  0.00     0.036 C 
ENDBRANCH   1  20
TORSDOF 1
ENDMDL
MODEL 2
REMARK VINA RESULT:      -8.3      3.606      5.643
REMARK  1 active torsions:
REMARK  status: ('A' for Active; 'I' for Inactive)
REMARK    1  A    between atoms: C3_3  and  C4_4 
ROOT
HETATM    1  C4  UNL     1      26.781   4.233  49.742  1.00  0.00     0.059 C 
HETATM    2  C5  UNL     1      26.080   3.585  50.563  1.00  0.00     0.140 C 
HETATM    3  O1  UNL     1      27.139   2.911  51.312  1.00  0.00    -0.306 OA
HETATM    4  C6  UNL     1      27.091   1.606  52.111  1.00  0.00     0.549 A 
HETATM    5  N1  UNL     1      27.543   2.230  53.255  1.00  0.00     0.425 N 
HETATM    6  C7  UNL     1      27.675   1.484  54.450  1.00  0.00     0.616 A 
HETATM    7  N2  UNL     1      27.438   1.875  53.188  1.00  0.00     0.425 N 
HETATM    8  N3  UNL     1      27.040   0.983  52.411  1.00  0.00     0.000 N 
HETATM    9  C8  UNL     1      25.653   1.128  51.527  1.00  0.00     0.021 A 
HETATM   10  C9  UNL     1      24.580   2.085  51.667  1.00  0.00     0.012 C 
HETATM   11  C10 UNL     1      23.568   1.727  52.626  1.00  0.00     0.045 C 
HETATM   12  C11 UNL     1      23.726   0.181  52.942  1.00  0.00     0.119 C 
HETATM   13  C12 UNL     1      22.685  -0.082  53.990  1.00  0.00     0.039 C 
HETATM   14  O2  UNL     1      24.933  -0.319  53.172  1.00  0.00    -0.378 OA
HETATM   15  C13 UNL     1      25.976  -1.152  53.393  1.00  0.00     0.163 C 
HETATM   16  C14 UNL     1      26.683  -0.956  52.271  1.00  0.00     0.028 C 
HETATM   17  C15 UNL     1      26.642   0.111  51.615  1.00  0.00     0.090 A 
HETATM   18  C16 UNL     1      24.557   3.354  50.926  1.00  0.00     0.218 C 
HETATM   19  F1  UNL     1      23.883   3.264  49.790  1.00  0.00    -0.245 F 
ENDROOT
BRANCH   1  20
HETATM   20  C3  UNL     1      27.050   5.134  48.649  1.00  0.00    -0.022 C 
HETATM   21  C2  UNL     1      26.119   6.103  48.783  1.00  0.00    -0.034 C 
HETATM   22  C1  UNL     1      26.179   7.184  47.749  1.00  0.00     0.036 C 
ENDBRANCH   1  20
TORSDOF 1
ENDMDL
MODEL 3
REMARK VINA RESULT:      -8.2      2.282      3.501
REMARK  1 active torsions:
REMARK  status: ('A' for Active; 'I' for Inactive)
REMARK    1  A    between atoms: C3_3  and  C4_4 
ROOT
HETATM    1  C4  UNL     1      27.462   1.197  52.930  1.00  0.00     0.059 C 
HETATM    2  C5  UNL     1      26.228   1.074  52.713  1.00  0.00     0.140 C 
HETATM    3  O1  UNL     1      26.008   2.245  51.867  1.00  0.00    -0.306 OA
HETATM    4  C6  UNL     1      24.728   3.046  51.621  1.00  0.00     0.549 A 
HETATM    5  N1  UNL     1      24.809   2.858  50.258  1.00  0.00     0.425 N 
HETATM    6  C7  UNL     1      23.793   3.374  49.420  1.00  0.00     0.616 A 
HETATM    7  N2  UNL     1      24.553   3.031  50.472  1.00  0.00     0.425 N 
HETATM    8  N3  UNL     1      24.141   3.415  51.585  1.00  0.00     0.000 N 
HETATM    9  C8  UNL     1      23.899   2.380  52.850  1.00  0.00     0.021 A 
HETATM   10  C9  UNL     1      23.844   0.937  52.846  1.00  0.00     0.012 C 
HETATM   11  C10 UNL     1      22.553   0.379  52.541  1.00  0.00     0.045 C 
HETATM   12  C11 UNL     1      21.476   1.531  52.706  1.00  0.00     0.119 C 
HETATM   13  C12 UNL     1      20.185   0.880  52.305  1.00  0.00     0.039 C 
HETATM   14  O2  UNL     1      21.717   2.729  52.191  1.00  0.00    -0.378 OA
HETATM   15  C13 UNL     1      21.653   4.038  51.855  1.00  0.00     0.163 C 
HETATM   16  C14 UNL     1      22.748   4.499  52.474  1.00  0.00     0.028 C 
HETATM   17  C15 UNL     1      23.751   3.787  52.709  1.00  0.00     0.090 A 
HETATM   18  C16 UNL     1      25.033   0.104  53.082  1.00  0.00     0.218 C 
HETATM   19  F1  UNL     1      25.168  -0.235  54.355  1.00  0.00    -0.245 F 
ENDROOT
BRANCH   1  20
HETATM   20  C3  UNL     1      28.754   0.856  53.472  1.00  0.00    -0.022 C 
HETATM   21  C2  UNL     1      28.825  -0.486  53.335  1.00  0.00    -0.034 C 
HETATM   22  C1  UNL     1      30.094  -1.105  53.833  1.00  0.00     0.036 C 
ENDBRANCH   1  20
TORSDOF 1
ENDMDL
MODEL 4
REMARK VINA RESULT:      -8.2      2.870      5.692
REMARK  1 active torsions:
REMARK  status: ('A' for Active; 'I' for Inactive)
REMARK    1  A    between atoms: C3_3  and  C4_4 
ROOT
HETATM    1  C4  UNL     1      18.494  -0.903  53.084  1.00  0.00     0.059 C 
HETATM    2  C5  UNL     1      19.674  -0.492  53.249  1.00  0.00     0.140 C 
HETATM    3  O1  UNL     1      19.608   0.755  52.489  1.00  0.00    -0.306 OA
HETATM    4  C6  UNL     1      20.730   1.545  51.811  1.00  0.00     0.549 A 
HETATM    5  N1  UNL     1      20.418   2.691  52.513  1.00  0.00     0.425 N 
HETATM    6  C7  UNL     1      21.202   3.854  52.333  1.00  0.00     0.616 A 
HETATM    7  N2  UNL     1      20.690   2.615  52.264  1.00  0.00     0.425 N 
HETATM    8  N3  UNL     1      21.257   1.839  51.469  1.00  0.00     0.000 N 
HETATM    9  C8  UNL     1      21.837   0.362  51.929  1.00  0.00     0.021 A 
HETATM   10  C9  UNL     1      22.042  -0.160  53.260  1.00  0.00     0.012 C 
HETATM   11  C10 UNL     1      23.306   0.180  53.857  1.00  0.00     0.045 C 
HETATM   12  C11 UNL     1      24.267   0.686  52.702  1.00  0.00     0.119 C 
HETATM   13  C12 UNL     1      25.523   1.079  53.423  1.00  0.00     0.039 C 
HETATM   14  O2  UNL     1      23.810   1.547  51.803  1.00  0.00    -0.378 OA
HETATM   15  C13 UNL     1      23.672   2.352  50.724  1.00  0.00     0.163 C 
HETATM   16  C14 UNL     1      22.668   1.733  50.089  1.00  0.00     0.028 C 
HETATM   17  C15 UNL     1      21.806   1.044  50.682  1.00  0.00     0.090 A 
HETATM   18  C16 UNL     1      21.012  -0.934  53.968  1.00  0.00     0.218 C 
HETATM   19  F1  UNL     1      21.150  -2.239  53.793  1.00  0.00    -0.245 F 
ENDROOT
BRANCH   1  20
HETATM   20  C3  UNL     1      17.368  -1.791  53.224  1.00  0.00    -0.022 C 
HETATM   21  C2  UNL     1      17.919  -2.965  53.600  1.00  0.00    -0.034 C 
HETATM   22  C1  UNL     1      16.944  -4.081  53.816  1.00  0.00     0.036 C 
ENDBRANCH   1  20
TORSDOF 1
ENDMDL
MODEL 5
REMARK VINA RESULT:      -8.0      3.388      4.923
REMARK  1 active torsions:
REMARK  status: ('A' for Active; 'I' for Inactive)
REMARK    1  A    between atoms: C3_3  and  C4_4 
ROOT
HETATM    1  C4  UNL     1      26.629   4.059  49.189  1.00  0.00     0.059 C 
HETATM    2  C5  UNL     1      26.044   3.201  49.901  1.00  0.00     0.140 C 
HETATM    3  O1  UNL     1      24.676   3.369  49.415  1.00  0.00    -0.306 OA
HETATM    4  C6  UNL     1      23.347   3.063  50.111  1.00  0.00     0.549 A 
HETATM    5  N1  UNL     1      22.941   2.235  49.087  1.00  0.00     0.425 N 
HETATM    6  C7  UNL     1      21.700   1.562  49.184  1.00  0.00     0.616 A 
HETATM    7  N2  UNL     1      22.779   2.327  49.413  1.00  0.00     0.425 N 
HETATM    8  N3  UNL     1      22.771   2.967  50.484  1.00  0.00     0.000 N 
HETATM    9  C8  UNL     1      23.996   2.871  51.588  1.00  0.00     0.021 A 
HETATM   10  C9  UNL     1      25.075   1.913  51.668  1.00  0.00     0.012 C 
HETATM   11  C10 UNL     1      24.758   0.698  52.371  1.00  0.00     0.045 C 
HETATM   12  C11 UNL     1      23.435   0.953  53.207  1.00  0.00     0.119 C 
HETATM   13  C12 UNL     1      23.148  -0.375  53.844  1.00  0.00     0.039 C 
HETATM   14  O2  UNL     1      22.408   1.566  52.634  1.00  0.00    -0.378 OA
HETATM   15  C13 UNL     1      21.229   2.186  52.399  1.00  0.00     0.163 C 
HETATM   16  C14 UNL     1      21.663   3.408  52.060  1.00  0.00     0.028 C 
HETATM   17  C15 UNL     1      22.787   3.616  51.548  1.00  0.00     0.090 A 
HETATM   18  C16 UNL     1      26.379   2.144  51.030  1.00  0.00     0.218 C 
HETATM   19  F1  UNL     1      27.254   2.701  51.854  1.00  0.00    -0.245 F 
ENDROOT
BRANCH   1  20
HETATM   20  C3  UNL     1      27.738   4.829  48.682  1.00  0.00    -0.022 C 
HETATM   21  C2  UNL     1      27.210   6.048  48.442  1.00  0.00    -0.034 C 
HETATM   22  C1  UNL     1      28.173   7.057  47.896  1.00  0.00     0.036 C 
ENDBRANCH   1  20
TORSDOF 1
ENDMDL
MODEL 6
REMARK VINA RESULT:      -7.9      2.014      3.256
REMARK  1 active torsions:
REMARK  status: ('A' for Active; 'I' for Inactive)
REMARK    1  A    between atoms: C3_3  and  C4_4 
ROOT
HETATM    1  C4  UNL     1      25.767   0.813  52.582  1.00  0.00     0.059 C 
HETATM    2  C5  UNL     1      24.571   0.421  52.615  1.00  0.00     0.140 C 
HETATM    3  O1  UNL     1      24.002   1.279  51.579  1.00  0.00    -0.306 OA
HETATM    4  C6  UNL     1      22.559   1.750  51.384  1.00  0.00     0.549 A 
HETATM    5  N1  UNL     1      22.508   1.238  50.105  1.00  0.00     0.425 N 
HETATM    6  C7  UNL     1      21.309   1.335  49.361  1.00  0.00     0.616 A 
HETATM    7  N2  UNL     1      22.250   1.411  50.316  1.00  0.00     0.425 N 
HETATM    8  N3  UNL     1      21.907   1.987  51.368  1.00  0.00     0.000 N 
HETATM    9  C8  UNL     1      22.051   1.284  52.855  1.00  0.00     0.021 A 
HETATM   10  C9  UNL     1      22.308  -0.099  53.186  1.00  0.00     0.012 C 
HETATM   11  C10 UNL     1      21.139  -0.936  53.242  1.00  0.00     0.045 C 
HETATM   12  C11 UNL     1      19.869   0.009  53.328  1.00  0.00     0.119 C 
HETATM   13  C12 UNL     1      18.708  -0.941  53.314  1.00  0.00     0.039 C 
HETATM   14  O2  UNL     1      19.781   1.059  52.523  1.00  0.00    -0.378 OA
HETATM   15  C13 UNL     1      19.396   2.206  51.917  1.00  0.00     0.163 C 
HETATM   16  C14 UNL     1      20.436   2.997  52.217  1.00  0.00     0.028 C 
HETATM   17  C15 UNL     1      21.589   2.558  52.429  1.00  0.00     0.090 A 
HETATM   18  C16 UNL     1      23.667  -0.619  53.394  1.00  0.00     0.218 C 
HETATM   19  F1  UNL     1      24.030  -0.592  54.667  1.00  0.00    -0.245 F 
ENDROOT
BRANCH   1  20
HETATM   20  C3  UNL     1      27.160   0.857  52.954  1.00  0.00    -0.022 C 
HETATM   21  C2  UNL     1      27.511  -0.442  53.067  1.00  0.00    -0.034 C 
HETATM   22  C1  UNL     1      28.938  -0.679  53.454  1.00  0.00     0.036 C 
ENDBRANCH   1  20
TORSDOF 1
ENDMDL
MODEL 7
REMARK VINA RESULT:      -7.9      2.626      5.511
REMARK  1 active torsions:
REMARK  status: ('A' for Active; 'I' for Inactive)
REMARK    1  A    between atoms: C3_3  and  C4_4 
ROOT
HETATM    1  C4  UNL     1      20.039   0.679  52.236  1.00  0.00     0.059 C 
HETATM    2  C5  UNL     1      21.258   0.909  52.457  1.00  0.00     0.140 C 
HETATM    3  O1  UNL     1      21.352   2.266  51.922  1.00  0.00    -0.306 OA
HETATM    4  C6  UNL     1      22.568   3.019  51.377  1.00  0.00     0.549 A 
HETATM    5  N1  UNL     1      22.390   4.057  52.267  1.00  0.00     0.425 N 
HETATM    6  C7  UNL     1      23.312   5.130  52.280  1.00  0.00     0.616 A 
HETATM    7  N2  UNL     1      22.654   3.993  52.006  1.00  0.00     0.425 N 
HETATM    8  N3  UNL     1      23.131   3.300  51.085  1.00  0.00     0.000 N 
HETATM    9  C8  UNL     1      23.522   1.707  51.279  1.00  0.00     0.021 A 
HETATM   10  C9  UNL     1      23.648   0.944  52.500  1.00  0.00     0.012 C 
HETATM   11  C10 UNL     1      24.938   1.022  53.133  1.00  0.00     0.045 C 
HETATM   12  C11 UNL     1      25.966   1.598  52.072  1.00  0.00     0.119 C 
HETATM   13  C12 UNL     1      27.253   1.706  52.836  1.00  0.00     0.039 C 
HETATM   14  O2  UNL     1      25.626   2.649  51.338  1.00  0.00    -0.378 OA
HETATM   15  C13 UNL     1      25.598   3.636  50.413  1.00  0.00     0.163 C 
HETATM   16  C14 UNL     1      24.533   3.261  49.692  1.00  0.00     0.028 C 
HETATM   17  C15 UNL     1      23.588   2.590  50.168  1.00  0.00     0.090 A 
HETATM   18  C16 UNL     1      22.525   0.192  53.076  1.00  0.00     0.218 C 
HETATM   19  F1  UNL     1      22.505  -1.071  52.680  1.00  0.00    -0.245 F 
ENDROOT
BRANCH   1  20
HETATM   20  C3  UNL     1      18.812  -0.078  52.235  1.00  0.00    -0.022 C 
HETATM   21  C2  UNL     1      18.981  -0.982  53.223  1.00  0.00    -0.034 C 
HETATM   22  C1  UNL     1      17.826  -1.911  53.433  1.00  0.00     0.036 C 
ENDBRANCH   1  20
TORSDOF 1
ENDMDL
MODEL 8
REMARK VINA RESULT:      -7.6      9.752     11.560
REMARK  1 active torsions:
REMARK  status: ('A' for Active; 'I' for Inactive)
REMARK    1  A    between atoms: C3_3  and  C4_4 
ROOT
HETATM    1  C4  UNL     1      28.243   5.346  48.423  1.00  0.00     0.059 C 
HETATM    2  C5  UNL     1      29.211   5.894  47.832  1.00  0.00     0.140 C 
HETATM    3  O1  UNL     1      30.202   4.825  47.941  1.00  0.00    -0.306 OA
HETATM    4  C6  UNL     1      31.730   4.904  47.921  1.00  0.00     0.549 A 
HETATM    5  N1  UNL     1      31.815   4.018  46.868  1.00  0.00     0.425 N 
HETATM    6  C7  UNL     1      33.081   3.699  46.324  1.00  0.00     0.616 A 
HETATM    7  N2  UNL     1      32.078   4.209  47.056  1.00  0.00     0.425 N 
HETATM    8  N3  UNL     1      32.417   4.992  47.967  1.00  0.00     0.000 N 
HETATM    9  C8  UNL     1      31.797   6.517  48.106  1.00  0.00     0.021 A 
HETATM   10  C9  UNL     1      31.035   7.280  47.145  1.00  0.00     0.012 C 
HETATM   11  C10 UNL     1      31.823   8.017  46.194  1.00  0.00     0.045 C 
HETATM   12  C11 UNL     1      33.305   8.096  46.750  1.00  0.00     0.119 C 
HETATM   13  C12 UNL     1      34.059   8.816  45.670  1.00  0.00     0.039 C 
HETATM   14  O2  UNL     1      33.877   7.005  47.240  1.00  0.00    -0.378 OA
HETATM   15  C13 UNL     1      34.724   6.138  47.842  1.00  0.00     0.163 C 
HETATM   16  C14 UNL     1      33.982   5.766  48.894  1.00  0.00     0.028 C 
HETATM   17  C15 UNL     1      32.729   5.777  48.883  1.00  0.00     0.090 A 
HETATM   18  C16 UNL     1      29.565   7.257  47.111  1.00  0.00     0.218 C 
HETATM   19  F1  UNL     1      29.028   8.238  47.820  1.00  0.00    -0.245 F 
ENDROOT
BRANCH   1  20
HETATM   20  C3  UNL     1      26.907   5.229  48.953  1.00  0.00    -0.022 C 
HETATM   21  C2  UNL     1      26.810   3.933  49.318  1.00  0.00    -0.034 C 
HETATM   22  C1  UNL     1      25.491   3.541  49.910  1.00  0.00     0.036 C 
ENDBRANCH   1  20
TORSDOF 1
ENDMDL
MODEL 9
REMARK VINA RESULT:      -7.5      3.643      5.134
REMARK  1 active torsions:
REMARK  status: ('A' for Active; 'I' for Inactive)
REMARK    1  A    between atoms: C3_3  and  C4_4 
ROOT
HETATM    1  C4  UNL     1      26.293   5.058  48.970  1.00  0.00     0.059 C 
HETATM    2  C5  UNL     1      25.731   4.114  49.586  1.00  0.00     0.140 C 
HETATM    3  O1  UNL     1      24.333   4.428  49.294  1.00  0.00    -0.306 OA
HETATM    4  C6  UNL     1      23.067   4.063  50.073  1.00  0.00     0.549 A 
HETATM    5  N1  UNL     1      22.504   3.450  48.973  1.00  0.00     0.425 N 
HETATM    6  C7  UNL     1      21.240   2.828  49.093  1.00  0.00     0.616 A 
HETATM    7  N2  UNL     1      22.384   3.490  49.327  1.00  0.00     0.425 N 
HETATM    8  N3  UNL     1      22.528   3.928  50.486  1.00  0.00     0.000 N 
HETATM    9  C8  UNL     1      23.851   3.580  51.411  1.00  0.00     0.021 A 
HETATM   10  C9  UNL     1      24.869   2.577  51.202  1.00  0.00     0.012 C 
HETATM   11  C10 UNL     1      24.548   1.271  51.715  1.00  0.00     0.045 C 
HETATM   12  C11 UNL     1      23.339   1.432  52.727  1.00  0.00     0.119 C 
HETATM   13  C12 UNL     1      23.034   0.026  53.154  1.00  0.00     0.039 C 
HETATM   14  O2  UNL     1      22.300   2.183  52.389  1.00  0.00    -0.378 OA
HETATM   15  C13 UNL     1      21.145   2.888  52.400  1.00  0.00     0.163 C 
HETATM   16  C14 UNL     1      21.619   4.130  52.230  1.00  0.00     0.028 C 
HETATM   17  C15 UNL     1      22.695   4.375  51.637  1.00  0.00     0.090 A 
HETATM   18  C16 UNL     1      26.112   2.859  50.470  1.00  0.00     0.218 C 
HETATM   19  F1  UNL     1      27.102   3.219  51.273  1.00  0.00    -0.245 F 
ENDROOT
BRANCH   1  20
HETATM   20  C3  UNL     1      27.391   5.855  48.481  1.00  0.00    -0.022 C 
HETATM   21  C2  UNL     1      28.420   4.985  48.402  1.00  0.00    -0.034 C 
HETATM   22  C1  UNL     1      29.707   5.572  47.912  1.00  0.00     0.036 C 
ENDBRANCH   1  20
TORSDOF 1
ENDMDL
