MODEL 1
REMARK VINA RESULT:      -8.9      0.000      0.000
REMARK  7 active torsions:
REMARK  status: ('A' for Active; 'I' for Inactive)
REMARK    1  A    between atoms: O1_2  and  C2_3 
REMARK    2  A    between atoms: C8_11  and  C9_12 
REMARK    3  A    between atoms: C9_12  and  C10_13 
REMARK    4  A    between atoms: C18_23  and  N3_24 
REMARK       I    between atoms: N3_24  and  C19_25 
REMARK    5  A    between atoms: C19_25  and  C20_27 
REMARK    6  A    between atoms: C21_28  and  C22_29 
REMARK    7  A    between atoms: C22_29  and  N4_30 
ROOT
HETATM    1  C2  UNL     1      22.871   3.192  49.168  1.00  0.00     0.097 A 
HETATM    2  C3  UNL     1      22.027   2.141  49.460  1.00  0.00     0.071 A 
HETATM    3  C4  UNL     1      22.194   1.471  50.647  1.00  0.00     0.070 A 
HETATM    4  N1  UNL     1      21.327   0.465  50.848  1.00  0.00    -0.259 NA
HETATM    5  C5  UNL     1      21.412  -0.248  51.984  1.00  0.00     0.140 A 
HETATM    6  C6  UNL     1      22.377   0.055  52.922  1.00  0.00     0.069 A 
HETATM    7  C7  UNL     1      22.395  -0.743  54.113  1.00  0.00     0.101 C 
HETATM    8  N2  UNL     1      22.389  -1.378  55.061  1.00  0.00    -0.191 NA
HETATM    9  C8  UNL     1      23.291   1.063  52.786  1.00  0.00    -0.019 A 
HETATM   10  C16 UNL     1      23.153   1.761  51.595  1.00  0.00     0.003 A 
HETATM   11  C17 UNL     1      23.966   2.811  51.261  1.00  0.00     0.046 A 
HETATM   12  C18 UNL     1      23.849   3.525  50.082  1.00  0.00     0.069 A 
ENDROOT
BRANCH   9  13
HETATM   13  C9  UNL     1      24.349   1.418  53.756  1.00  0.00     0.079 C 
BRANCH  13  14
HETATM   14  C10 UNL     1      25.630   0.717  53.539  1.00  0.00    -0.052 A 
HETATM   15  C11 UNL     1      25.851  -0.473  52.880  1.00  0.00     0.010 A 
HETATM   16  C12 UNL     1      27.059  -1.084  52.693  1.00  0.00     0.044 A 
HETATM   17  C13 UNL     1      28.192  -0.464  53.212  1.00  0.00     0.138 A 
HETATM   18  F1  UNL     1      29.374  -1.088  53.015  1.00  0.00    -0.204 F 
HETATM   19  C14 UNL     1      28.036   0.729  53.883  1.00  0.00     0.073 A 
HETATM   20 CL1  UNL     1      29.523   1.414  54.489  1.00  0.00    -0.081 Cl
HETATM   21  C15 UNL     1      26.790   1.314  54.048  1.00  0.00     0.034 A 
ENDBRANCH  13  14
ENDBRANCH   9  13
BRANCH  12  22
HETATM   22  N3  UNL     1      24.754   4.618  49.820  1.00  0.00    -0.321 N 
HETATM   23  C19 UNL     1      25.972   4.008  49.355  1.00  0.00     0.245 C 
HETATM   24  O2  UNL     1      25.741   2.750  49.369  1.00  0.00    -0.268 OA
HETATM   25  H12 UNL     1      24.793   5.679  49.864  1.00  0.00     0.169 HD
BRANCH  23  26
HETATM   26  C20 UNL     1      27.229   4.595  48.941  1.00  0.00     0.072 C 
HETATM   27  C21 UNL     1      27.622   5.770  48.541  1.00  0.00     0.008 C 
BRANCH  27  28
HETATM   28  C22 UNL     1      27.154   7.144  48.263  1.00  0.00     0.299 C 
BRANCH  28  29
HETATM   29  N4  UNL     1      27.102   7.904  49.509  1.00  0.00     0.083 N 
HETATM   30  C23 UNL     1      27.904   9.090  49.443  1.00  0.00     0.309 C 
HETATM   31  C24 UNL     1      25.744   8.114  49.910  1.00  0.00     0.309 C 
ENDBRANCH  28  29
ENDBRANCH  27  28
ENDBRANCH  23  26
ENDBRANCH  12  22
BRANCH   1  32
HETATM   32  O1  UNL     1      22.817   3.951  48.014  1.00  0.00    -0.354 OA
HETATM   33  C1  UNL     1      21.933   3.787  46.951  1.00  0.00     0.210 C 
ENDBRANCH   1  32
TORSDOF 7
ENDMDL
MODEL 2
REMARK VINA RESULT:      -8.6      4.071      6.513
REMARK  7 active torsions:
REMARK  status: ('A' for Active; 'I' for Inactive)
REMARK    1  A    between atoms: O1_2  and  C2_3 
REMARK    2  A    between atoms: C8_11  and  C9_12 
REMARK    3  A    between atoms: C9_12  and  C10_13 
REMARK    4  A    between atoms: C18_23  and  N3_24 
REMARK       I    between atoms: N3_24  and  C19_25 
REMARK    5  A    between atoms: C19_25  and  C20_27 
REMARK    6  A    between atoms: C21_28  and  C22_29 
REMARK    7  A    between atoms: C22_29  and  N4_30 
ROOT
HETATM    1  C2  UNL     1      19.986  -0.707  53.499  1.00  0.00     0.097 A 
HETATM    2  C3  UNL     1      20.808  -1.170  54.504  1.00  0.00     0.071 A 
HETATM    3  C4  UNL     1      22.158  -0.935  54.414  1.00  0.00     0.070 A 
HETATM    4  N1  UNL     1      22.880  -1.420  55.438  1.00  0.00    -0.259 NA
HETATM    5  C5  UNL     1      24.211  -1.236  55.437  1.00  0.00     0.140 A 
HETATM    6  C6  UNL     1      24.818  -0.561  54.399  1.00  0.00     0.069 A 
HETATM    7  C7  UNL     1      26.240  -0.394  54.477  1.00  0.00     0.101 C 
HETATM    8  N2  UNL     1      27.370  -0.259  54.559  1.00  0.00    -0.191 NA
HETATM    9  C8  UNL     1      24.149  -0.040  53.326  1.00  0.00    -0.019 A 
HETATM   10  C16 UNL     1      22.780  -0.262  53.383  1.00  0.00     0.003 A 
HETATM   11  C17 UNL     1      21.924   0.179  52.410  1.00  0.00     0.046 A 
HETATM   12  C18 UNL     1      20.556  -0.026  52.443  1.00  0.00     0.069 A 
ENDROOT
BRANCH   9  13
HETATM   13  C9  UNL     1      24.755   0.681  52.185  1.00  0.00     0.079 C 
BRANCH  13  14
HETATM   14  C10 UNL     1      24.373   2.104  52.095  1.00  0.00    -0.052 A 
HETATM   15  C11 UNL     1      24.181   3.002  53.122  1.00  0.00     0.010 A 
HETATM   16  C12 UNL     1      23.836   4.318  52.994  1.00  0.00     0.044 A 
HETATM   17  C13 UNL     1      23.654   4.824  51.710  1.00  0.00     0.138 A 
HETATM   18  F1  UNL     1      23.313   6.127  51.610  1.00  0.00    -0.204 F 
HETATM   19  C14 UNL     1      23.831   3.974  50.640  1.00  0.00     0.073 A 
HETATM   20 CL1  UNL     1      23.577   4.716  49.081  1.00  0.00    -0.081 Cl
HETATM   21  C15 UNL     1      24.182   2.645  50.818  1.00  0.00     0.034 A 
ENDBRANCH  13  14
ENDBRANCH   9  13
BRANCH  12  22
HETATM   22  N3  UNL     1      19.735   0.478  51.369  1.00  0.00    -0.321 N 
HETATM   23  C19 UNL     1      19.485   1.859  51.690  1.00  0.00     0.245 C 
HETATM   24  O2  UNL     1      20.097   2.061  52.795  1.00  0.00    -0.268 OA
HETATM   25  H12 UNL     1      19.283   0.158  50.463  1.00  0.00     0.169 HD
BRANCH  23  26
HETATM   26  C20 UNL     1      18.727   2.874  50.988  1.00  0.00     0.072 C 
HETATM   27  C21 UNL     1      18.934   3.649  49.962  1.00  0.00     0.008 C 
BRANCH  27  28
HETATM   28  C22 UNL     1      19.928   4.005  48.928  1.00  0.00     0.299 C 
BRANCH  28  29
HETATM   29  N4  UNL     1      20.017   2.929  47.945  1.00  0.00     0.083 N 
HETATM   30  C23 UNL     1      19.877   3.418  46.606  1.00  0.00     0.309 C 
HETATM   31  C24 UNL     1      21.183   2.132  48.180  1.00  0.00     0.309 C 
ENDBRANCH  28  29
ENDBRANCH  27  28
ENDBRANCH  23  26
ENDBRANCH  12  22
BRANCH   1  32
HETATM   32  O1  UNL     1      18.615  -0.873  53.461  1.00  0.00    -0.354 OA
HETATM   33  C1  UNL     1      17.921  -2.079  53.493  1.00  0.00     0.210 C 
ENDBRANCH   1  32
TORSDOF 7
ENDMDL
MODEL 3
REMARK VINA RESULT:      -8.6      3.197      5.394
REMARK  7 active torsions:
REMARK  status: ('A' for Active; 'I' for Inactive)
REMARK    1  A    between atoms: O1_2  and  C2_3 
REMARK    2  A    between atoms: C8_11  and  C9_12 
REMARK    3  A    between atoms: C9_12  and  C10_13 
REMARK    4  A    between atoms: C18_23  and  N3_24 
REMARK       I    between atoms: N3_24  and  C19_25 
REMARK    5  A    between atoms: C19_25  and  C20_27 
REMARK    6  A    between atoms: C21_28  and  C22_29 
REMARK    7  A    between atoms: C22_29  and  N4_30 
ROOT
HETATM    1  C2  UNL     1      25.516   0.488  53.863  1.00  0.00     0.097 A 
HETATM    2  C3  UNL     1      24.711  -0.552  54.276  1.00  0.00     0.071 A 
HETATM    3  C4  UNL     1      23.363  -0.485  54.022  1.00  0.00     0.070 A 
HETATM    4  N1  UNL     1      22.657  -1.542  54.459  1.00  0.00    -0.259 NA
HETATM    5  C5  UNL     1      21.330  -1.565  54.254  1.00  0.00     0.140 A 
HETATM    6  C6  UNL     1      20.709  -0.517  53.606  1.00  0.00     0.069 A 
HETATM    7  C7  UNL     1      19.292  -0.623  53.414  1.00  0.00     0.101 C 
HETATM    8  N2  UNL     1      18.167  -0.726  53.257  1.00  0.00    -0.191 NA
HETATM    9  C8  UNL     1      21.361   0.589  53.135  1.00  0.00    -0.019 A 
HETATM   10  C16 UNL     1      22.727   0.555  53.376  1.00  0.00     0.003 A 
HETATM   11  C17 UNL     1      23.567   1.563  52.985  1.00  0.00     0.046 A 
HETATM   12  C18 UNL     1      24.932   1.554  53.211  1.00  0.00     0.069 A 
ENDROOT
BRANCH   9  13
HETATM   13  C9  UNL     1      20.740   1.741  52.446  1.00  0.00     0.079 C 
BRANCH  13  14
HETATM   14  C10 UNL     1      21.087   1.851  51.015  1.00  0.00    -0.052 A 
HETATM   15  C11 UNL     1      21.246   0.838  50.095  1.00  0.00     0.010 A 
HETATM   16  C12 UNL     1      21.560   0.984  48.773  1.00  0.00     0.044 A 
HETATM   17  C13 UNL     1      21.744   2.276  48.285  1.00  0.00     0.138 A 
HETATM   18  F1  UNL     1      22.055   2.394  46.976  1.00  0.00    -0.204 F 
HETATM   19  C14 UNL     1      21.600   3.332  49.158  1.00  0.00     0.073 A 
HETATM   20 CL1  UNL     1      21.854   4.900  48.437  1.00  0.00    -0.081 Cl
HETATM   21  C15 UNL     1      21.280   3.135  50.492  1.00  0.00     0.034 A 
ENDBRANCH  13  14
ENDBRANCH   9  13
BRANCH  12  22
HETATM   22  N3  UNL     1      25.735   2.664  52.759  1.00  0.00    -0.321 N 
HETATM   23  C19 UNL     1      25.915   2.459  51.345  1.00  0.00     0.245 C 
HETATM   24  O2  UNL     1      25.286   1.378  51.082  1.00  0.00    -0.268 OA
HETATM   25  H12 UNL     1      26.208   3.539  53.131  1.00  0.00     0.169 HD
BRANCH  23  26
HETATM   26  C20 UNL     1      26.627   3.242  50.357  1.00  0.00     0.072 C 
HETATM   27  C21 UNL     1      26.361   4.286  49.626  1.00  0.00     0.008 C 
BRANCH  27  28
HETATM   28  C22 UNL     1      25.311   5.279  49.317  1.00  0.00     0.299 C 
BRANCH  28  29
HETATM   29  N4  UNL     1      25.154   6.191  50.446  1.00  0.00     0.083 N 
HETATM   30  C23 UNL     1      25.230   7.562  50.038  1.00  0.00     0.309 C 
HETATM   31  C24 UNL     1      23.989   5.850  51.206  1.00  0.00     0.309 C 
ENDBRANCH  28  29
ENDBRANCH  27  28
ENDBRANCH  23  26
ENDBRANCH  12  22
BRANCH   1  32
HETATM   32  O1  UNL     1      26.883   0.551  54.052  1.00  0.00    -0.354 OA
HETATM   33  C1  UNL     1      27.844  -0.258  53.453  1.00  0.00     0.210 C 
ENDBRANCH   1  32
TORSDOF 7
ENDMDL
MODEL 4
REMARK VINA RESULT:      -8.5      4.279      7.369
REMARK  7 active torsions:
REMARK  status: ('A' for Active; 'I' for Inactive)
REMARK    1  A    between atoms: O1_2  and  C2_3 
REMARK    2  A    between atoms: C8_11  and  C9_12 
REMARK    3  A    between atoms: C9_12  and  C10_13 
REMARK    4  A    between atoms: C18_23  and  N3_24 
REMARK       I    between atoms: N3_24  and  C19_25 
REMARK    5  A    between atoms: C19_25  and  C20_27 
REMARK    6  A    between atoms: C21_28  and  C22_29 
REMARK    7  A    between atoms: C22_29  and  N4_30 
ROOT
HETATM    1  C2  UNL     1      19.878  -0.649  53.374  1.00  0.00     0.097 A 
HETATM    2  C3  UNL     1      20.670  -1.115  54.403  1.00  0.00     0.071 A 
HETATM    3  C4  UNL     1      22.024  -0.896  54.344  1.00  0.00     0.070 A 
HETATM    4  N1  UNL     1      22.715  -1.383  55.389  1.00  0.00    -0.259 NA
HETATM    5  C5  UNL     1      24.048  -1.215  55.420  1.00  0.00     0.140 A 
HETATM    6  C6  UNL     1      24.688  -0.554  54.392  1.00  0.00     0.069 A 
HETATM    7  C7  UNL     1      26.109  -0.404  54.505  1.00  0.00     0.101 C 
HETATM    8  N2  UNL     1      27.238  -0.281  54.614  1.00  0.00    -0.191 NA
HETATM    9  C8  UNL     1      24.051  -0.033  53.300  1.00  0.00    -0.019 A 
HETATM   10  C16 UNL     1      22.680  -0.238  53.325  1.00  0.00     0.003 A 
HETATM   11  C17 UNL     1      21.852   0.207  52.328  1.00  0.00     0.046 A 
HETATM   12  C18 UNL     1      20.482   0.018  52.329  1.00  0.00     0.069 A 
ENDROOT
BRANCH   9  13
HETATM   13  C9  UNL     1      24.694   0.673  52.170  1.00  0.00     0.079 C 
BRANCH  13  14
HETATM   14  C10 UNL     1      24.354   2.107  52.079  1.00  0.00    -0.052 A 
HETATM   15  C11 UNL     1      24.123   2.996  53.105  1.00  0.00     0.010 A 
HETATM   16  C12 UNL     1      23.820   4.322  52.977  1.00  0.00     0.044 A 
HETATM   17  C13 UNL     1      23.729   4.850  51.691  1.00  0.00     0.138 A 
HETATM   18  F1  UNL     1      23.427   6.163  51.591  1.00  0.00    -0.204 F 
HETATM   19  C14 UNL     1      23.949   4.010  50.622  1.00  0.00     0.073 A 
HETATM   20 CL1  UNL     1      23.808   4.779  49.062  1.00  0.00    -0.081 Cl
HETATM   21  C15 UNL     1      24.255   2.670  50.800  1.00  0.00     0.034 A 
ENDBRANCH  13  14
ENDBRANCH   9  13
BRANCH  12  22
HETATM   22  N3  UNL     1      19.694   0.525  51.232  1.00  0.00    -0.321 N 
HETATM   23  C19 UNL     1      19.470   1.916  51.528  1.00  0.00     0.245 C 
HETATM   24  O2  UNL     1      20.065   2.120  52.640  1.00  0.00    -0.268 OA
HETATM   25  H12 UNL     1      19.252   0.202  50.321  1.00  0.00     0.169 HD
BRANCH  23  26
HETATM   26  C20 UNL     1      18.750   2.937  50.796  1.00  0.00     0.072 C 
HETATM   27  C21 UNL     1      17.663   3.629  50.986  1.00  0.00     0.008 C 
BRANCH  27  28
HETATM   28  C22 UNL     1      16.548   3.847  51.931  1.00  0.00     0.299 C 
BRANCH  28  29
HETATM   29  N4  UNL     1      15.391   3.062  51.510  1.00  0.00     0.083 N 
HETATM   30  C23 UNL     1      15.407   1.746  52.075  1.00  0.00     0.309 C 
HETATM   31  C24 UNL     1      14.182   3.798  51.725  1.00  0.00     0.309 C 
ENDBRANCH  28  29
ENDBRANCH  27  28
ENDBRANCH  23  26
ENDBRANCH  12  22
BRANCH   1  32
HETATM   32  O1  UNL     1      18.507  -0.799  53.304  1.00  0.00    -0.354 OA
HETATM   33  C1  UNL     1      17.789  -1.981  53.462  1.00  0.00     0.210 C 
ENDBRANCH   1  32
TORSDOF 7
ENDMDL
MODEL 5
REMARK VINA RESULT:      -8.4      3.213      5.428
REMARK  7 active torsions:
REMARK  status: ('A' for Active; 'I' for Inactive)
REMARK    1  A    between atoms: O1_2  and  C2_3 
REMARK    2  A    between atoms: C8_11  and  C9_12 
REMARK    3  A    between atoms: C9_12  and  C10_13 
REMARK    4  A    between atoms: C18_23  and  N3_24 
REMARK       I    between atoms: N3_24  and  C19_25 
REMARK    5  A    between atoms: C19_25  and  C20_27 
REMARK    6  A    between atoms: C21_28  and  C22_29 
REMARK    7  A    between atoms: C22_29  and  N4_30 
ROOT
HETATM    1  C2  UNL     1      26.736   0.415  53.502  1.00  0.00     0.097 A 
HETATM    2  C3  UNL     1      26.016  -0.187  54.512  1.00  0.00     0.071 A 
HETATM    3  C4  UNL     1      24.682  -0.443  54.310  1.00  0.00     0.070 A 
HETATM    4  N1  UNL     1      24.062  -1.032  55.346  1.00  0.00    -0.259 NA
HETATM    5  C5  UNL     1      22.755  -1.323  55.239  1.00  0.00     0.140 A 
HETATM    6  C6  UNL     1      22.068  -1.019  54.082  1.00  0.00     0.069 A 
HETATM    7  C7  UNL     1      20.679  -1.373  54.041  1.00  0.00     0.101 C 
HETATM    8  N2  UNL     1      19.579  -1.671  54.018  1.00  0.00    -0.191 NA
HETATM    9  C8  UNL     1      22.633  -0.422  52.989  1.00  0.00    -0.019 A 
HETATM   10  C16 UNL     1      23.981  -0.145  53.159  1.00  0.00     0.003 A 
HETATM   11  C17 UNL     1      24.738   0.449  52.185  1.00  0.00     0.046 A 
HETATM   12  C18 UNL     1      26.084   0.733  52.328  1.00  0.00     0.069 A 
ENDROOT
BRANCH   9  13
HETATM   13  C9  UNL     1      21.937  -0.066  51.733  1.00  0.00     0.079 C 
BRANCH  13  14
HETATM   14  C10 UNL     1      21.751   1.385  51.533  1.00  0.00    -0.052 A 
HETATM   15  C11 UNL     1      21.275   2.316  52.430  1.00  0.00     0.010 A 
HETATM   16  C12 UNL     1      21.127   3.656  52.207  1.00  0.00     0.044 A 
HETATM   17  C13 UNL     1      21.484   4.153  50.956  1.00  0.00     0.138 A 
HETATM   18  F1  UNL     1      21.327   5.480  50.760  1.00  0.00    -0.204 F 
HETATM   19  C14 UNL     1      21.966   3.270  50.014  1.00  0.00     0.073 A 
HETATM   20 CL1  UNL     1      22.379   4.004  48.486  1.00  0.00    -0.081 Cl
HETATM   21  C15 UNL     1      22.100   1.918  50.286  1.00  0.00     0.034 A 
ENDBRANCH  13  14
ENDBRANCH   9  13
BRANCH  12  22
HETATM   22  N3  UNL     1      26.797   1.362  51.243  1.00  0.00    -0.321 N 
HETATM   23  C19 UNL     1      26.174   2.648  51.064  1.00  0.00     0.245 C 
HETATM   24  O2  UNL     1      25.249   2.694  51.945  1.00  0.00    -0.268 OA
HETATM   25  H12 UNL     1      27.598   1.175  50.570  1.00  0.00     0.169 HD
BRANCH  23  26
HETATM   26  C20 UNL     1      26.457   3.717  50.131  1.00  0.00     0.072 C 
HETATM   27  C21 UNL     1      25.941   4.883  49.863  1.00  0.00     0.008 C 
BRANCH  27  28
HETATM   28  C22 UNL     1      24.864   5.818  50.251  1.00  0.00     0.299 C 
BRANCH  28  29
HETATM   29  N4  UNL     1      25.417   7.160  50.412  1.00  0.00     0.083 N 
HETATM   30  C23 UNL     1      26.478   7.414  49.483  1.00  0.00     0.309 C 
HETATM   31  C24 UNL     1      24.369   8.135  50.415  1.00  0.00     0.309 C 
ENDBRANCH  28  29
ENDBRANCH  27  28
ENDBRANCH  23  26
ENDBRANCH  12  22
BRANCH   1  32
HETATM   32  O1  UNL     1      28.079   0.730  53.569  1.00  0.00    -0.354 OA
HETATM   33  C1  UNL     1      28.962   0.398  54.594  1.00  0.00     0.210 C 
ENDBRANCH   1  32
TORSDOF 7
ENDMDL
MODEL 6
REMARK VINA RESULT:      -8.4      3.903      6.045
REMARK  7 active torsions:
REMARK  status: ('A' for Active; 'I' for Inactive)
REMARK    1  A    between atoms: O1_2  and  C2_3 
REMARK    2  A    between atoms: C8_11  and  C9_12 
REMARK    3  A    between atoms: C9_12  and  C10_13 
REMARK    4  A    between atoms: C18_23  and  N3_24 
REMARK       I    between atoms: N3_24  and  C19_25 
REMARK    5  A    between atoms: C19_25  and  C20_27 
REMARK    6  A    between atoms: C21_28  and  C22_29 
REMARK    7  A    between atoms: C22_29  and  N4_30 
ROOT
HETATM    1  C2  UNL     1      26.843   0.483  53.536  1.00  0.00     0.097 A 
HETATM    2  C3  UNL     1      26.149  -0.098  54.576  1.00  0.00     0.071 A 
HETATM    3  C4  UNL     1      24.829  -0.425  54.388  1.00  0.00     0.070 A 
HETATM    4  N1  UNL     1      24.234  -0.987  55.454  1.00  0.00    -0.259 NA
HETATM    5  C5  UNL     1      22.942  -1.342  55.363  1.00  0.00     0.140 A 
HETATM    6  C6  UNL     1      22.244  -1.129  54.192  1.00  0.00     0.069 A 
HETATM    7  C7  UNL     1      20.873  -1.546  54.170  1.00  0.00     0.101 C 
HETATM    8  N2  UNL     1      19.786  -1.895  54.163  1.00  0.00    -0.191 NA
HETATM    9  C8  UNL     1      22.782  -0.563  53.069  1.00  0.00    -0.019 A 
HETATM   10  C16 UNL     1      24.117  -0.218  53.225  1.00  0.00     0.003 A 
HETATM   11  C17 UNL     1      24.848   0.360  52.221  1.00  0.00     0.046 A 
HETATM   12  C18 UNL     1      26.179   0.711  52.348  1.00  0.00     0.069 A 
ENDROOT
BRANCH   9  13
HETATM   13  C9  UNL     1      22.074  -0.304  51.797  1.00  0.00     0.079 C 
BRANCH  13  14
HETATM   14  C10 UNL     1      21.151   0.848  51.841  1.00  0.00    -0.052 A 
HETATM   15  C11 UNL     1      21.380   2.105  52.356  1.00  0.00     0.010 A 
HETATM   16  C12 UNL     1      20.499   3.149  52.368  1.00  0.00     0.044 A 
HETATM   17  C13 UNL     1      19.238   2.946  51.812  1.00  0.00     0.138 A 
HETATM   18  F1  UNL     1      18.384   3.993  51.837  1.00  0.00    -0.204 F 
HETATM   19  C14 UNL     1      18.948   1.708  51.282  1.00  0.00     0.073 A 
HETATM   20 CL1  UNL     1      17.341   1.569  50.616  1.00  0.00    -0.081 Cl
HETATM   21  C15 UNL     1      19.875   0.678  51.291  1.00  0.00     0.034 A 
ENDBRANCH  13  14
ENDBRANCH   9  13
BRANCH  12  22
HETATM   22  N3  UNL     1      26.865   1.315  51.231  1.00  0.00    -0.321 N 
HETATM   23  C19 UNL     1      26.306   2.635  51.103  1.00  0.00     0.245 C 
HETATM   24  O2  UNL     1      25.435   2.720  52.035  1.00  0.00    -0.268 OA
HETATM   25  H12 UNL     1      27.616   1.093  50.513  1.00  0.00     0.169 HD
BRANCH  23  26
HETATM   26  C20 UNL     1      26.596   3.701  50.167  1.00  0.00     0.072 C 
HETATM   27  C21 UNL     1      25.932   4.696  49.652  1.00  0.00     0.008 C 
BRANCH  27  28
HETATM   28  C22 UNL     1      24.612   5.361  49.643  1.00  0.00     0.299 C 
BRANCH  28  29
HETATM   29  N4  UNL     1      24.411   6.063  50.907  1.00  0.00     0.083 N 
HETATM   30  C23 UNL     1      24.264   7.475  50.715  1.00  0.00     0.309 C 
HETATM   31  C24 UNL     1      23.364   5.443  51.662  1.00  0.00     0.309 C 
ENDBRANCH  28  29
ENDBRANCH  27  28
ENDBRANCH  23  26
ENDBRANCH  12  22
BRANCH   1  32
HETATM   32  O1  UNL     1      28.171   0.861  53.586  1.00  0.00    -0.354 OA
HETATM   33  C1  UNL     1      29.207   0.179  54.218  1.00  0.00     0.210 C 
ENDBRANCH   1  32
TORSDOF 7
ENDMDL
MODEL 7
REMARK VINA RESULT:      -7.9      3.654      6.793
REMARK  7 active torsions:
REMARK  status: ('A' for Active; 'I' for Inactive)
REMARK    1  A    between atoms: O1_2  and  C2_3 
REMARK    2  A    between atoms: C8_11  and  C9_12 
REMARK    3  A    between atoms: C9_12  and  C10_13 
REMARK    4  A    between atoms: C18_23  and  N3_24 
REMARK       I    between atoms: N3_24  and  C19_25 
REMARK    5  A    between atoms: C19_25  and  C20_27 
REMARK    6  A    between atoms: C21_28  and  C22_29 
REMARK    7  A    between atoms: C22_29  and  N4_30 
ROOT
HETATM    1  C2  UNL     1      21.554   0.416  52.946  1.00  0.00     0.097 A 
HETATM    2  C3  UNL     1      20.333   0.702  52.373  1.00  0.00     0.071 A 
HETATM    3  C4  UNL     1      20.307   1.280  51.128  1.00  0.00     0.070 A 
HETATM    4  N1  UNL     1      19.075   1.521  50.649  1.00  0.00    -0.259 NA
HETATM    5  C5  UNL     1      18.950   2.084  49.436  1.00  0.00     0.140 A 
HETATM    6  C6  UNL     1      20.072   2.407  48.701  1.00  0.00     0.069 A 
HETATM    7  C7  UNL     1      19.855   2.993  47.411  1.00  0.00     0.101 C 
HETATM    8  N2  UNL     1      19.667   3.447  46.381  1.00  0.00    -0.191 NA
HETATM    9  C8  UNL     1      21.355   2.191  49.124  1.00  0.00    -0.019 A 
HETATM   10  C16 UNL     1      21.419   1.609  50.381  1.00  0.00     0.003 A 
HETATM   11  C17 UNL     1      22.608   1.306  50.990  1.00  0.00     0.046 A 
HETATM   12  C18 UNL     1      22.700   0.724  52.241  1.00  0.00     0.069 A 
ENDROOT
BRANCH   9  13
HETATM   13  C9  UNL     1      22.587   2.530  48.379  1.00  0.00     0.079 C 
BRANCH  13  14
HETATM   14  C10 UNL     1      23.397   3.596  49.000  1.00  0.00    -0.052 A 
HETATM   15  C11 UNL     1      24.726   3.559  49.362  1.00  0.00     0.010 A 
HETATM   16  C12 UNL     1      25.441   4.575  49.928  1.00  0.00     0.044 A 
HETATM   17  C13 UNL     1      24.784   5.778  50.175  1.00  0.00     0.138 A 
HETATM   18  F1  UNL     1      25.513   6.768  50.736  1.00  0.00    -0.204 F 
HETATM   19  C14 UNL     1      23.453   5.878  49.836  1.00  0.00     0.073 A 
HETATM   20 CL1  UNL     1      22.734   7.428  50.191  1.00  0.00    -0.081 Cl
HETATM   21  C15 UNL     1      22.767   4.819  49.262  1.00  0.00     0.034 A 
ENDBRANCH  13  14
ENDBRANCH   9  13
BRANCH  12  22
HETATM   22  N3  UNL     1      24.000   0.441  52.799  1.00  0.00    -0.321 N 
HETATM   23  C19 UNL     1      24.560   1.722  53.143  1.00  0.00     0.245 C 
HETATM   24  O2  UNL     1      23.668   2.575  52.810  1.00  0.00    -0.268 OA
HETATM   25  H12 UNL     1      24.636  -0.381  53.021  1.00  0.00     0.169 HD
BRANCH  23  26
HETATM   26  C20 UNL     1      25.833   2.073  53.737  1.00  0.00     0.072 C 
HETATM   27  C21 UNL     1      26.789   1.427  54.341  1.00  0.00     0.008 C 
BRANCH  27  28
HETATM   28  C22 UNL     1      27.212   0.084  54.791  1.00  0.00     0.299 C 
BRANCH  28  29
HETATM   29  N4  UNL     1      28.626  -0.111  54.486  1.00  0.00     0.083 N 
HETATM   30  C23 UNL     1      28.815  -0.986  53.367  1.00  0.00     0.309 C 
HETATM   31  C24 UNL     1      29.294   1.152  54.385  1.00  0.00     0.309 C 
ENDBRANCH  28  29
ENDBRANCH  27  28
ENDBRANCH  23  26
ENDBRANCH  12  22
BRANCH   1  32
HETATM   32  O1  UNL     1      21.728  -0.163  54.188  1.00  0.00    -0.354 OA
HETATM   33  C1  UNL     1      21.525  -1.500  54.519  1.00  0.00     0.210 C 
ENDBRANCH   1  32
TORSDOF 7
ENDMDL
MODEL 8
REMARK VINA RESULT:      -7.8      3.519      6.863
REMARK  7 active torsions:
REMARK  status: ('A' for Active; 'I' for Inactive)
REMARK    1  A    between atoms: O1_2  and  C2_3 
REMARK    2  A    between atoms: C8_11  and  C9_12 
REMARK    3  A    between atoms: C9_12  and  C10_13 
REMARK    4  A    between atoms: C18_23  and  N3_24 
REMARK       I    between atoms: N3_24  and  C19_25 
REMARK    5  A    between atoms: C19_25  and  C20_27 
REMARK    6  A    between atoms: C21_28  and  C22_29 
REMARK    7  A    between atoms: C22_29  and  N4_30 
ROOT
HETATM    1  C2  UNL     1      22.649   0.970  52.984  1.00  0.00     0.097 A 
HETATM    2  C3  UNL     1      21.368   1.468  53.086  1.00  0.00     0.071 A 
HETATM    3  C4  UNL     1      20.948   2.400  52.169  1.00  0.00     0.070 A 
HETATM    4  N1  UNL     1      19.686   2.828  52.344  1.00  0.00    -0.259 NA
HETATM    5  C5  UNL     1      19.187   3.740  51.493  1.00  0.00     0.140 A 
HETATM    6  C6  UNL     1      19.963   4.224  50.461  1.00  0.00     0.069 A 
HETATM    7  C7  UNL     1      19.353   5.185  49.588  1.00  0.00     0.101 C 
HETATM    8  N2  UNL     1      18.852   5.939  48.895  1.00  0.00    -0.191 NA
HETATM    9  C8  UNL     1      21.251   3.835  50.221  1.00  0.00    -0.019 A 
HETATM   10  C16 UNL     1      21.711   2.894  51.131  1.00  0.00     0.003 A 
HETATM   11  C17 UNL     1      22.974   2.369  51.071  1.00  0.00     0.046 A 
HETATM   12  C18 UNL     1      23.456   1.429  51.963  1.00  0.00     0.069 A 
ENDROOT
BRANCH   9  13
HETATM   13  C9  UNL     1      22.126   4.333  49.136  1.00  0.00     0.079 C 
BRANCH  13  14
HETATM   14  C10 UNL     1      23.173   5.272  49.585  1.00  0.00    -0.052 A 
HETATM   15  C11 UNL     1      23.077   6.268  50.531  1.00  0.00     0.010 A 
HETATM   16  C12 UNL     1      24.077   7.112  50.924  1.00  0.00     0.044 A 
HETATM   17  C13 UNL     1      25.325   6.971  50.323  1.00  0.00     0.138 A 
HETATM   18  F1  UNL     1      26.297   7.817  50.728  1.00  0.00    -0.204 F 
HETATM   19  C14 UNL     1      25.484   5.992  49.367  1.00  0.00     0.073 A 
HETATM   20 CL1  UNL     1      27.087   5.908  48.682  1.00  0.00    -0.081 Cl
HETATM   21  C15 UNL     1      24.440   5.157  49.000  1.00  0.00     0.034 A 
ENDBRANCH  13  14
ENDBRANCH   9  13
BRANCH  12  22
HETATM   22  N3  UNL     1      24.803   0.935  51.816  1.00  0.00    -0.321 N 
HETATM   23  C19 UNL     1      25.647   1.921  52.440  1.00  0.00     0.245 C 
HETATM   24  O2  UNL     1      24.847   2.823  52.864  1.00  0.00    -0.268 OA
HETATM   25  H12 UNL     1      25.334   0.109  51.410  1.00  0.00     0.169 HD
BRANCH  23  26
HETATM   26  C20 UNL     1      27.084   1.972  52.604  1.00  0.00     0.072 C 
HETATM   27  C21 UNL     1      27.987   1.215  53.158  1.00  0.00     0.008 C 
BRANCH  27  28
HETATM   28  C22 UNL     1      28.180  -0.045  53.906  1.00  0.00     0.299 C 
BRANCH  28  29
HETATM   29  N4  UNL     1      28.276  -1.159  52.967  1.00  0.00     0.083 N 
HETATM   30  C23 UNL     1      29.320  -2.072  53.328  1.00  0.00     0.309 C 
HETATM   31  C24 UNL     1      26.991  -1.759  52.769  1.00  0.00     0.309 C 
ENDBRANCH  28  29
ENDBRANCH  27  28
ENDBRANCH  23  26
ENDBRANCH  12  22
BRANCH   1  32
HETATM   32  O1  UNL     1      23.201   0.032  53.835  1.00  0.00    -0.354 OA
HETATM   33  C1  UNL     1      22.511  -0.883  54.626  1.00  0.00     0.210 C 
ENDBRANCH   1  32
TORSDOF 7
ENDMDL
MODEL 9
REMARK VINA RESULT:      -7.8      4.261      8.401
REMARK  7 active torsions:
REMARK  status: ('A' for Active; 'I' for Inactive)
REMARK    1  A    between atoms: O1_2  and  C2_3 
REMARK    2  A    between atoms: C8_11  and  C9_12 
REMARK    3  A    between atoms: C9_12  and  C10_13 
REMARK    4  A    between atoms: C18_23  and  N3_24 
REMARK       I    between atoms: N3_24  and  C19_25 
REMARK    5  A    between atoms: C19_25  and  C20_27 
REMARK    6  A    between atoms: C21_28  and  C22_29 
REMARK    7  A    between atoms: C22_29  and  N4_30 
ROOT
HETATM    1  C2  UNL     1      23.255  -0.137  53.537  1.00  0.00     0.097 A 
HETATM    2  C3  UNL     1      24.565  -0.053  53.115  1.00  0.00     0.071 A 
HETATM    3  C4  UNL     1      24.925   0.977  52.282  1.00  0.00     0.070 A 
HETATM    4  N1  UNL     1      26.220   0.981  51.924  1.00  0.00    -0.259 NA
HETATM    5  C5  UNL     1      26.665   1.953  51.110  1.00  0.00     0.140 A 
HETATM    6  C6  UNL     1      25.800   2.927  50.654  1.00  0.00     0.069 A 
HETATM    7  C7  UNL     1      26.355   3.936  49.800  1.00  0.00     0.101 C 
HETATM    8  N2  UNL     1      26.812   4.740  49.132  1.00  0.00    -0.191 NA
HETATM    9  C8  UNL     1      24.473   2.986  50.976  1.00  0.00    -0.019 A 
HETATM   10  C16 UNL     1      24.073   1.958  51.816  1.00  0.00     0.003 A 
HETATM   11  C17 UNL     1      22.784   1.832  52.262  1.00  0.00     0.046 A 
HETATM   12  C18 UNL     1      22.360   0.819  53.102  1.00  0.00     0.069 A 
ENDROOT
BRANCH   9  13
HETATM   13  C9  UNL     1      23.505   4.001  50.504  1.00  0.00     0.079 C 
BRANCH  13  14
HETATM   14  C10 UNL     1      23.034   3.791  49.120  1.00  0.00    -0.052 A 
HETATM   15  C11 UNL     1      22.778   2.600  48.477  1.00  0.00     0.010 A 
HETATM   16  C12 UNL     1      22.332   2.450  47.195  1.00  0.00     0.044 A 
HETATM   17  C13 UNL     1      22.109   3.601  46.442  1.00  0.00     0.138 A 
HETATM   18  F1  UNL     1      21.670   3.427  45.177  1.00  0.00    -0.204 F 
HETATM   19  C14 UNL     1      22.348   4.824  47.030  1.00  0.00     0.073 A 
HETATM   20 CL1  UNL     1      22.035   6.193  45.994  1.00  0.00    -0.081 Cl
HETATM   21  C15 UNL     1      22.800   4.928  48.336  1.00  0.00     0.034 A 
ENDBRANCH  13  14
ENDBRANCH   9  13
BRANCH  12  22
HETATM   22  N3  UNL     1      20.979   0.772  53.518  1.00  0.00    -0.321 N 
HETATM   23  C19 UNL     1      20.273   0.126  52.442  1.00  0.00     0.245 C 
HETATM   24  O2  UNL     1      21.167  -0.136  51.568  1.00  0.00    -0.268 OA
HETATM   25  H12 UNL     1      20.358   1.054  54.333  1.00  0.00     0.169 HD
BRANCH  23  26
HETATM   26  C20 UNL     1      18.871  -0.200  52.289  1.00  0.00     0.072 C 
HETATM   27  C21 UNL     1      17.923   0.125  51.457  1.00  0.00     0.008 C 
BRANCH  27  28
HETATM   28  C22 UNL     1      17.628   0.932  50.255  1.00  0.00     0.299 C 
BRANCH  28  29
HETATM   29  N4  UNL     1      16.195   0.891  49.979  1.00  0.00     0.083 N 
HETATM   30  C23 UNL     1      15.555  -0.205  50.644  1.00  0.00     0.309 C 
HETATM   31  C24 UNL     1      15.604   2.173  50.219  1.00  0.00     0.309 C 
ENDBRANCH  28  29
ENDBRANCH  27  28
ENDBRANCH  23  26
ENDBRANCH  12  22
BRANCH   1  32
HETATM   32  O1  UNL     1      22.756  -1.118  54.373  1.00  0.00    -0.354 OA
HETATM   33  C1  UNL     1      23.236  -1.459  55.635  1.00  0.00     0.210 C 
ENDBRANCH   1  32
TORSDOF 7
ENDMDL
