MODEL 1
REMARK VINA RESULT:      -9.0      0.000      0.000
REMARK  3 active torsions:
REMARK  status: ('A' for Active; 'I' for Inactive)
REMARK    1  A    between atoms: C7_7  and  O1_8 
REMARK    2  A    between atoms: O1_8  and  C8_9 
REMARK    3  A    between atoms: C19_21  and  N1_22 
ROOT
HETATM    1  C8  UNL     1      24.898  -0.679  53.950  1.00  0.00     0.077 C 
HETATM    2  C9  UNL     1      24.740   0.276  53.035  1.00  0.00     0.017 C 
HETATM    3  C10 UNL     1      24.057   1.306  52.251  1.00  0.00     0.048 C 
HETATM    4  C11 UNL     1      23.016   2.043  51.924  1.00  0.00     0.033 C 
HETATM    5  C12 UNL     1      21.684   2.575  51.933  1.00  0.00     0.146 C 
HETATM    6  O2  UNL     1      21.628   3.450  51.000  1.00  0.00    -0.294 OA
HETATM    7  C13 UNL     1      20.447   2.368  52.710  1.00  0.00     0.083 C 
HETATM    8  C14 UNL     1      19.659   1.161  52.241  1.00  0.00     0.008 C 
HETATM    9  C15 UNL     1      20.541  -0.069  52.334  1.00  0.00     0.000 C 
HETATM   10  C16 UNL     1      20.971  -0.196  53.761  1.00  0.00     0.000 C 
HETATM   11  C17 UNL     1      22.106  -1.193  53.831  1.00  0.00     0.002 C 
HETATM   12  C18 UNL     1      22.770  -0.963  55.198  1.00  0.00     0.042 C 
HETATM   13  C19 UNL     1      24.172  -1.452  55.028  1.00  0.00     0.273 C 
ENDROOT
BRANCH   1  14
HETATM   14  O1  UNL     1      26.191  -1.173  53.940  1.00  0.00    -0.340 OA
BRANCH  14  15
HETATM   15  C7  UNL     1      27.346  -0.428  53.694  1.00  0.00     0.179 C 
HETATM   16  C2  UNL     1      28.422  -1.373  53.275  1.00  0.00    -0.054 C 
HETATM   17  C1  UNL     1      28.216  -2.828  52.961  1.00  0.00     0.046 C 
HETATM   18  C3  UNL     1      29.637  -0.807  53.198  1.00  0.00    -0.018 C 
HETATM   19  C4  UNL     1      29.807   0.660  53.522  1.00  0.00     0.054 C 
HETATM   20  C5  UNL     1      29.068   0.829  54.823  1.00  0.00    -0.024 C 
HETATM   21  C6  UNL     1      27.855   0.286  54.889  1.00  0.00     0.006 C 
ENDBRANCH  14  15
ENDBRANCH   1  14
BRANCH  13  22
HETATM   22  N1  UNL     1      24.910  -1.352  56.254  1.00  0.00     0.089 N 
HETATM   23  H26 UNL     1      25.903  -1.522  56.029  1.00  0.00     0.313 HD
HETATM   24  H27 UNL     1      24.647  -2.070  56.967  1.00  0.00     0.313 HD
ENDBRANCH  13  22
TORSDOF 3
ENDMDL
MODEL 2
REMARK VINA RESULT:      -8.3      1.340      1.708
REMARK  3 active torsions:
REMARK  status: ('A' for Active; 'I' for Inactive)
REMARK    1  A    between atoms: C7_7  and  O1_8 
REMARK    2  A    between atoms: O1_8  and  C8_9 
REMARK    3  A    between atoms: C19_21  and  N1_22 
ROOT
HETATM    1  C8  UNL     1      24.235   0.085  53.440  1.00  0.00     0.077 C 
HETATM    2  C9  UNL     1      24.518   1.297  52.968  1.00  0.00     0.017 C 
HETATM    3  C10 UNL     1      24.275   2.635  52.425  1.00  0.00     0.048 C 
HETATM    4  C11 UNL     1      23.502   3.616  52.010  1.00  0.00     0.033 C 
HETATM    5  C12 UNL     1      22.317   4.352  51.683  1.00  0.00     0.146 C 
HETATM    6  O2  UNL     1      22.698   5.479  51.208  1.00  0.00    -0.294 OA
HETATM    7  C13 UNL     1      20.859   4.136  51.760  1.00  0.00     0.083 C 
HETATM    8  C14 UNL     1      20.329   3.316  50.602  1.00  0.00     0.008 C 
HETATM    9  C15 UNL     1      21.050   1.982  50.573  1.00  0.00     0.000 C 
HETATM   10  C16 UNL     1      20.805   1.319  51.891  1.00  0.00     0.000 C 
HETATM   11  C17 UNL     1      21.769   0.162  52.031  1.00  0.00     0.002 C 
HETATM   12  C18 UNL     1      21.768  -0.193  53.526  1.00  0.00     0.042 C 
HETATM   13  C19 UNL     1      23.090  -0.850  53.762  1.00  0.00     0.273 C 
ENDROOT
BRANCH   1  14
HETATM   14  O1  UNL     1      25.388  -0.609  53.765  1.00  0.00    -0.340 OA
BRANCH  14  15
HETATM   15  C7  UNL     1      26.690  -0.113  53.675  1.00  0.00     0.179 C 
HETATM   16  C2  UNL     1      27.537  -1.160  53.033  1.00  0.00    -0.054 C 
HETATM   17  C1  UNL     1      27.017  -2.419  52.399  1.00  0.00     0.046 C 
HETATM   18  C3  UNL     1      28.851  -0.885  53.065  1.00  0.00    -0.018 C 
HETATM   19  C4  UNL     1      29.338   0.392  53.712  1.00  0.00     0.054 C 
HETATM   20  C5  UNL     1      28.611   0.427  55.030  1.00  0.00    -0.024 C 
HETATM   21  C6  UNL     1      27.305   0.176  54.992  1.00  0.00     0.006 C 
ENDBRANCH  14  15
ENDBRANCH   1  14
BRANCH  13  22
HETATM   22  N1  UNL     1      23.216  -1.293  55.121  1.00  0.00     0.089 N 
HETATM   23  H26 UNL     1      23.203  -0.453  55.720  1.00  0.00     0.313 HD
HETATM   24  H27 UNL     1      24.118  -1.781  55.325  1.00  0.00     0.313 HD
ENDBRANCH  13  22
TORSDOF 3
ENDMDL
MODEL 3
REMARK VINA RESULT:      -8.3      2.980      3.993
REMARK  3 active torsions:
REMARK  status: ('A' for Active; 'I' for Inactive)
REMARK    1  A    between atoms: C7_7  and  O1_8 
REMARK    2  A    between atoms: O1_8  and  C8_9 
REMARK    3  A    between atoms: C19_21  and  N1_22 
ROOT
HETATM    1  C8  UNL     1      25.279   1.230  51.879  1.00  0.00     0.077 C 
HETATM    2  C9  UNL     1      26.077   2.033  51.177  1.00  0.00     0.017 C 
HETATM    3  C10 UNL     1      26.464   3.171  50.342  1.00  0.00     0.048 C 
HETATM    4  C11 UNL     1      26.223   4.279  49.672  1.00  0.00     0.033 C 
HETATM    5  C12 UNL     1      25.506   5.387  49.113  1.00  0.00     0.146 C 
HETATM    6  O2  UNL     1      26.350   6.070  48.433  1.00  0.00    -0.294 OA
HETATM    7  C13 UNL     1      24.121   5.896  49.136  1.00  0.00     0.083 C 
HETATM    8  C14 UNL     1      23.221   5.180  48.148  1.00  0.00     0.008 C 
HETATM    9  C15 UNL     1      23.234   3.695  48.458  1.00  0.00     0.000 C 
HETATM   10  C16 UNL     1      22.762   3.535  49.868  1.00  0.00     0.000 C 
HETATM   11  C17 UNL     1      23.079   2.127  50.321  1.00  0.00     0.002 C 
HETATM   12  C18 UNL     1      22.975   2.157  51.854  1.00  0.00     0.042 C 
HETATM   13  C19 UNL     1      23.845   1.032  52.317  1.00  0.00     0.273 C 
ENDROOT
BRANCH   1  14
HETATM   14  O1  UNL     1      25.987   0.173  52.425  1.00  0.00    -0.340 OA
BRANCH  14  15
HETATM   15  C7  UNL     1      27.339   0.190  52.771  1.00  0.00     0.179 C 
HETATM   16  C2  UNL     1      27.813  -1.223  52.840  1.00  0.00    -0.054 C 
HETATM   17  C1  UNL     1      27.023  -2.420  52.392  1.00  0.00     0.046 C 
HETATM   18  C3  UNL     1      29.047  -1.354  53.353  1.00  0.00    -0.018 C 
HETATM   19  C4  UNL     1      29.813  -0.126  53.794  1.00  0.00     0.054 C 
HETATM   20  C5  UNL     1      28.817   0.641  54.622  1.00  0.00    -0.024 C 
HETATM   21  C6  UNL     1      27.602   0.787  54.101  1.00  0.00     0.006 C 
ENDBRANCH  14  15
ENDBRANCH   1  14
BRANCH  13  22
HETATM   22  N1  UNL     1      23.805   0.898  53.744  1.00  0.00     0.089 N 
HETATM   23  H26 UNL     1      23.101   1.564  54.096  1.00  0.00     0.313 HD
HETATM   24  H27 UNL     1      24.704   1.149  54.218  1.00  0.00     0.313 HD
ENDBRANCH  13  22
TORSDOF 3
ENDMDL
MODEL 4
REMARK VINA RESULT:      -7.8      6.192      8.905
REMARK  3 active torsions:
REMARK  status: ('A' for Active; 'I' for Inactive)
REMARK    1  A    between atoms: C7_7  and  O1_8 
REMARK    2  A    between atoms: O1_8  and  C8_9 
REMARK    3  A    between atoms: C19_21  and  N1_22 
ROOT
HETATM    1  C8  UNL     1      25.124   5.602  50.132  1.00  0.00     0.077 C 
HETATM    2  C9  UNL     1      26.097   4.894  49.562  1.00  0.00     0.017 C 
HETATM    3  C10 UNL     1      27.379   4.628  48.907  1.00  0.00     0.048 C 
HETATM    4  C11 UNL     1      28.544   4.984  48.407  1.00  0.00     0.033 C 
HETATM    5  C12 UNL     1      29.646   5.812  48.013  1.00  0.00     0.146 C 
HETATM    6  O2  UNL     1      30.502   5.047  47.447  1.00  0.00    -0.294 OA
HETATM    7  C13 UNL     1      30.004   7.241  48.100  1.00  0.00     0.083 C 
HETATM    8  C14 UNL     1      29.356   8.072  47.011  1.00  0.00     0.008 C 
HETATM    9  C15 UNL     1      27.851   7.909  47.098  1.00  0.00     0.000 C 
HETATM   10  C16 UNL     1      27.437   8.351  48.465  1.00  0.00     0.000 C 
HETATM   11  C17 UNL     1      26.017   7.892  48.707  1.00  0.00     0.002 C 
HETATM   12  C18 UNL     1      25.809   7.987  50.227  1.00  0.00     0.042 C 
HETATM   13  C19 UNL     1      24.721   7.006  50.525  1.00  0.00     0.273 C 
ENDROOT
BRANCH   1  14
HETATM   14  O1  UNL     1      24.074   4.788  50.521  1.00  0.00    -0.340 OA
BRANCH  14  15
HETATM   15  C7  UNL     1      24.191   3.491  51.024  1.00  0.00     0.179 C 
HETATM   16  C2  UNL     1      23.100   2.667  50.427  1.00  0.00    -0.054 C 
HETATM   17  C1  UNL     1      22.194   3.112  49.314  1.00  0.00     0.046 C 
HETATM   18  C3  UNL     1      22.983   1.447  50.978  1.00  0.00    -0.018 C 
HETATM   19  C4  UNL     1      23.913   1.034  52.096  1.00  0.00     0.054 C 
HETATM   20  C5  UNL     1      23.884   2.205  53.041  1.00  0.00    -0.024 C 
HETATM   21  C6  UNL     1      24.023   3.410  52.494  1.00  0.00     0.006 C 
ENDBRANCH  14  15
ENDBRANCH   1  14
BRANCH  13  22
HETATM   22  N1  UNL     1      24.374   7.021  51.916  1.00  0.00     0.089 N 
HETATM   23  H26 UNL     1      25.140   6.559  52.429  1.00  0.00     0.313 HD
HETATM   24  H27 UNL     1      23.506   6.481  52.142  1.00  0.00     0.313 HD
ENDBRANCH  13  22
TORSDOF 3
ENDMDL
MODEL 5
REMARK VINA RESULT:      -7.8      2.056      3.467
REMARK  3 active torsions:
REMARK  status: ('A' for Active; 'I' for Inactive)
REMARK    1  A    between atoms: C7_7  and  O1_8 
REMARK    2  A    between atoms: O1_8  and  C8_9 
REMARK    3  A    between atoms: C19_21  and  N1_22 
ROOT
HETATM    1  C8  UNL     1      25.188   1.086  53.006  1.00  0.00     0.077 C 
HETATM    2  C9  UNL     1      24.221   0.299  53.475  1.00  0.00     0.017 C 
HETATM    3  C10 UNL     1      22.877  -0.262  53.620  1.00  0.00     0.048 C 
HETATM    4  C11 UNL     1      21.597  -0.348  53.324  1.00  0.00     0.033 C 
HETATM    5  C12 UNL     1      20.339  -0.082  52.691  1.00  0.00     0.146 C 
HETATM    6  O2  UNL     1      19.478  -0.859  53.235  1.00  0.00    -0.294 OA
HETATM    7  C13 UNL     1      19.833   0.813  51.632  1.00  0.00     0.083 C 
HETATM    8  C14 UNL     1      19.556   2.214  52.137  1.00  0.00     0.008 C 
HETATM    9  C15 UNL     1      20.828   2.784  52.733  1.00  0.00     0.000 C 
HETATM   10  C16 UNL     1      21.866   2.769  51.657  1.00  0.00     0.000 C 
HETATM   11  C17 UNL     1      23.218   3.005  52.292  1.00  0.00     0.002 C 
HETATM   12  C18 UNL     1      24.247   2.559  51.241  1.00  0.00     0.042 C 
HETATM   13  C19 UNL     1      25.468   2.207  52.030  1.00  0.00     0.273 C 
ENDROOT
BRANCH   1  14
HETATM   14  O1  UNL     1      26.400   0.809  53.615  1.00  0.00    -0.340 OA
BRANCH  14  15
HETATM   15  C7  UNL     1      27.028  -0.438  53.651  1.00  0.00     0.179 C 
HETATM   16  C2  UNL     1      28.500  -0.213  53.565  1.00  0.00    -0.054 C 
HETATM   17  C1  UNL     1      29.174   1.127  53.657  1.00  0.00     0.046 C 
HETATM   18  C3  UNL     1      29.208  -1.341  53.392  1.00  0.00    -0.018 C 
HETATM   19  C4  UNL     1      28.496  -2.672  53.305  1.00  0.00     0.054 C 
HETATM   20  C5  UNL     1      27.382  -2.420  52.323  1.00  0.00    -0.024 C 
HETATM   21  C6  UNL     1      26.669  -1.313  52.510  1.00  0.00     0.006 C 
ENDBRANCH  14  15
ENDBRANCH   1  14
BRANCH  13  22
HETATM   22  N1  UNL     1      26.548   1.820  51.170  1.00  0.00     0.089 N 
HETATM   23  H26 UNL     1      27.025   2.683  50.867  1.00  0.00     0.313 HD
HETATM   24  H27 UNL     1      26.240   1.335  50.295  1.00  0.00     0.313 HD
ENDBRANCH  13  22
TORSDOF 3
ENDMDL
MODEL 6
REMARK VINA RESULT:      -7.8      5.175      7.302
REMARK  3 active torsions:
REMARK  status: ('A' for Active; 'I' for Inactive)
REMARK    1  A    between atoms: C7_7  and  O1_8 
REMARK    2  A    between atoms: O1_8  and  C8_9 
REMARK    3  A    between atoms: C19_21  and  N1_22 
ROOT
HETATM    1  C8  UNL     1      24.560   4.176  50.985  1.00  0.00     0.077 C 
HETATM    2  C9  UNL     1      25.638   3.878  50.261  1.00  0.00     0.017 C 
HETATM    3  C10 UNL     1      26.821   4.103  49.430  1.00  0.00     0.048 C 
HETATM    4  C11 UNL     1      27.686   4.863  48.792  1.00  0.00     0.033 C 
HETATM    5  C12 UNL     1      28.333   6.038  48.286  1.00  0.00     0.146 C 
HETATM    6  O2  UNL     1      29.325   5.642  47.580  1.00  0.00    -0.294 OA
HETATM    7  C13 UNL     1      28.140   7.498  48.380  1.00  0.00     0.083 C 
HETATM    8  C14 UNL     1      27.083   8.010  47.422  1.00  0.00     0.008 C 
HETATM    9  C15 UNL     1      25.776   7.295  47.704  1.00  0.00     0.000 C 
HETATM   10  C16 UNL     1      25.422   7.569  49.131  1.00  0.00     0.000 C 
HETATM   11  C17 UNL     1      24.325   6.614  49.544  1.00  0.00     0.002 C 
HETATM   12  C18 UNL     1      24.311   6.646  51.080  1.00  0.00     0.042 C 
HETATM   13  C19 UNL     1      23.721   5.332  51.483  1.00  0.00     0.273 C 
ENDROOT
BRANCH   1  14
HETATM   14  O1  UNL     1      23.955   3.034  51.479  1.00  0.00    -0.340 OA
BRANCH  14  15
HETATM   15  C7  UNL     1      24.618   1.923  52.004  1.00  0.00     0.179 C 
HETATM   16  C2  UNL     1      23.587   0.931  52.427  1.00  0.00    -0.054 C 
HETATM   17  C1  UNL     1      22.119   1.031  52.123  1.00  0.00     0.046 C 
HETATM   18  C3  UNL     1      24.087  -0.101  53.127  1.00  0.00    -0.018 C 
HETATM   19  C4  UNL     1      25.570  -0.168  53.414  1.00  0.00     0.054 C 
HETATM   20  C5  UNL     1      25.902   1.211  53.917  1.00  0.00    -0.024 C 
HETATM   21  C6  UNL     1      25.424   2.230  53.208  1.00  0.00     0.006 C 
ENDBRANCH  14  15
ENDBRANCH   1  14
BRANCH  13  22
HETATM   22  N1  UNL     1      23.591   5.236  52.908  1.00  0.00     0.089 N 
HETATM   23  H26 UNL     1      23.933   6.123  53.309  1.00  0.00     0.313 HD
HETATM   24  H27 UNL     1      24.174   4.480  53.336  1.00  0.00     0.313 HD
ENDBRANCH  13  22
TORSDOF 3
ENDMDL
MODEL 7
REMARK VINA RESULT:      -7.7      5.786      8.638
REMARK  3 active torsions:
REMARK  status: ('A' for Active; 'I' for Inactive)
REMARK    1  A    between atoms: C7_7  and  O1_8 
REMARK    2  A    between atoms: O1_8  and  C8_9 
REMARK    3  A    between atoms: C19_21  and  N1_22 
ROOT
HETATM    1  C8  UNL     1      24.777   4.589  50.437  1.00  0.00     0.077 C 
HETATM    2  C9  UNL     1      25.878   4.221  49.783  1.00  0.00     0.017 C 
HETATM    3  C10 UNL     1      27.143   4.367  49.062  1.00  0.00     0.048 C 
HETATM    4  C11 UNL     1      28.128   5.067  48.540  1.00  0.00     0.033 C 
HETATM    5  C12 UNL     1      28.926   6.195  48.158  1.00  0.00     0.146 C 
HETATM    6  O2  UNL     1      29.931   5.737  47.509  1.00  0.00    -0.294 OA
HETATM    7  C13 UNL     1      28.868   7.660  48.323  1.00  0.00     0.083 C 
HETATM    8  C14 UNL     1      27.950   8.325  47.317  1.00  0.00     0.008 C 
HETATM    9  C15 UNL     1      26.561   7.733  47.453  1.00  0.00     0.000 C 
HETATM   10  C16 UNL     1      26.117   7.968  48.861  1.00  0.00     0.000 C 
HETATM   11  C17 UNL     1      24.901   7.109  49.130  1.00  0.00     0.002 C 
HETATM   12  C18 UNL     1      24.761   7.063  50.659  1.00  0.00     0.042 C 
HETATM   13  C19 UNL     1      24.015   5.797  50.935  1.00  0.00     0.273 C 
ENDROOT
BRANCH   1  14
HETATM   14  O1  UNL     1      24.025   3.490  50.813  1.00  0.00    -0.340 OA
BRANCH  14  15
HETATM   15  C7  UNL     1      22.922   2.983  50.123  1.00  0.00     0.179 C 
HETATM   16  C2  UNL     1      22.587   1.652  50.709  1.00  0.00    -0.054 C 
HETATM   17  C1  UNL     1      23.193   1.085  51.961  1.00  0.00     0.046 C 
HETATM   18  C3  UNL     1      21.667   0.971  50.006  1.00  0.00    -0.018 C 
HETATM   19  C4  UNL     1      21.079   1.574  48.751  1.00  0.00     0.054 C 
HETATM   20  C5  UNL     1      22.282   2.061  47.988  1.00  0.00    -0.024 C 
HETATM   21  C6  UNL     1      23.181   2.755  48.681  1.00  0.00     0.006 C 
ENDBRANCH  14  15
ENDBRANCH   1  14
BRANCH  13  22
HETATM   22  N1  UNL     1      23.757   5.641  52.338  1.00  0.00     0.089 N 
HETATM   23  H26 UNL     1      24.052   4.688  52.600  1.00  0.00     0.313 HD
HETATM   24  H27 UNL     1      22.745   5.712  52.592  1.00  0.00     0.313 HD
ENDBRANCH  13  22
TORSDOF 3
ENDMDL
MODEL 8
REMARK VINA RESULT:      -7.6      6.589      9.755
REMARK  3 active torsions:
REMARK  status: ('A' for Active; 'I' for Inactive)
REMARK    1  A    between atoms: C7_7  and  O1_8 
REMARK    2  A    between atoms: O1_8  and  C8_9 
REMARK    3  A    between atoms: C19_21  and  N1_22 
ROOT
HETATM    1  C8  UNL     1      25.228   5.762  49.856  1.00  0.00     0.077 C 
HETATM    2  C9  UNL     1      26.192   5.059  49.264  1.00  0.00     0.017 C 
HETATM    3  C10 UNL     1      27.505   4.774  48.685  1.00  0.00     0.048 C 
HETATM    4  C11 UNL     1      28.738   5.088  48.347  1.00  0.00     0.033 C 
HETATM    5  C12 UNL     1      29.937   5.857  48.182  1.00  0.00     0.146 C 
HETATM    6  O2  UNL     1      30.780   5.107  47.576  1.00  0.00    -0.294 OA
HETATM    7  C13 UNL     1      30.400   7.216  48.524  1.00  0.00     0.083 C 
HETATM    8  C14 UNL     1      29.930   8.259  47.530  1.00  0.00     0.008 C 
HETATM    9  C15 UNL     1      28.416   8.229  47.464  1.00  0.00     0.000 C 
HETATM   10  C16 UNL     1      27.908   8.498  48.844  1.00  0.00     0.000 C 
HETATM   11  C17 UNL     1      26.438   8.145  48.891  1.00  0.00     0.002 C 
HETATM   12  C18 UNL     1      26.092   8.030  50.384  1.00  0.00     0.042 C 
HETATM   13  C19 UNL     1      24.904   7.123  50.430  1.00  0.00     0.273 C 
ENDROOT
BRANCH   1  14
HETATM   14  O1  UNL     1      24.082   5.003  50.021  1.00  0.00    -0.340 OA
BRANCH  14  15
HETATM   15  C7  UNL     1      23.699   3.922  49.225  1.00  0.00     0.179 C 
HETATM   16  C2  UNL     1      22.742   4.425  48.197  1.00  0.00    -0.054 C 
HETATM   17  C1  UNL     1      22.437   5.873  47.939  1.00  0.00     0.046 C 
HETATM   18  C3  UNL     1      22.148   3.449  47.491  1.00  0.00    -0.018 C 
HETATM   19  C4  UNL     1      22.480   2.002  47.778  1.00  0.00     0.054 C 
HETATM   20  C5  UNL     1      22.383   1.902  49.277  1.00  0.00    -0.024 C 
HETATM   21  C6  UNL     1      22.991   2.858  49.974  1.00  0.00     0.006 C 
ENDBRANCH  14  15
ENDBRANCH   1  14
BRANCH  13  22
HETATM   22  N1  UNL     1      24.425   6.962  51.773  1.00  0.00     0.089 N 
HETATM   23  H26 UNL     1      24.794   7.750  52.327  1.00  0.00     0.313 HD
HETATM   24  H27 UNL     1      24.767   6.092  52.242  1.00  0.00     0.313 HD
ENDBRANCH  13  22
TORSDOF 3
ENDMDL
MODEL 9
REMARK VINA RESULT:      -7.6      3.616      6.225
REMARK  3 active torsions:
REMARK  status: ('A' for Active; 'I' for Inactive)
REMARK    1  A    between atoms: C7_7  and  O1_8 
REMARK    2  A    between atoms: O1_8  and  C8_9 
REMARK    3  A    between atoms: C19_21  and  N1_22 
ROOT
HETATM    1  C8  UNL     1      23.434   2.413  49.913  1.00  0.00     0.077 C 
HETATM    2  C9  UNL     1      24.115   2.006  50.983  1.00  0.00     0.017 C 
HETATM    3  C10 UNL     1      24.405   1.248  52.202  1.00  0.00     0.048 C 
HETATM    4  C11 UNL     1      24.126   0.359  53.131  1.00  0.00     0.033 C 
HETATM    5  C12 UNL     1      23.418  -0.649  53.864  1.00  0.00     0.146 C 
HETATM    6  O2  UNL     1      24.136  -0.942  54.884  1.00  0.00    -0.294 OA
HETATM    7  C13 UNL     1      22.144  -1.382  53.731  1.00  0.00     0.083 C 
HETATM    8  C14 UNL     1      20.957  -0.584  54.231  1.00  0.00     0.008 C 
HETATM    9  C15 UNL     1      20.886   0.723  53.466  1.00  0.00     0.000 C 
HETATM   10  C16 UNL     1      20.762   0.379  52.016  1.00  0.00     0.000 C 
HETATM   11  C17 UNL     1      21.027   1.627  51.204  1.00  0.00     0.002 C 
HETATM   12  C18 UNL     1      21.308   1.135  49.776  1.00  0.00     0.042 C 
HETATM   13  C19 UNL     1      22.139   2.214  49.158  1.00  0.00     0.273 C 
ENDROOT
BRANCH   1  14
HETATM   14  O1  UNL     1      24.136   3.375  49.208  1.00  0.00    -0.340 OA
BRANCH  14  15
HETATM   15  C7  UNL     1      24.130   4.745  49.473  1.00  0.00     0.179 C 
HETATM   16  C2  UNL     1      25.547   5.204  49.549  1.00  0.00    -0.054 C 
HETATM   17  C1  UNL     1      26.743   4.374  49.178  1.00  0.00     0.046 C 
HETATM   18  C3  UNL     1      25.683   6.465  49.992  1.00  0.00    -0.018 C 
HETATM   19  C4  UNL     1      24.456   7.271  50.356  1.00  0.00     0.054 C 
HETATM   20  C5  UNL     1      23.655   6.336  51.222  1.00  0.00    -0.024 C 
HETATM   21  C6  UNL     1      23.504   5.094  50.770  1.00  0.00     0.006 C 
ENDBRANCH  14  15
ENDBRANCH   1  14
BRANCH  13  22
HETATM   22  N1  UNL     1      22.438   1.918  47.786  1.00  0.00     0.089 N 
HETATM   23  H26 UNL     1      23.344   2.361  47.568  1.00  0.00     0.313 HD
HETATM   24  H27 UNL     1      21.749   2.317  47.107  1.00  0.00     0.313 HD
ENDBRANCH  13  22
TORSDOF 3
ENDMDL
