MODEL 1
REMARK VINA RESULT:      -8.0      0.000      0.000
REMARK  3 active torsions:
REMARK  status: ('A' for Active; 'I' for Inactive)
REMARK    1  A    between atoms: C7_10  and  S1_11 
REMARK    2  A    between atoms: S1_11  and  C8_12 
REMARK    3  A    between atoms: C16_23  and  O2_24 
ROOT
HETATM    1  C1  UNL     1      28.500  -1.251  53.451  1.00  0.00     0.026 C 
HETATM    2  C2  UNL     1      27.456  -0.469  53.245  1.00  0.00    -0.009 A 
HETATM    3  C3  UNL     1      26.268  -0.793  52.467  1.00  0.00     0.051 A 
HETATM    4  C4  UNL     1      25.529   0.325  52.571  1.00  0.00     0.089 A 
HETATM    5  O1  UNL     1      24.274   0.390  51.932  1.00  0.00    -0.289 OA
HETATM    6  C5  UNL     1      23.700   1.550  51.407  1.00  0.00     0.201 A 
HETATM    7  N1  UNL     1      22.695   1.281  50.549  1.00  0.00    -0.215 NA
HETATM    8  C6  UNL     1      22.051   2.312  49.968  1.00  0.00     0.237 A 
HETATM    9  N2  UNL     1      22.352   3.604  50.191  1.00  0.00    -0.232 NA
HETATM   10  C7  UNL     1      23.353   3.899  51.045  1.00  0.00     0.130 A 
HETATM   11  C13 UNL     1      24.061   2.874  51.682  1.00  0.00     0.118 A 
HETATM   12  N3  UNL     1      25.072   3.352  52.539  1.00  0.00    -0.380 N 
HETATM   13  C14 UNL     1      25.630   2.684  53.675  1.00  0.00     0.164 C 
HETATM   14  C15 UNL     1      26.190   1.343  53.377  1.00  0.00     0.028 A 
HETATM   15  C16 UNL     1      27.348   0.878  53.786  1.00  0.00     0.088 A 
HETATM   16  H10 UNL     1      25.383   4.318  52.222  1.00  0.00     0.160 HD
ENDROOT
BRANCH  10  17
HETATM   17  S1  UNL     1      23.770   5.595  51.357  1.00  0.00    -0.071 SA
BRANCH  17  18
HETATM   18  C8  UNL     1      25.101   6.130  50.318  1.00  0.00    -0.001 A 
HETATM   19  P1  UNL     1      25.412   7.781  50.263  1.00  0.00    -0.019 P 
HETATM   20  C9  UNL     1      26.837   8.082  49.117  1.00  0.00     0.031 A 
HETATM   21  C10 UNL     1      27.272   6.928  48.615  1.00  0.00    -0.010 A 
HETATM   22 BR1  UNL     1      28.767   7.104  47.394  1.00  0.00    -0.056 Br
HETATM   23  C11 UNL     1      26.944   5.497  48.715  1.00  0.00     0.051 A 
HETATM   24  C12 UNL     1      25.828   5.097  49.586  1.00  0.00     0.053 A 
ENDBRANCH  17  18
ENDBRANCH  10  17
BRANCH  15  25
HETATM   25  O2  UNL     1      28.183   1.654  54.575  1.00  0.00    -0.354 OA
HETATM   26  C17 UNL     1      29.447   2.136  54.166  1.00  0.00     0.210 C 
ENDBRANCH  15  25
TORSDOF 3
ENDMDL
MODEL 2
REMARK VINA RESULT:      -7.8      3.213      3.417
REMARK  3 active torsions:
REMARK  status: ('A' for Active; 'I' for Inactive)
REMARK    1  A    between atoms: C7_10  and  S1_11 
REMARK    2  A    between atoms: S1_11  and  C8_12 
REMARK    3  A    between atoms: C16_23  and  O2_24 
ROOT
HETATM    1  C1  UNL     1      29.541  -1.268  53.258  1.00  0.00     0.026 C 
HETATM    2  C2  UNL     1      28.328  -0.764  53.390  1.00  0.00    -0.009 A 
HETATM    3  C3  UNL     1      27.078  -1.510  53.447  1.00  0.00     0.051 A 
HETATM    4  C4  UNL     1      26.157  -0.541  53.582  1.00  0.00     0.089 A 
HETATM    5  O1  UNL     1      24.793  -0.886  53.673  1.00  0.00    -0.289 OA
HETATM    6  C5  UNL     1      23.735  -0.107  53.200  1.00  0.00     0.201 A 
HETATM    7  N1  UNL     1      22.591  -0.812  53.083  1.00  0.00    -0.215 NA
HETATM    8  C6  UNL     1      21.488  -0.182  52.637  1.00  0.00     0.237 A 
HETATM    9  N2  UNL     1      21.455   1.119  52.296  1.00  0.00    -0.232 NA
HETATM   10  C7  UNL     1      22.586   1.846  52.404  1.00  0.00     0.130 A 
HETATM   11  C13 UNL     1      23.766   1.251  52.863  1.00  0.00     0.118 A 
HETATM   12  N3  UNL     1      24.852   2.147  52.915  1.00  0.00    -0.380 N 
HETATM   13  C14 UNL     1      26.009   2.057  53.753  1.00  0.00     0.164 C 
HETATM   14  C15 UNL     1      26.761   0.784  53.614  1.00  0.00     0.028 A 
HETATM   15  C16 UNL     1      28.063   0.663  53.498  1.00  0.00     0.088 A 
HETATM   16  H10 UNL     1      24.697   2.939  52.223  1.00  0.00     0.160 HD
ENDROOT
BRANCH  10  17
HETATM   17  S1  UNL     1      22.570   3.565  51.961  1.00  0.00    -0.071 SA
BRANCH  17  18
HETATM   18  C8  UNL     1      22.315   3.776  50.222  1.00  0.00    -0.001 A 
HETATM   19  P1  UNL     1      21.656   5.238  49.718  1.00  0.00    -0.019 P 
HETATM   20  C9  UNL     1      21.490   5.213  47.873  1.00  0.00     0.031 A 
HETATM   21  C10 UNL     1      21.930   4.054  47.388  1.00  0.00    -0.010 A 
HETATM   22 BR1  UNL     1      21.810   3.897  45.461  1.00  0.00    -0.056 Br
HETATM   23  C11 UNL     1      22.506   2.800  47.903  1.00  0.00     0.051 A 
HETATM   24  C12 UNL     1      22.697   2.665  49.355  1.00  0.00     0.053 A 
ENDBRANCH  17  18
ENDBRANCH  10  17
BRANCH  15  25
HETATM   25  O2  UNL     1      28.880   1.783  53.500  1.00  0.00    -0.354 OA
HETATM   26  C17 UNL     1      29.738   2.143  54.563  1.00  0.00     0.210 C 
ENDBRANCH  15  25
TORSDOF 3
ENDMDL
MODEL 3
REMARK VINA RESULT:      -7.5      6.808      8.719
REMARK  3 active torsions:
REMARK  status: ('A' for Active; 'I' for Inactive)
REMARK    1  A    between atoms: C7_10  and  S1_11 
REMARK    2  A    between atoms: S1_11  and  C8_12 
REMARK    3  A    between atoms: C16_23  and  O2_24 
ROOT
HETATM    1  C1  UNL     1      25.161   0.210  53.037  1.00  0.00     0.026 C 
HETATM    2  C2  UNL     1      23.845   0.197  53.149  1.00  0.00    -0.009 A 
HETATM    3  C3  UNL     1      23.032  -0.869  53.719  1.00  0.00     0.051 A 
HETATM    4  C4  UNL     1      21.782  -0.392  53.591  1.00  0.00     0.089 A 
HETATM    5  O1  UNL     1      20.693  -1.165  54.043  1.00  0.00    -0.289 OA
HETATM    6  C5  UNL     1      19.418  -1.167  53.474  1.00  0.00     0.201 A 
HETATM    7  N1  UNL     1      18.688  -2.235  53.854  1.00  0.00    -0.215 NA
HETATM    8  C6  UNL     1      17.435  -2.362  53.378  1.00  0.00     0.237 A 
HETATM    9  N2  UNL     1      16.860  -1.482  52.539  1.00  0.00    -0.232 NA
HETATM   10  C7  UNL     1      17.569  -0.405  52.144  1.00  0.00     0.130 A 
HETATM   11  C13 UNL     1      18.877  -0.214  52.603  1.00  0.00     0.118 A 
HETATM   12  N3  UNL     1      19.475   0.957  52.096  1.00  0.00    -0.380 N 
HETATM   13  C14 UNL     1      20.535   1.713  52.689  1.00  0.00     0.164 C 
HETATM   14  C15 UNL     1      21.761   0.925  52.967  1.00  0.00     0.028 A 
HETATM   15  C16 UNL     1      22.994   1.288  52.696  1.00  0.00     0.088 A 
HETATM   16  H10 UNL     1      19.017   1.222  51.174  1.00  0.00     0.160 HD
ENDROOT
BRANCH  10  17
HETATM   17  S1  UNL     1      16.835   0.772  51.036  1.00  0.00    -0.071 SA
BRANCH  17  18
HETATM   18  C8  UNL     1      15.671   1.807  51.878  1.00  0.00    -0.001 A 
HETATM   19  P1  UNL     1      16.008   3.452  51.930  1.00  0.00    -0.019 P 
HETATM   20  C9  UNL     1      14.654   4.310  52.858  1.00  0.00     0.031 A 
HETATM   21  C10 UNL     1      13.742   3.427  53.258  1.00  0.00    -0.010 A 
HETATM   22 BR1  UNL     1      12.264   4.197  54.246  1.00  0.00    -0.056 Br
HETATM   23  C11 UNL     1      13.510   1.975  53.170  1.00  0.00     0.051 A 
HETATM   24  C12 UNL     1      14.505   1.153  52.465  1.00  0.00     0.053 A 
ENDBRANCH  17  18
ENDBRANCH  10  17
BRANCH  15  25
HETATM   25  O2  UNL     1      23.255   2.510  52.095  1.00  0.00    -0.354 OA
HETATM   26  C17 UNL     1      23.798   3.629  52.767  1.00  0.00     0.210 C 
ENDBRANCH  15  25
TORSDOF 3
ENDMDL
MODEL 4
REMARK VINA RESULT:      -7.4      4.369      7.668
REMARK  3 active torsions:
REMARK  status: ('A' for Active; 'I' for Inactive)
REMARK    1  A    between atoms: C7_10  and  S1_11 
REMARK    2  A    between atoms: S1_11  and  C8_12 
REMARK    3  A    between atoms: C16_23  and  O2_24 
ROOT
HETATM    1  C1  UNL     1      30.649  10.156  49.252  1.00  0.00     0.026 C 
HETATM    2  C2  UNL     1      29.576   9.388  49.196  1.00  0.00    -0.009 A 
HETATM    3  C3  UNL     1      28.256   9.700  49.728  1.00  0.00     0.051 A 
HETATM    4  C4  UNL     1      27.541   8.605  49.415  1.00  0.00     0.089 A 
HETATM    5  O1  UNL     1      26.181   8.537  49.777  1.00  0.00    -0.289 OA
HETATM    6  C5  UNL     1      25.497   7.365  50.110  1.00  0.00     0.201 A 
HETATM    7  N1  UNL     1      24.339   7.614  50.754  1.00  0.00    -0.215 NA
HETATM    8  C6  UNL     1      23.576   6.571  51.135  1.00  0.00     0.237 A 
HETATM    9  N2  UNL     1      23.901   5.285  50.910  1.00  0.00    -0.232 NA
HETATM   10  C7  UNL     1      25.055   5.010  50.267  1.00  0.00     0.130 A 
HETATM   11  C13 UNL     1      25.891   6.049  49.845  1.00  0.00     0.118 A 
HETATM   12  N3  UNL     1      27.053   5.592  49.192  1.00  0.00    -0.380 N 
HETATM   13  C14 UNL     1      27.842   6.301  48.232  1.00  0.00     0.164 C 
HETATM   14  C15 UNL     1      28.343   7.614  48.710  1.00  0.00     0.028 A 
HETATM   15  C16 UNL     1      29.567   8.072  48.574  1.00  0.00     0.088 A 
HETATM   16  H10 UNL     1      27.280   4.604  49.515  1.00  0.00     0.160 HD
ENDROOT
BRANCH  10  17
HETATM   17  S1  UNL     1      25.508   3.322  49.959  1.00  0.00    -0.071 SA
BRANCH  17  18
HETATM   18  C8  UNL     1      24.766   2.233  51.142  1.00  0.00    -0.001 A 
HETATM   19  P1  UNL     1      25.746   1.677  52.389  1.00  0.00    -0.019 P 
HETATM   20  C9  UNL     1      24.748   0.564  53.483  1.00  0.00     0.031 A 
HETATM   21  C10 UNL     1      23.500   0.471  53.026  1.00  0.00    -0.010 A 
HETATM   22 BR1  UNL     1      22.346  -0.669  54.084  1.00  0.00    -0.056 Br
HETATM   23  C11 UNL     1      22.702   1.001  51.908  1.00  0.00     0.051 A 
HETATM   24  C12 UNL     1      23.358   1.899  50.946  1.00  0.00     0.053 A 
ENDBRANCH  17  18
ENDBRANCH  10  17
BRANCH  15  25
HETATM   25  O2  UNL     1      30.537   7.317  47.934  1.00  0.00    -0.354 OA
HETATM   26  C17 UNL     1      31.513   6.542  48.601  1.00  0.00     0.210 C 
ENDBRANCH  15  25
TORSDOF 3
ENDMDL
MODEL 5
REMARK VINA RESULT:      -7.4      5.492      8.040
REMARK  3 active torsions:
REMARK  status: ('A' for Active; 'I' for Inactive)
REMARK    1  A    between atoms: C7_10  and  S1_11 
REMARK    2  A    between atoms: S1_11  and  C8_12 
REMARK    3  A    between atoms: C16_23  and  O2_24 
ROOT
HETATM    1  C1  UNL     1      24.610   3.894  49.706  1.00  0.00     0.026 C 
HETATM    2  C2  UNL     1      25.677   4.555  49.295  1.00  0.00    -0.009 A 
HETATM    3  C3  UNL     1      26.999   3.998  49.041  1.00  0.00     0.051 A 
HETATM    4  C4  UNL     1      27.707   5.073  48.654  1.00  0.00     0.089 A 
HETATM    5  O1  UNL     1      29.067   4.925  48.314  1.00  0.00    -0.289 OA
HETATM    6  C5  UNL     1      30.053   5.896  48.506  1.00  0.00     0.201 A 
HETATM    7  N1  UNL     1      31.298   5.381  48.439  1.00  0.00    -0.215 NA
HETATM    8  C6  UNL     1      32.346   6.210  48.607  1.00  0.00     0.237 A 
HETATM    9  N2  UNL     1      32.229   7.529  48.839  1.00  0.00    -0.232 NA
HETATM   10  C7  UNL     1      30.994   8.067  48.911  1.00  0.00     0.130 A 
HETATM   11  C13 UNL     1      29.863   7.261  48.744  1.00  0.00     0.118 A 
HETATM   12  N3  UNL     1      28.654   7.978  48.848  1.00  0.00    -0.380 N 
HETATM   13  C14 UNL     1      27.391   7.633  48.270  1.00  0.00     0.164 C 
HETATM   14  C15 UNL     1      26.898   6.286  48.649  1.00  0.00     0.028 A 
HETATM   15  C16 UNL     1      25.679   5.987  49.034  1.00  0.00     0.088 A 
HETATM   16  H10 UNL     1      28.805   8.851  49.436  1.00  0.00     0.160 HD
ENDROOT
BRANCH  10  17
HETATM   17  S1  UNL     1      30.810   9.806  49.217  1.00  0.00    -0.071 SA
BRANCH  17  18
HETATM   18  C8  UNL     1      31.019  10.745  47.731  1.00  0.00    -0.001 A 
HETATM   19  P1  UNL     1      29.636  11.412  47.048  1.00  0.00    -0.019 P 
HETATM   20  C9  UNL     1      30.113  12.338  45.516  1.00  0.00     0.031 A 
HETATM   21  C10 UNL     1      31.428  12.257  45.322  1.00  0.00    -0.010 A 
HETATM   22 BR1  UNL     1      32.062  13.187  43.746  1.00  0.00    -0.056 Br
HETATM   23  C11 UNL     1      32.596  11.646  45.979  1.00  0.00     0.051 A 
HETATM   24  C12 UNL     1      32.377  10.870  47.209  1.00  0.00     0.053 A 
ENDBRANCH  17  18
ENDBRANCH  10  17
BRANCH  15  25
HETATM   25  O2  UNL     1      24.703   6.969  49.118  1.00  0.00    -0.354 OA
HETATM   26  C17 UNL     1      24.289   7.580  50.322  1.00  0.00     0.210 C 
ENDBRANCH  15  25
TORSDOF 3
ENDMDL
MODEL 6
REMARK VINA RESULT:      -7.3      3.584      4.783
REMARK  3 active torsions:
REMARK  status: ('A' for Active; 'I' for Inactive)
REMARK    1  A    between atoms: C7_10  and  S1_11 
REMARK    2  A    between atoms: S1_11  and  C8_12 
REMARK    3  A    between atoms: C16_23  and  O2_24 
ROOT
HETATM    1  C1  UNL     1      25.660  -0.304  54.457  1.00  0.00     0.026 C 
HETATM    2  C2  UNL     1      25.569   0.434  53.366  1.00  0.00    -0.009 A 
HETATM    3  C3  UNL     1      26.676   0.966  52.582  1.00  0.00     0.051 A 
HETATM    4  C4  UNL     1      26.051   1.634  51.597  1.00  0.00     0.089 A 
HETATM    5  O1  UNL     1      26.813   2.299  50.616  1.00  0.00    -0.289 OA
HETATM    6  C5  UNL     1      26.431   3.472  49.961  1.00  0.00     0.201 A 
HETATM    7  N1  UNL     1      27.471   4.084  49.357  1.00  0.00    -0.215 NA
HETATM    8  C6  UNL     1      27.242   5.229  48.687  1.00  0.00     0.237 A 
HETATM    9  N2  UNL     1      26.033   5.807  48.582  1.00  0.00    -0.232 NA
HETATM   10  C7  UNL     1      24.977   5.215  49.178  1.00  0.00     0.130 A 
HETATM   11  C13 UNL     1      25.147   4.022  49.889  1.00  0.00     0.118 A 
HETATM   12  N3  UNL     1      23.948   3.538  50.448  1.00  0.00    -0.380 N 
HETATM   13  C14 UNL     1      23.635   2.183  50.785  1.00  0.00     0.164 C 
HETATM   14  C15 UNL     1      24.601   1.551  51.717  1.00  0.00     0.028 A 
HETATM   15  C16 UNL     1      24.300   0.835  52.776  1.00  0.00     0.088 A 
HETATM   16  H10 UNL     1      23.270   4.344  50.595  1.00  0.00     0.160 HD
ENDROOT
BRANCH  10  17
HETATM   17  S1  UNL     1      23.370   5.958  49.056  1.00  0.00    -0.071 SA
BRANCH  17  18
HETATM   18  C8  UNL     1      22.600   5.571  47.509  1.00  0.00    -0.001 A 
HETATM   19  P1  UNL     1      22.463   6.817  46.390  1.00  0.00    -0.019 P 
HETATM   20  C9  UNL     1      21.631   6.165  44.868  1.00  0.00     0.031 A 
HETATM   21  C10 UNL     1      21.343   4.874  45.021  1.00  0.00    -0.010 A 
HETATM   22 BR1  UNL     1      20.466   4.066  43.494  1.00  0.00    -0.056 Br
HETATM   23  C11 UNL     1      21.501   3.831  46.048  1.00  0.00     0.051 A 
HETATM   24  C12 UNL     1      22.142   4.197  47.320  1.00  0.00     0.053 A 
ENDBRANCH  17  18
ENDBRANCH  10  17
BRANCH  15  25
HETATM   25  O2  UNL     1      22.977   0.601  53.119  1.00  0.00    -0.354 OA
HETATM   26  C17 UNL     1      22.310  -0.630  52.929  1.00  0.00     0.210 C 
ENDBRANCH  15  25
TORSDOF 3
ENDMDL
MODEL 7
REMARK VINA RESULT:      -7.3      3.097      5.513
REMARK  3 active torsions:
REMARK  status: ('A' for Active; 'I' for Inactive)
REMARK    1  A    between atoms: C7_10  and  S1_11 
REMARK    2  A    between atoms: S1_11  and  C8_12 
REMARK    3  A    between atoms: C16_23  and  O2_24 
ROOT
HETATM    1  C1  UNL     1      17.808  -1.474  53.462  1.00  0.00     0.026 C 
HETATM    2  C2  UNL     1      18.916  -0.895  53.037  1.00  0.00    -0.009 A 
HETATM    3  C3  UNL     1      20.259  -1.102  53.562  1.00  0.00     0.051 A 
HETATM    4  C4  UNL     1      21.008  -0.290  52.795  1.00  0.00     0.089 A 
HETATM    5  O1  UNL     1      22.399  -0.217  53.011  1.00  0.00    -0.289 OA
HETATM    6  C5  UNL     1      23.184   0.920  52.808  1.00  0.00     0.201 A 
HETATM    7  N1  UNL     1      24.382   0.831  53.422  1.00  0.00    -0.215 NA
HETATM    8  C6  UNL     1      25.242   1.862  53.307  1.00  0.00     0.237 A 
HETATM    9  N2  UNL     1      24.978   2.983  52.613  1.00  0.00    -0.232 NA
HETATM   10  C7  UNL     1      23.787   3.096  51.990  1.00  0.00     0.130 A 
HETATM   11  C13 UNL     1      22.850   2.060  52.069  1.00  0.00     0.118 A 
HETATM   12  N3  UNL     1      21.661   2.337  51.365  1.00  0.00    -0.380 N 
HETATM   13  C14 UNL     1      20.739   1.389  50.818  1.00  0.00     0.164 C 
HETATM   14  C15 UNL     1      20.205   0.421  51.809  1.00  0.00     0.028 A 
HETATM   15  C16 UNL     1      18.948   0.067  51.945  1.00  0.00     0.088 A 
HETATM   16  H10 UNL     1      21.529   3.389  51.284  1.00  0.00     0.160 HD
ENDROOT
BRANCH  10  17
HETATM   17  S1  UNL     1      23.414   4.565  51.068  1.00  0.00    -0.071 SA
BRANCH  17  18
HETATM   18  C8  UNL     1      24.848   5.179  50.231  1.00  0.00    -0.001 A 
HETATM   19  P1  UNL     1      25.064   6.846  50.207  1.00  0.00    -0.019 P 
HETATM   20  C9  UNL     1      26.621   7.232  49.279  1.00  0.00     0.031 A 
HETATM   21  C10 UNL     1      27.195   6.107  48.858  1.00  0.00    -0.010 A 
HETATM   22 BR1  UNL     1      28.839   6.372  47.869  1.00  0.00    -0.056 Br
HETATM   23  C11 UNL     1      26.942   4.658  48.922  1.00  0.00     0.051 A 
HETATM   24  C12 UNL     1      25.736   4.192  49.624  1.00  0.00     0.053 A 
ENDBRANCH  17  18
ENDBRANCH  10  17
BRANCH  15  25
HETATM   25  O2  UNL     1      17.969   0.602  51.123  1.00  0.00    -0.354 OA
HETATM   26  C17 UNL     1      17.234  -0.140  50.171  1.00  0.00     0.210 C 
ENDBRANCH  15  25
TORSDOF 3
ENDMDL
MODEL 8
REMARK VINA RESULT:      -7.3      2.928      3.963
REMARK  3 active torsions:
REMARK  status: ('A' for Active; 'I' for Inactive)
REMARK    1  A    between atoms: C7_10  and  S1_11 
REMARK    2  A    between atoms: S1_11  and  C8_12 
REMARK    3  A    between atoms: C16_23  and  O2_24 
ROOT
HETATM    1  C1  UNL     1      22.020  -1.772  54.790  1.00  0.00     0.026 C 
HETATM    2  C2  UNL     1      21.869  -0.613  54.176  1.00  0.00    -0.009 A 
HETATM    3  C3  UNL     1      20.649   0.180  54.104  1.00  0.00     0.051 A 
HETATM    4  C4  UNL     1      21.027   1.245  53.376  1.00  0.00     0.089 A 
HETATM    5  O1  UNL     1      20.091   2.259  53.089  1.00  0.00    -0.289 OA
HETATM    6  C5  UNL     1      20.078   3.034  51.928  1.00  0.00     0.201 A 
HETATM    7  N1  UNL     1      18.897   3.659  51.742  1.00  0.00    -0.215 NA
HETATM    8  C6  UNL     1      18.747   4.442  50.656  1.00  0.00     0.237 A 
HETATM    9  N2  UNL     1      19.710   4.643  49.739  1.00  0.00    -0.232 NA
HETATM   10  C7  UNL     1      20.900   4.029  49.902  1.00  0.00     0.130 A 
HETATM   11  C13 UNL     1      21.121   3.202  51.009  1.00  0.00     0.118 A 
HETATM   12  N3  UNL     1      22.412   2.640  51.029  1.00  0.00    -0.380 N 
HETATM   13  C14 UNL     1      23.141   2.187  52.174  1.00  0.00     0.164 C 
HETATM   14  C15 UNL     1      22.428   1.167  52.982  1.00  0.00     0.028 A 
HETATM   15  C16 UNL     1      22.943   0.055  53.456  1.00  0.00     0.088 A 
HETATM   16  H10 UNL     1      22.798   2.594  50.039  1.00  0.00     0.160 HD
ENDROOT
BRANCH  10  17
HETATM   17  S1  UNL     1      22.187   4.276  48.705  1.00  0.00    -0.071 SA
BRANCH  17  18
HETATM   18  C8  UNL     1      23.287   5.571  49.203  1.00  0.00    -0.001 A 
HETATM   19  P1  UNL     1      22.636   6.813  50.130  1.00  0.00    -0.019 P 
HETATM   20  C9  UNL     1      23.975   8.033  50.518  1.00  0.00     0.031 A 
HETATM   21  C10 UNL     1      25.125   7.638  49.976  1.00  0.00    -0.010 A 
HETATM   22 BR1  UNL     1      26.614   8.832  50.309  1.00  0.00    -0.056 Br
HETATM   23  C11 UNL     1      25.626   6.516  49.166  1.00  0.00     0.051 A 
HETATM   24  C12 UNL     1      24.677   5.464  48.771  1.00  0.00     0.053 A 
ENDBRANCH  17  18
ENDBRANCH  10  17
BRANCH  15  25
HETATM   25  O2  UNL     1      24.272  -0.264  53.222  1.00  0.00    -0.354 OA
HETATM   26  C17 UNL     1      25.304  -0.132  54.178  1.00  0.00     0.210 C 
ENDBRANCH  15  25
TORSDOF 3
ENDMDL
MODEL 9
REMARK VINA RESULT:      -7.1      3.667      6.869
REMARK  3 active torsions:
REMARK  status: ('A' for Active; 'I' for Inactive)
REMARK    1  A    between atoms: C7_10  and  S1_11 
REMARK    2  A    between atoms: S1_11  and  C8_12 
REMARK    3  A    between atoms: C16_23  and  O2_24 
ROOT
HETATM    1  C1  UNL     1      24.156   8.491  46.993  1.00  0.00     0.026 C 
HETATM    2  C2  UNL     1      24.220   7.325  47.611  1.00  0.00    -0.009 A 
HETATM    3  C3  UNL     1      23.296   6.209  47.457  1.00  0.00     0.051 A 
HETATM    4  C4  UNL     1      23.801   5.286  48.292  1.00  0.00     0.089 A 
HETATM    5  O1  UNL     1      23.160   4.037  48.418  1.00  0.00    -0.289 OA
HETATM    6  C5  UNL     1      23.124   3.266  49.582  1.00  0.00     0.201 A 
HETATM    7  N1  UNL     1      22.163   2.320  49.541  1.00  0.00    -0.215 NA
HETATM    8  C6  UNL     1      22.018   1.504  50.602  1.00  0.00     0.237 A 
HETATM    9  N2  UNL     1      22.777   1.573  51.710  1.00  0.00    -0.232 NA
HETATM   10  C7  UNL     1      23.745   2.510  51.775  1.00  0.00     0.130 A 
HETATM   11  C13 UNL     1      23.948   3.389  50.706  1.00  0.00     0.118 A 
HETATM   12  N3  UNL     1      24.995   4.304  50.935  1.00  0.00    -0.380 N 
HETATM   13  C14 UNL     1      25.789   4.975  49.951  1.00  0.00     0.164 C 
HETATM   14  C15 UNL     1      25.001   5.760  48.969  1.00  0.00     0.028 A 
HETATM   15  C16 UNL     1      25.261   6.984  48.569  1.00  0.00     0.088 A 
HETATM   16  H10 UNL     1      25.130   4.439  51.981  1.00  0.00     0.160 HD
ENDROOT
BRANCH  10  17
HETATM   17  S1  UNL     1      24.761   2.624  53.226  1.00  0.00    -0.071 SA
BRANCH  17  18
HETATM   18  C8  UNL     1      26.028   1.387  53.221  1.00  0.00    -0.001 A 
HETATM   19  P1  UNL     1      27.605   1.907  53.475  1.00  0.00    -0.019 P 
HETATM   20  C9  UNL     1      28.734   0.439  53.424  1.00  0.00     0.031 A 
HETATM   21  C10 UNL     1      28.032  -0.671  53.201  1.00  0.00    -0.010 A 
HETATM   22 BR1  UNL     1      29.098  -2.286  53.123  1.00  0.00    -0.056 Br
HETATM   23  C11 UNL     1      26.627  -1.053  52.988  1.00  0.00     0.051 A 
HETATM   24  C12 UNL     1      25.607   0.007  52.995  1.00  0.00     0.053 A 
ENDBRANCH  17  18
ENDBRANCH  10  17
BRANCH  15  25
HETATM   25  O2  UNL     1      26.359   7.672  49.064  1.00  0.00    -0.354 OA
HETATM   26  C17 UNL     1      27.599   7.781  48.396  1.00  0.00     0.210 C 
ENDBRANCH  15  25
TORSDOF 3
ENDMDL
