MODEL 1
REMARK VINA RESULT:      -8.0      0.000      0.000
REMARK  6 active torsions:
REMARK  status: ('A' for Active; 'I' for Inactive)
REMARK    1  A    between atoms: C2_2  and  O1_3 
REMARK    2  A    between atoms: O1_3  and  C3_4 
REMARK    3  A    between atoms: C3_4  and  C4_6 
REMARK    4  A    between atoms: C10_14  and  N2_15 
REMARK    5  A    between atoms: N2_15  and  S1_16 
REMARK    6  A    between atoms: S1_16  and  C11_18 
ROOT
HETATM    1  C4  UNL     1      25.495   0.433  53.722  1.00  0.00     0.056 C 
HETATM    2  C5  UNL     1      24.780  -0.530  54.214  1.00  0.00     0.018 C 
HETATM    3  C6  UNL     1      23.482  -0.575  54.091  1.00  0.00     0.049 C 
HETATM    4  C7  UNL     1      22.632  -1.329  55.046  1.00  0.00     0.225 C 
HETATM    5  O3  UNL     1      21.579  -1.878  54.279  1.00  0.00    -0.384 OA
HETATM    6  C8  UNL     1      20.774  -0.867  53.779  1.00  0.00     0.188 C 
HETATM    7  C9  UNL     1      21.441  -0.085  52.670  1.00  0.00     0.156 C 
HETATM    8  N1  UNL     1      22.854   0.119  53.009  1.00  0.00    -0.331 N 
HETATM    9  C10 UNL     1      23.641   1.033  52.247  1.00  0.00     0.116 C 
HETATM   10  C15 UNL     1      24.905   1.164  52.612  1.00  0.00     0.068 C 
ENDROOT
BRANCH   9  11
HETATM   11  N2  UNL     1      22.997   1.705  51.183  1.00  0.00    -0.287 N 
HETATM   12  H12 UNL     1      22.727   1.149  50.322  1.00  0.00     0.178 HD
BRANCH  11  13
HETATM   13  S1  UNL     1      22.624   3.402  51.221  1.00  0.00     0.159 S 
HETATM   14  O4  UNL     1      21.314   3.739  50.552  1.00  0.00    -0.229 OA
BRANCH  13  15
HETATM   15  C11 UNL     1      23.939   4.360  50.607  1.00  0.00     0.096 A 
HETATM   16  C12 UNL     1      24.413   5.683  50.606  1.00  0.00     0.051 A 
HETATM   17  C13 UNL     1      25.552   6.054  49.972  1.00  0.00     0.041 A 
HETATM   18 BR1  UNL     1      26.075   7.880  50.054  1.00  0.00    -0.049 Br
HETATM   19  C14 UNL     1      26.271   4.911  49.260  1.00  0.00     0.093 A 
HETATM   20 CL1  UNL     1      27.838   5.467  48.398  1.00  0.00    -0.075 Cl
HETATM   21  S2  UNL     1      25.165   3.424  49.622  1.00  0.00    -0.065 SA
ENDBRANCH  13  15
ENDBRANCH  11  13
ENDBRANCH   9  11
BRANCH   1  22
HETATM   22  C3  UNL     1      26.798   0.747  54.258  1.00  0.00     0.294 C 
HETATM   23  O2  UNL     1      27.197   1.936  54.272  1.00  0.00    -0.259 OA
BRANCH  22  24
HETATM   24  O1  UNL     1      27.605  -0.256  54.753  1.00  0.00    -0.318 OA
BRANCH  24  25
HETATM   25  C2  UNL     1      29.014  -0.236  54.560  1.00  0.00     0.174 C 
HETATM   26  C1  UNL     1      29.432  -1.111  53.400  1.00  0.00     0.034 C 
ENDBRANCH  24  25
ENDBRANCH  22  24
ENDBRANCH   1  22
TORSDOF 6
ENDMDL
MODEL 2
REMARK VINA RESULT:      -8.0      1.356      1.482
REMARK  6 active torsions:
REMARK  status: ('A' for Active; 'I' for Inactive)
REMARK    1  A    between atoms: C2_2  and  O1_3 
REMARK    2  A    between atoms: O1_3  and  C3_4 
REMARK    3  A    between atoms: C3_4  and  C4_6 
REMARK    4  A    between atoms: C10_14  and  N2_15 
REMARK    5  A    between atoms: N2_15  and  S1_16 
REMARK    6  A    between atoms: S1_16  and  C11_18 
ROOT
HETATM    1  C4  UNL     1      25.315   0.691  53.743  1.00  0.00     0.056 C 
HETATM    2  C5  UNL     1      24.658  -0.398  53.992  1.00  0.00     0.018 C 
HETATM    3  C6  UNL     1      23.356  -0.433  54.065  1.00  0.00     0.049 C 
HETATM    4  C7  UNL     1      22.644  -1.483  54.835  1.00  0.00     0.225 C 
HETATM    5  O3  UNL     1      21.469  -1.772  54.104  1.00  0.00    -0.384 OA
HETATM    6  C8  UNL     1      20.625  -0.673  54.101  1.00  0.00     0.188 C 
HETATM    7  C9  UNL     1      21.134   0.451  53.226  1.00  0.00     0.156 C 
HETATM    8  N1  UNL     1      22.588   0.566  53.388  1.00  0.00    -0.331 N 
HETATM    9  C10 UNL     1      23.272   1.701  52.860  1.00  0.00     0.116 C 
HETATM   10  C15 UNL     1      24.580   1.735  53.045  1.00  0.00     0.068 C 
ENDROOT
BRANCH   9  11
HETATM   11  N2  UNL     1      22.489   2.672  52.195  1.00  0.00    -0.287 N 
HETATM   12  H12 UNL     1      21.779   3.223  52.759  1.00  0.00     0.178 HD
BRANCH  11  13
HETATM   13  S1  UNL     1      22.635   3.007  50.497  1.00  0.00     0.159 S 
HETATM   14  O4  UNL     1      22.703   1.760  49.648  1.00  0.00    -0.229 OA
BRANCH  13  15
HETATM   15  C11 UNL     1      23.951   4.096  50.169  1.00  0.00     0.096 A 
HETATM   16  C12 UNL     1      25.211   4.123  49.546  1.00  0.00     0.051 A 
HETATM   17  C13 UNL     1      25.981   5.237  49.498  1.00  0.00     0.041 A 
HETATM   18 BR1  UNL     1      27.665   5.130  48.621  1.00  0.00    -0.049 Br
HETATM   19  C14 UNL     1      25.363   6.454  50.181  1.00  0.00     0.093 A 
HETATM   20 CL1  UNL     1      26.460   7.969  50.092  1.00  0.00    -0.075 Cl
HETATM   21  S2  UNL     1      23.709   5.793  50.809  1.00  0.00    -0.065 SA
ENDBRANCH  13  15
ENDBRANCH  11  13
ENDBRANCH   9  11
BRANCH   1  22
HETATM   22  C3  UNL     1      26.694   0.841  54.141  1.00  0.00     0.294 C 
HETATM   23  O2  UNL     1      27.198   1.988  54.222  1.00  0.00    -0.259 OA
BRANCH  22  24
HETATM   24  O1  UNL     1      27.458  -0.269  54.432  1.00  0.00    -0.318 OA
BRANCH  24  25
HETATM   25  C2  UNL     1      28.866  -0.175  54.605  1.00  0.00     0.174 C 
HETATM   26  C1  UNL     1      29.613  -0.959  53.550  1.00  0.00     0.034 C 
ENDBRANCH  24  25
ENDBRANCH  22  24
ENDBRANCH   1  22
TORSDOF 6
ENDMDL
MODEL 3
REMARK VINA RESULT:      -7.4      2.165      2.763
REMARK  6 active torsions:
REMARK  status: ('A' for Active; 'I' for Inactive)
REMARK    1  A    between atoms: C2_2  and  O1_3 
REMARK    2  A    between atoms: O1_3  and  C3_4 
REMARK    3  A    between atoms: C3_4  and  C4_6 
REMARK    4  A    between atoms: C10_14  and  N2_15 
REMARK    5  A    between atoms: N2_15  and  S1_16 
REMARK    6  A    between atoms: S1_16  and  C11_18 
ROOT
HETATM    1  C4  UNL     1      24.665   0.003  53.451  1.00  0.00     0.056 C 
HETATM    2  C5  UNL     1      23.391  -0.217  53.548  1.00  0.00     0.018 C 
HETATM    3  C6  UNL     1      22.497   0.681  53.235  1.00  0.00     0.049 C 
HETATM    4  C7  UNL     1      21.129   0.656  53.810  1.00  0.00     0.225 C 
HETATM    5  O3  UNL     1      20.266   1.093  52.780  1.00  0.00    -0.384 OA
HETATM    6  C8  UNL     1      20.519   2.420  52.475  1.00  0.00     0.188 C 
HETATM    7  C9  UNL     1      21.824   2.610  51.735  1.00  0.00     0.156 C 
HETATM    8  N1  UNL     1      22.838   1.720  52.314  1.00  0.00    -0.331 N 
HETATM    9  C10 UNL     1      24.210   1.883  51.957  1.00  0.00     0.116 C 
HETATM   10  C15 UNL     1      25.064   1.044  52.518  1.00  0.00     0.068 C 
ENDROOT
BRANCH   9  11
HETATM   11  N2  UNL     1      24.519   2.917  51.044  1.00  0.00    -0.287 N 
HETATM   12  H12 UNL     1      23.767   3.626  50.808  1.00  0.00     0.178 HD
BRANCH  11  13
HETATM   13  S1  UNL     1      26.076   3.082  50.291  1.00  0.00     0.159 S 
HETATM   14  O4  UNL     1      27.225   2.866  51.244  1.00  0.00    -0.229 OA
BRANCH  13  15
HETATM   15  C11 UNL     1      26.213   4.586  49.429  1.00  0.00     0.096 A 
HETATM   16  C12 UNL     1      27.175   5.394  48.797  1.00  0.00     0.051 A 
HETATM   17  C13 UNL     1      26.867   6.570  48.200  1.00  0.00     0.041 A 
HETATM   18 BR1  UNL     1      28.270   7.560  47.382  1.00  0.00    -0.049 Br
HETATM   19  C14 UNL     1      25.388   6.941  48.277  1.00  0.00     0.093 A 
HETATM   20 CL1  UNL     1      25.007   8.574  47.441  1.00  0.00    -0.075 Cl
HETATM   21  S2  UNL     1      24.637   5.492  49.226  1.00  0.00    -0.065 SA
ENDBRANCH  13  15
ENDBRANCH  11  13
ENDBRANCH   9  11
BRANCH   1  22
HETATM   22  C3  UNL     1      25.616  -0.753  54.231  1.00  0.00     0.294 C 
HETATM   23  O2  UNL     1      25.300  -1.158  55.376  1.00  0.00    -0.259 OA
BRANCH  22  24
HETATM   24  O1  UNL     1      26.867  -1.029  53.723  1.00  0.00    -0.318 OA
BRANCH  24  25
HETATM   25  C2  UNL     1      27.997  -0.238  54.067  1.00  0.00     0.174 C 
HETATM   26  C1  UNL     1      29.294  -0.934  53.718  1.00  0.00     0.034 C 
ENDBRANCH  24  25
ENDBRANCH  22  24
ENDBRANCH   1  22
TORSDOF 6
ENDMDL
MODEL 4
REMARK VINA RESULT:      -7.4      4.608      6.608
REMARK  6 active torsions:
REMARK  status: ('A' for Active; 'I' for Inactive)
REMARK    1  A    between atoms: C2_2  and  O1_3 
REMARK    2  A    between atoms: O1_3  and  C3_4 
REMARK    3  A    between atoms: C3_4  and  C4_6 
REMARK    4  A    between atoms: C10_14  and  N2_15 
REMARK    5  A    between atoms: N2_15  and  S1_16 
REMARK    6  A    between atoms: S1_16  and  C11_18 
ROOT
HETATM    1  C4  UNL     1      25.508   0.781  53.847  1.00  0.00     0.056 C 
HETATM    2  C5  UNL     1      25.512   1.886  53.168  1.00  0.00     0.018 C 
HETATM    3  C6  UNL     1      24.780   2.058  52.102  1.00  0.00     0.049 C 
HETATM    4  C7  UNL     1      25.142   3.046  51.055  1.00  0.00     0.225 C 
HETATM    5  O3  UNL     1      23.921   3.582  50.587  1.00  0.00    -0.384 OA
HETATM    6  C8  UNL     1      23.186   2.603  49.938  1.00  0.00     0.188 C 
HETATM    7  C9  UNL     1      22.604   1.583  50.891  1.00  0.00     0.156 C 
HETATM    8  N1  UNL     1      23.594   1.277  51.930  1.00  0.00    -0.331 N 
HETATM    9  C10 UNL     1      23.383   0.169  52.805  1.00  0.00     0.116 C 
HETATM   10  C15 UNL     1      24.318  -0.044  53.715  1.00  0.00     0.068 C 
ENDROOT
BRANCH   9  11
HETATM   11  N2  UNL     1      22.204  -0.586  52.614  1.00  0.00    -0.287 N 
HETATM   12  H12 UNL     1      22.110  -1.164  51.731  1.00  0.00     0.178 HD
BRANCH  11  13
HETATM   13  S1  UNL     1      20.898  -0.611  53.761  1.00  0.00     0.159 S 
HETATM   14  O4  UNL     1      21.035  -1.701  54.795  1.00  0.00    -0.229 OA
BRANCH  13  15
HETATM   15  C11 UNL     1      19.351  -0.648  52.968  1.00  0.00     0.096 A 
HETATM   16  C12 UNL     1      18.656  -0.039  51.909  1.00  0.00     0.051 A 
HETATM   17  C13 UNL     1      17.381  -0.364  51.585  1.00  0.00     0.041 A 
HETATM   18 BR1  UNL     1      16.564   0.542  50.126  1.00  0.00    -0.049 Br
HETATM   19  C14 UNL     1      16.768  -1.446  52.470  1.00  0.00     0.093 A 
HETATM   20 CL1  UNL     1      15.007  -1.863  51.988  1.00  0.00    -0.075 Cl
HETATM   21  S2  UNL     1      18.164  -1.848  53.676  1.00  0.00    -0.065 SA
ENDBRANCH  13  15
ENDBRANCH  11  13
ENDBRANCH   9  11
BRANCH   1  22
HETATM   22  C3  UNL     1      26.626   0.411  54.681  1.00  0.00     0.294 C 
HETATM   23  O2  UNL     1      26.515  -0.548  55.483  1.00  0.00    -0.259 OA
BRANCH  22  24
HETATM   24  O1  UNL     1      27.813   1.106  54.599  1.00  0.00    -0.318 OA
BRANCH  24  25
HETATM   25  C2  UNL     1      28.755   0.844  53.566  1.00  0.00     0.174 C 
HETATM   26  C1  UNL     1      29.457  -0.478  53.772  1.00  0.00     0.034 C 
ENDBRANCH  24  25
ENDBRANCH  22  24
ENDBRANCH   1  22
TORSDOF 6
ENDMDL
MODEL 5
REMARK VINA RESULT:      -7.3      3.914      6.756
REMARK  6 active torsions:
REMARK  status: ('A' for Active; 'I' for Inactive)
REMARK    1  A    between atoms: C2_2  and  O1_3 
REMARK    2  A    between atoms: O1_3  and  C3_4 
REMARK    3  A    between atoms: C3_4  and  C4_6 
REMARK    4  A    between atoms: C10_14  and  N2_15 
REMARK    5  A    between atoms: N2_15  and  S1_16 
REMARK    6  A    between atoms: S1_16  and  C11_18 
ROOT
HETATM    1  C4  UNL     1      25.508   2.419  51.407  1.00  0.00     0.056 C 
HETATM    2  C5  UNL     1      26.767   2.377  51.713  1.00  0.00     0.018 C 
HETATM    3  C6  UNL     1      27.217   1.728  52.752  1.00  0.00     0.049 C 
HETATM    4  C7  UNL     1      28.503   2.085  53.400  1.00  0.00     0.225 C 
HETATM    5  O3  UNL     1      29.080   0.863  53.817  1.00  0.00    -0.384 OA
HETATM    6  C8  UNL     1      28.308   0.285  54.812  1.00  0.00     0.188 C 
HETATM    7  C9  UNL     1      27.007  -0.279  54.286  1.00  0.00     0.156 C 
HETATM    8  N1  UNL     1      26.455   0.641  53.285  1.00  0.00    -0.331 N 
HETATM    9  C10 UNL     1      25.118   0.462  52.818  1.00  0.00     0.116 C 
HETATM   10  C15 UNL     1      24.691   1.329  51.917  1.00  0.00     0.068 C 
ENDROOT
BRANCH   9  11
HETATM   11  N2  UNL     1      24.387  -0.620  53.361  1.00  0.00    -0.287 N 
HETATM   12  H12 UNL     1      24.764  -1.602  53.230  1.00  0.00     0.178 HD
BRANCH  11  13
HETATM   13  S1  UNL     1      22.898  -0.415  54.233  1.00  0.00     0.159 S 
HETATM   14  O4  UNL     1      22.625  -1.528  55.214  1.00  0.00    -0.229 OA
BRANCH  13  15
HETATM   15  C11 UNL     1      21.558  -0.146  53.157  1.00  0.00     0.096 A 
HETATM   16  C12 UNL     1      21.250   0.489  51.941  1.00  0.00     0.051 A 
HETATM   17  C13 UNL     1      20.009   0.469  51.398  1.00  0.00     0.041 A 
HETATM   18 BR1  UNL     1      19.735   1.371  49.746  1.00  0.00    -0.049 Br
HETATM   19  C14 UNL     1      18.979  -0.299  52.221  1.00  0.00     0.093 A 
HETATM   20 CL1  UNL     1      17.279  -0.301  51.434  1.00  0.00    -0.075 Cl
HETATM   21  S2  UNL     1      19.983  -0.900  53.702  1.00  0.00    -0.065 SA
ENDBRANCH  13  15
ENDBRANCH  11  13
ENDBRANCH   9  11
BRANCH   1  22
HETATM   22  C3  UNL     1      24.968   3.490  50.605  1.00  0.00     0.294 C 
HETATM   23  O2  UNL     1      25.737   4.199  49.912  1.00  0.00    -0.259 OA
BRANCH  22  24
HETATM   24  O1  UNL     1      23.611   3.736  50.598  1.00  0.00    -0.318 OA
BRANCH  24  25
HETATM   25  C2  UNL     1      23.026   4.680  51.486  1.00  0.00     0.174 C 
HETATM   26  C1  UNL     1      21.681   4.211  51.993  1.00  0.00     0.034 C 
ENDBRANCH  24  25
ENDBRANCH  22  24
ENDBRANCH   1  22
TORSDOF 6
ENDMDL
MODEL 6
REMARK VINA RESULT:      -7.3      4.072      6.305
REMARK  6 active torsions:
REMARK  status: ('A' for Active; 'I' for Inactive)
REMARK    1  A    between atoms: C2_2  and  O1_3 
REMARK    2  A    between atoms: O1_3  and  C3_4 
REMARK    3  A    between atoms: C3_4  and  C4_6 
REMARK    4  A    between atoms: C10_14  and  N2_15 
REMARK    5  A    between atoms: N2_15  and  S1_16 
REMARK    6  A    between atoms: S1_16  and  C11_18 
ROOT
HETATM    1  C4  UNL     1      25.852   1.691  52.138  1.00  0.00     0.056 C 
HETATM    2  C5  UNL     1      26.593   2.436  51.378  1.00  0.00     0.018 C 
HETATM    3  C6  UNL     1      26.097   3.351  50.591  1.00  0.00     0.049 C 
HETATM    4  C7  UNL     1      26.821   3.820  49.384  1.00  0.00     0.225 C 
HETATM    5  O3  UNL     1      26.544   5.203  49.277  1.00  0.00    -0.384 OA
HETATM    6  C8  UNL     1      25.200   5.401  49.008  1.00  0.00     0.188 C 
HETATM    7  C9  UNL     1      24.317   5.113  50.202  1.00  0.00     0.156 C 
HETATM    8  N1  UNL     1      24.821   3.921  50.895  1.00  0.00    -0.331 N 
HETATM    9  C10 UNL     1      24.027   3.300  51.905  1.00  0.00     0.116 C 
HETATM   10  C15 UNL     1      24.548   2.232  52.484  1.00  0.00     0.068 C 
ENDROOT
BRANCH   9  11
HETATM   11  N2  UNL     1      22.771   3.885  52.186  1.00  0.00    -0.287 N 
HETATM   12  H12 UNL     1      22.736   4.721  52.836  1.00  0.00     0.178 HD
BRANCH  11  13
HETATM   13  S1  UNL     1      21.281   3.296  51.515  1.00  0.00     0.159 S 
HETATM   14  O4  UNL     1      20.169   4.315  51.548  1.00  0.00    -0.229 OA
BRANCH  13  15
HETATM   15  C11 UNL     1      20.807   1.785  52.236  1.00  0.00     0.096 A 
HETATM   16  C12 UNL     1      21.318   0.762  53.053  1.00  0.00     0.051 A 
HETATM   17  C13 UNL     1      20.589  -0.320  53.416  1.00  0.00     0.041 A 
HETATM   18 BR1  UNL     1      21.408  -1.627  54.528  1.00  0.00    -0.049 Br
HETATM   19  C14 UNL     1      19.167  -0.331  52.859  1.00  0.00     0.093 A 
HETATM   20 CL1  UNL     1      18.195  -1.843  53.385  1.00  0.00    -0.075 Cl
HETATM   21  S2  UNL     1      19.090   1.272  51.864  1.00  0.00    -0.065 SA
ENDBRANCH  13  15
ENDBRANCH  11  13
ENDBRANCH   9  11
BRANCH   1  22
HETATM   22  C3  UNL     1      26.313   0.405  52.604  1.00  0.00     0.294 C 
HETATM   23  O2  UNL     1      25.486  -0.432  53.041  1.00  0.00    -0.259 OA
BRANCH  22  24
HETATM   24  O1  UNL     1      27.655   0.094  52.570  1.00  0.00    -0.318 OA
BRANCH  24  25
HETATM   25  C2  UNL     1      28.430   0.026  53.761  1.00  0.00     0.174 C 
HETATM   26  C1  UNL     1      29.592  -0.931  53.618  1.00  0.00     0.034 C 
ENDBRANCH  24  25
ENDBRANCH  22  24
ENDBRANCH   1  22
TORSDOF 6
ENDMDL
MODEL 7
REMARK VINA RESULT:      -7.3      2.896      5.037
REMARK  6 active torsions:
REMARK  status: ('A' for Active; 'I' for Inactive)
REMARK    1  A    between atoms: C2_2  and  O1_3 
REMARK    2  A    between atoms: O1_3  and  C3_4 
REMARK    3  A    between atoms: C3_4  and  C4_6 
REMARK    4  A    between atoms: C10_14  and  N2_15 
REMARK    5  A    between atoms: N2_15  and  S1_16 
REMARK    6  A    between atoms: S1_16  and  C11_18 
ROOT
HETATM    1  C4  UNL     1      24.089   1.264  52.745  1.00  0.00     0.056 C 
HETATM    2  C5  UNL     1      24.753   0.837  53.774  1.00  0.00     0.018 C 
HETATM    3  C6  UNL     1      26.057   0.813  53.810  1.00  0.00     0.049 C 
HETATM    4  C7  UNL     1      26.797  -0.115  54.700  1.00  0.00     0.225 C 
HETATM    5  O3  UNL     1      27.939   0.595  55.139  1.00  0.00    -0.384 OA
HETATM    6  C8  UNL     1      28.786   0.845  54.071  1.00  0.00     0.188 C 
HETATM    7  C9  UNL     1      28.244   1.899  53.131  1.00  0.00     0.156 C 
HETATM    8  N1  UNL     1      26.799   1.702  52.970  1.00  0.00    -0.331 N 
HETATM    9  C10 UNL     1      26.096   2.409  51.949  1.00  0.00     0.116 C 
HETATM   10  C15 UNL     1      24.798   2.180  51.865  1.00  0.00     0.068 C 
ENDROOT
BRANCH   9  11
HETATM   11  N2  UNL     1      26.853   3.281  51.133  1.00  0.00    -0.287 N 
HETATM   12  H12 UNL     1      27.722   3.731  51.543  1.00  0.00     0.178 HD
BRANCH  11  13
HETATM   13  S1  UNL     1      26.428   3.651  49.490  1.00  0.00     0.159 S 
HETATM   14  O4  UNL     1      27.546   4.307  48.718  1.00  0.00    -0.229 OA
BRANCH  13  15
HETATM   15  C11 UNL     1      24.948   4.561  49.401  1.00  0.00     0.096 A 
HETATM   16  C12 UNL     1      23.660   4.492  48.842  1.00  0.00     0.051 A 
HETATM   17  C13 UNL     1      22.734   5.465  49.013  1.00  0.00     0.041 A 
HETATM   18 BR1  UNL     1      21.030   5.240  48.199  1.00  0.00    -0.049 Br
HETATM   19  C14 UNL     1      23.211   6.641  49.861  1.00  0.00     0.093 A 
HETATM   20 CL1  UNL     1      21.900   7.962  50.071  1.00  0.00    -0.075 Cl
HETATM   21  S2  UNL     1      24.981   6.153  50.303  1.00  0.00    -0.065 SA
ENDBRANCH  13  15
ENDBRANCH  11  13
ENDBRANCH   9  11
BRANCH   1  22
HETATM   22  C3  UNL     1      22.729   0.845  52.505  1.00  0.00     0.294 C 
HETATM   23  O2  UNL     1      22.327   0.680  51.328  1.00  0.00    -0.259 OA
BRANCH  22  24
HETATM   24  O1  UNL     1      21.873   0.627  53.563  1.00  0.00    -0.318 OA
BRANCH  24  25
HETATM   25  C2  UNL     1      21.066  -0.543  53.633  1.00  0.00     0.174 C 
HETATM   26  C1  UNL     1      21.737  -1.638  54.432  1.00  0.00     0.034 C 
ENDBRANCH  24  25
ENDBRANCH  22  24
ENDBRANCH   1  22
TORSDOF 6
ENDMDL
MODEL 8
REMARK VINA RESULT:      -7.2      2.469      2.594
REMARK  6 active torsions:
REMARK  status: ('A' for Active; 'I' for Inactive)
REMARK    1  A    between atoms: C2_2  and  O1_3 
REMARK    2  A    between atoms: O1_3  and  C3_4 
REMARK    3  A    between atoms: C3_4  and  C4_6 
REMARK    4  A    between atoms: C10_14  and  N2_15 
REMARK    5  A    between atoms: N2_15  and  S1_16 
REMARK    6  A    between atoms: S1_16  and  C11_18 
ROOT
HETATM    1  C4  UNL     1      25.106   0.160  53.753  1.00  0.00     0.056 C 
HETATM    2  C5  UNL     1      24.214  -0.676  54.184  1.00  0.00     0.018 C 
HETATM    3  C6  UNL     1      22.936  -0.509  53.978  1.00  0.00     0.049 C 
HETATM    4  C7  UNL     1      21.915  -1.120  54.865  1.00  0.00     0.225 C 
HETATM    5  O3  UNL     1      20.839  -1.487  54.024  1.00  0.00    -0.384 OA
HETATM    6  C8  UNL     1      20.243  -0.356  53.491  1.00  0.00     0.188 C 
HETATM    7  C9  UNL     1      21.099   0.313  52.438  1.00  0.00     0.156 C 
HETATM    8  N1  UNL     1      22.501   0.283  52.870  1.00  0.00    -0.331 N 
HETATM    9  C10 UNL     1      23.474   1.061  52.173  1.00  0.00     0.116 C 
HETATM   10  C15 UNL     1      24.715   0.983  52.619  1.00  0.00     0.068 C 
ENDROOT
BRANCH   9  11
HETATM   11  N2  UNL     1      23.017   1.835  51.082  1.00  0.00    -0.287 N 
HETATM   12  H12 UNL     1      22.589   1.334  50.251  1.00  0.00     0.178 HD
BRANCH  11  13
HETATM   13  S1  UNL     1      23.123   3.568  51.038  1.00  0.00     0.159 S 
HETATM   14  O4  UNL     1      22.244   4.245  52.061  1.00  0.00    -0.229 OA
BRANCH  13  15
HETATM   15  C11 UNL     1      22.856   4.185  49.434  1.00  0.00     0.096 A 
HETATM   16  C12 UNL     1      22.407   3.768  48.168  1.00  0.00     0.051 A 
HETATM   17  C13 UNL     1      22.341   4.602  47.102  1.00  0.00     0.041 A 
HETATM   18 BR1  UNL     1      21.712   3.902  45.450  1.00  0.00    -0.049 Br
HETATM   19  C14 UNL     1      22.797   6.029  47.395  1.00  0.00     0.093 A 
HETATM   20 CL1  UNL     1      22.690   7.146  45.896  1.00  0.00    -0.075 Cl
HETATM   21  S2  UNL     1      23.268   5.956  49.223  1.00  0.00    -0.065 SA
ENDBRANCH  13  15
ENDBRANCH  11  13
ENDBRANCH   9  11
BRANCH   1  22
HETATM   22  C3  UNL     1      26.405   0.255  54.375  1.00  0.00     0.294 C 
HETATM   23  O2  UNL     1      26.694   1.262  55.065  1.00  0.00    -0.259 OA
BRANCH  22  24
HETATM   24  O1  UNL     1      27.327  -0.757  54.213  1.00  0.00    -0.318 OA
BRANCH  24  25
HETATM   25  C2  UNL     1      28.237  -0.762  53.120  1.00  0.00     0.174 C 
HETATM   26  C1  UNL     1      29.489  -1.547  53.438  1.00  0.00     0.034 C 
ENDBRANCH  24  25
ENDBRANCH  22  24
ENDBRANCH   1  22
TORSDOF 6
ENDMDL
MODEL 9
REMARK VINA RESULT:      -7.0      2.468      2.684
REMARK  6 active torsions:
REMARK  status: ('A' for Active; 'I' for Inactive)
REMARK    1  A    between atoms: C2_2  and  O1_3 
REMARK    2  A    between atoms: O1_3  and  C3_4 
REMARK    3  A    between atoms: C3_4  and  C4_6 
REMARK    4  A    between atoms: C10_14  and  N2_15 
REMARK    5  A    between atoms: N2_15  and  S1_16 
REMARK    6  A    between atoms: S1_16  and  C11_18 
ROOT
HETATM    1  C4  UNL     1      25.218   0.205  53.595  1.00  0.00     0.056 C 
HETATM    2  C5  UNL     1      24.325  -0.691  53.879  1.00  0.00     0.018 C 
HETATM    3  C6  UNL     1      23.051  -0.418  53.945  1.00  0.00     0.049 C 
HETATM    4  C7  UNL     1      22.114  -1.243  54.747  1.00  0.00     0.225 C 
HETATM    5  O3  UNL     1      20.903  -1.276  54.019  1.00  0.00    -0.384 OA
HETATM    6  C8  UNL     1      20.340  -0.011  53.971  1.00  0.00     0.188 C 
HETATM    7  C9  UNL     1      21.095   0.930  53.059  1.00  0.00     0.156 C 
HETATM    8  N1  UNL     1      22.536   0.707  53.227  1.00  0.00    -0.331 N 
HETATM    9  C10 UNL     1      23.466   1.631  52.663  1.00  0.00     0.116 C 
HETATM   10  C15 UNL     1      24.746   1.365  52.855  1.00  0.00     0.068 C 
ENDROOT
BRANCH   9  11
HETATM   11  N2  UNL     1      22.931   2.733  51.958  1.00  0.00    -0.287 N 
HETATM   12  H12 UNL     1      22.064   2.584  51.366  1.00  0.00     0.178 HD
BRANCH  11  13
HETATM   13  S1  UNL     1      23.627   4.324  52.016  1.00  0.00     0.159 S 
HETATM   14  O4  UNL     1      23.680   4.901  53.410  1.00  0.00    -0.229 OA
BRANCH  13  15
HETATM   15  C11 UNL     1      22.855   5.402  50.890  1.00  0.00     0.096 A 
HETATM   16  C12 UNL     1      21.921   6.452  50.855  1.00  0.00     0.051 A 
HETATM   17  C13 UNL     1      21.561   7.076  49.708  1.00  0.00     0.041 A 
HETATM   18 BR1  UNL     1      20.286   8.483  49.808  1.00  0.00    -0.049 Br
HETATM   19  C14 UNL     1      22.256   6.537  48.460  1.00  0.00     0.093 A 
HETATM   20 CL1  UNL     1      21.729   7.426  46.897  1.00  0.00    -0.075 Cl
HETATM   21  S2  UNL     1      23.361   5.169  49.148  1.00  0.00    -0.065 SA
ENDBRANCH  13  15
ENDBRANCH  11  13
ENDBRANCH   9  11
BRANCH   1  22
HETATM   22  C3  UNL     1      26.595   0.043  53.997  1.00  0.00     0.294 C 
HETATM   23  O2  UNL     1      26.862  -0.365  55.153  1.00  0.00    -0.259 OA
BRANCH  22  24
HETATM   24  O1  UNL     1      27.614   0.333  53.116  1.00  0.00    -0.318 OA
BRANCH  24  25
HETATM   25  C2  UNL     1      28.810   0.969  53.551  1.00  0.00     0.174 C 
HETATM   26  C1  UNL     1      28.648   2.470  53.632  1.00  0.00     0.034 C 
ENDBRANCH  24  25
ENDBRANCH  22  24
ENDBRANCH   1  22
TORSDOF 6
ENDMDL
