MODEL 1
REMARK VINA RESULT:      -8.0      0.000      0.000
REMARK  0 active torsions:
REMARK  status: ('A' for Active; 'I' for Inactive)
ROOT
HETATM    1  O1  UNL     1      28.783   1.729  52.903  1.00  0.00    -0.291 OA
HETATM    2  C1  UNL     1      27.588   1.349  52.895  1.00  0.00     0.169 C 
HETATM    3  C2  UNL     1      27.094   0.089  52.355  1.00  0.00     0.092 C 
HETATM    4  C3  UNL     1      25.961  -0.511  52.752  1.00  0.00     0.121 C 
HETATM    5  F1  UNL     1      25.637  -1.682  52.153  1.00  0.00    -0.208 F 
HETATM    6  C4  UNL     1      25.326   0.350  53.832  1.00  0.00     0.167 C 
HETATM    7  C5  UNL     1      24.036  -0.331  54.116  1.00  0.00     0.060 C 
HETATM    8 CL1  UNL     1      24.240  -1.190  55.711  1.00  0.00    -0.121 Cl
HETATM    9  C6  UNL     1      23.206  -0.035  53.046  1.00  0.00     0.142 C 
HETATM   10  C7  UNL     1      21.793  -0.578  52.998  1.00  0.00     0.101 C 
HETATM   11  F2  UNL     1      20.781  -1.351  53.611  1.00  0.00    -0.210 F 
HETATM   12  C8  UNL     1      21.159  -0.175  51.884  1.00  0.00     0.039 C 
HETATM   13  C9  UNL     1      21.357   0.607  50.712  1.00  0.00     0.020 C 
HETATM   14  C10 UNL     1      22.316   1.326  50.205  1.00  0.00     0.090 C 
HETATM   15  N1  UNL     1      23.625   1.637  50.658  1.00  0.00    -0.349 N 
HETATM   16  C11 UNL     1      23.746   2.626  51.709  1.00  0.00     0.157 A 
HETATM   17  N2  UNL     1      23.011   3.694  51.375  1.00  0.00    -0.222 NA
HETATM   18  C12 UNL     1      22.908   4.791  52.137  1.00  0.00     0.235 A 
HETATM   19  N3  UNL     1      23.537   4.928  53.318  1.00  0.00    -0.252 NA
HETATM   20  C13 UNL     1      24.295   3.850  53.681  1.00  0.00     0.151 A 
HETATM   21  C14 UNL     1      24.400   2.727  52.901  1.00  0.00     0.095 A 
HETATM   22  N4  UNL     1      25.237   1.712  53.393  1.00  0.00    -0.357 N 
HETATM   23  C15 UNL     1      26.592   2.288  53.501  1.00  0.00     0.207 C 
HETATM   24  H7  UNL     1      24.647   1.537  50.646  1.00  0.00     0.167 HD
ENDROOT
TORSDOF 0
ENDMDL
MODEL 2
REMARK VINA RESULT:      -7.6      1.744      2.231
REMARK  0 active torsions:
REMARK  status: ('A' for Active; 'I' for Inactive)
ROOT
HETATM    1  O1  UNL     1      26.767   2.226  54.044  1.00  0.00    -0.291 OA
HETATM    2  C1  UNL     1      25.658   1.932  53.538  1.00  0.00     0.169 C 
HETATM    3  C2  UNL     1      25.281   0.631  53.001  1.00  0.00     0.092 C 
HETATM    4  C3  UNL     1      24.017   0.189  52.908  1.00  0.00     0.121 C 
HETATM    5  F1  UNL     1      23.829  -1.046  52.385  1.00  0.00    -0.208 F 
HETATM    6  C4  UNL     1      23.099   1.270  53.454  1.00  0.00     0.167 C 
HETATM    7  C5  UNL     1      21.734   0.739  53.201  1.00  0.00     0.060 C 
HETATM    8 CL1  UNL     1      21.089   0.170  54.807  1.00  0.00    -0.121 Cl
HETATM    9  C6  UNL     1      21.513   0.893  51.840  1.00  0.00     0.142 C 
HETATM   10  C7  UNL     1      20.205   0.446  51.221  1.00  0.00     0.101 C 
HETATM   11  F2  UNL     1      18.929  -0.135  51.395  1.00  0.00    -0.210 F 
HETATM   12  C8  UNL     1      20.193   0.683  49.898  1.00  0.00     0.039 C 
HETATM   13  C9  UNL     1      20.996   1.226  48.857  1.00  0.00     0.020 C 
HETATM   14  C10 UNL     1      22.171   1.777  48.759  1.00  0.00     0.090 C 
HETATM   15  N1  UNL     1      23.174   2.076  49.716  1.00  0.00    -0.349 N 
HETATM   16  C11 UNL     1      22.958   3.227  50.567  1.00  0.00     0.157 A 
HETATM   17  N2  UNL     1      22.605   4.264  49.797  1.00  0.00    -0.222 NA
HETATM   18  C12 UNL     1      22.332   5.485  50.278  1.00  0.00     0.235 A 
HETATM   19  N3  UNL     1      22.387   5.790  51.586  1.00  0.00    -0.252 NA
HETATM   20  C13 UNL     1      22.746   4.747  52.393  1.00  0.00     0.151 A 
HETATM   21  C14 UNL     1      23.025   3.498  51.902  1.00  0.00     0.095 A 
HETATM   22  N4  UNL     1      23.406   2.534  52.850  1.00  0.00    -0.357 N 
HETATM   23  C15 UNL     1      24.641   3.029  53.491  1.00  0.00     0.207 C 
HETATM   24  H7  UNL     1      24.072   1.907  50.188  1.00  0.00     0.167 HD
ENDROOT
TORSDOF 0
ENDMDL
MODEL 3
REMARK VINA RESULT:      -7.5      4.109      5.932
REMARK  0 active torsions:
REMARK  status: ('A' for Active; 'I' for Inactive)
ROOT
HETATM    1  O1  UNL     1      21.441  -0.117  51.508  1.00  0.00    -0.291 OA
HETATM    2  C1  UNL     1      22.062   0.938  51.236  1.00  0.00     0.169 C 
HETATM    3  C2  UNL     1      21.989   1.673  49.980  1.00  0.00     0.092 C 
HETATM    4  C3  UNL     1      22.250   2.984  49.854  1.00  0.00     0.121 C 
HETATM    5  F1  UNL     1      22.138   3.522  48.617  1.00  0.00    -0.208 F 
HETATM    6  C4  UNL     1      22.619   3.523  51.227  1.00  0.00     0.167 C 
HETATM    7  C5  UNL     1      23.000   4.935  50.963  1.00  0.00     0.060 C 
HETATM    8 CL1  UNL     1      21.617   5.967  51.551  1.00  0.00    -0.121 Cl
HETATM    9  C6  UNL     1      24.254   4.887  50.373  1.00  0.00     0.142 C 
HETATM   10  C7  UNL     1      24.956   6.163  49.958  1.00  0.00     0.101 C 
HETATM   11  F2  UNL     1      24.935   7.574  49.874  1.00  0.00    -0.210 F 
HETATM   12  C8  UNL     1      26.153   5.898  49.410  1.00  0.00     0.039 C 
HETATM   13  C9  UNL     1      27.012   4.811  49.082  1.00  0.00     0.020 C 
HETATM   14  C10 UNL     1      26.987   3.516  49.207  1.00  0.00     0.090 C 
HETATM   15  N1  UNL     1      26.034   2.623  49.760  1.00  0.00    -0.349 N 
HETATM   16  C11 UNL     1      25.966   2.534  51.204  1.00  0.00     0.157 A 
HETATM   17  N2  UNL     1      27.208   2.378  51.679  1.00  0.00    -0.222 NA
HETATM   18  C12 UNL     1      27.494   2.263  52.983  1.00  0.00     0.235 A 
HETATM   19  N3  UNL     1      26.557   2.293  53.947  1.00  0.00    -0.252 NA
HETATM   20  C13 UNL     1      25.280   2.452  53.486  1.00  0.00     0.151 A 
HETATM   21  C14 UNL     1      24.987   2.569  52.152  1.00  0.00     0.095 A 
HETATM   22  N4  UNL     1      23.627   2.700  51.830  1.00  0.00    -0.357 N 
HETATM   23  C15 UNL     1      22.953   1.478  52.310  1.00  0.00     0.207 C 
HETATM   24  H7  UNL     1      25.284   1.924  49.691  1.00  0.00     0.167 HD
ENDROOT
TORSDOF 0
ENDMDL
MODEL 4
REMARK VINA RESULT:      -7.4      2.561      3.230
REMARK  0 active torsions:
REMARK  status: ('A' for Active; 'I' for Inactive)
ROOT
HETATM    1  O1  UNL     1      26.908   5.384  48.916  1.00  0.00    -0.291 OA
HETATM    2  C1  UNL     1      26.228   4.568  49.581  1.00  0.00     0.169 C 
HETATM    3  C2  UNL     1      26.466   3.133  49.676  1.00  0.00     0.092 C 
HETATM    4  C3  UNL     1      26.070   2.367  50.705  1.00  0.00     0.121 C 
HETATM    5  F1  UNL     1      26.368   1.048  50.646  1.00  0.00    -0.208 F 
HETATM    6  C4  UNL     1      25.355   3.259  51.707  1.00  0.00     0.167 C 
HETATM    7  C5  UNL     1      24.859   2.310  52.737  1.00  0.00     0.060 C 
HETATM    8 CL1  UNL     1      25.943   2.503  54.189  1.00  0.00    -0.121 Cl
HETATM    9  C6  UNL     1      23.773   1.664  52.166  1.00  0.00     0.142 C 
HETATM   10  C7  UNL     1      23.015   0.607  52.943  1.00  0.00     0.101 C 
HETATM   11  F2  UNL     1      22.870  -0.135  54.137  1.00  0.00    -0.210 F 
HETATM   12  C8  UNL     1      22.003   0.108  52.214  1.00  0.00     0.039 C 
HETATM   13  C9  UNL     1      21.379   0.233  50.941  1.00  0.00     0.020 C 
HETATM   14  C10 UNL     1      21.544   0.961  49.875  1.00  0.00     0.090 C 
HETATM   15  N1  UNL     1      22.468   1.987  49.546  1.00  0.00    -0.349 N 
HETATM   16  C11 UNL     1      22.244   3.294  50.127  1.00  0.00     0.157 A 
HETATM   17  N2  UNL     1      20.961   3.628  49.939  1.00  0.00    -0.222 NA
HETATM   18  C12 UNL     1      20.426   4.782  50.359  1.00  0.00     0.235 A 
HETATM   19  N3  UNL     1      21.128   5.724  51.013  1.00  0.00    -0.252 NA
HETATM   20  C13 UNL     1      22.442   5.406  51.217  1.00  0.00     0.151 A 
HETATM   21  C14 UNL     1      22.989   4.225  50.787  1.00  0.00     0.095 A 
HETATM   22  N4  UNL     1      24.359   4.051  51.046  1.00  0.00    -0.357 N 
HETATM   23  C15 UNL     1      25.069   5.135  50.340  1.00  0.00     0.207 C 
HETATM   24  H7  UNL     1      23.300   2.353  49.067  1.00  0.00     0.167 HD
ENDROOT
TORSDOF 0
ENDMDL
MODEL 5
REMARK VINA RESULT:      -7.4      3.832      5.591
REMARK  0 active torsions:
REMARK  status: ('A' for Active; 'I' for Inactive)
ROOT
HETATM    1  O1  UNL     1      24.253   8.131  50.954  1.00  0.00    -0.291 OA
HETATM    2  C1  UNL     1      23.834   6.971  50.732  1.00  0.00     0.169 C 
HETATM    3  C2  UNL     1      22.446   6.533  50.808  1.00  0.00     0.092 C 
HETATM    4  C3  UNL     1      21.948   5.480  50.142  1.00  0.00     0.121 C 
HETATM    5  F1  UNL     1      20.634   5.201  50.317  1.00  0.00    -0.208 F 
HETATM    6  C4  UNL     1      23.073   4.864  49.326  1.00  0.00     0.167 C 
HETATM    7  C5  UNL     1      22.455   3.653  48.727  1.00  0.00     0.060 C 
HETATM    8 CL1  UNL     1      22.152   4.037  46.971  1.00  0.00    -0.121 Cl
HETATM    9  C6  UNL     1      22.361   2.726  49.754  1.00  0.00     0.142 C 
HETATM   10  C7  UNL     1      21.763   1.358  49.500  1.00  0.00     0.101 C 
HETATM   11  F2  UNL     1      21.174   0.454  48.587  1.00  0.00    -0.210 F 
HETATM   12  C8  UNL     1      21.766   0.616  50.620  1.00  0.00     0.039 C 
HETATM   13  C9  UNL     1      22.148   0.668  51.989  1.00  0.00     0.020 C 
HETATM   14  C10 UNL     1      22.717   1.531  52.780  1.00  0.00     0.090 C 
HETATM   15  N1  UNL     1      23.216   2.843  52.569  1.00  0.00    -0.349 N 
HETATM   16  C11 UNL     1      24.489   2.968  51.892  1.00  0.00     0.157 A 
HETATM   17  N2  UNL     1      25.362   2.133  52.469  1.00  0.00    -0.222 NA
HETATM   18  C12 UNL     1      26.637   2.005  52.076  1.00  0.00     0.235 A 
HETATM   19  N3  UNL     1      27.168   2.707  51.060  1.00  0.00    -0.252 NA
HETATM   20  C13 UNL     1      26.295   3.567  50.454  1.00  0.00     0.151 A 
HETATM   21  C14 UNL     1      24.991   3.698  50.855  1.00  0.00     0.095 A 
HETATM   22  N4  UNL     1      24.223   4.642  50.155  1.00  0.00    -0.357 N 
HETATM   23  C15 UNL     1      24.867   5.955  50.356  1.00  0.00     0.207 C 
HETATM   24  H7  UNL     1      23.166   3.866  52.645  1.00  0.00     0.167 HD
ENDROOT
TORSDOF 0
ENDMDL
MODEL 6
REMARK VINA RESULT:      -7.2      3.442      4.507
REMARK  0 active torsions:
REMARK  status: ('A' for Active; 'I' for Inactive)
ROOT
HETATM    1  O1  UNL     1      26.740   7.172  49.325  1.00  0.00    -0.291 OA
HETATM    2  C1  UNL     1      26.006   6.179  49.543  1.00  0.00     0.169 C 
HETATM    3  C2  UNL     1      26.337   4.790  49.253  1.00  0.00     0.092 C 
HETATM    4  C3  UNL     1      25.801   3.736  49.888  1.00  0.00     0.121 C 
HETATM    5  F1  UNL     1      26.212   2.505  49.502  1.00  0.00    -0.208 F 
HETATM    6  C4  UNL     1      24.823   4.261  50.927  1.00  0.00     0.167 C 
HETATM    7  C5  UNL     1      24.204   3.031  51.485  1.00  0.00     0.060 C 
HETATM    8 CL1  UNL     1      24.944   2.776  53.131  1.00  0.00    -0.121 Cl
HETATM    9  C6  UNL     1      23.317   2.580  50.520  1.00  0.00     0.142 C 
HETATM   10  C7  UNL     1      22.504   1.323  50.752  1.00  0.00     0.101 C 
HETATM   11  F2  UNL     1      22.176   0.244  51.604  1.00  0.00    -0.210 F 
HETATM   12  C8  UNL     1      21.709   1.062  49.701  1.00  0.00     0.039 C 
HETATM   13  C9  UNL     1      21.355   1.570  48.420  1.00  0.00     0.020 C 
HETATM   14  C10 UNL     1      21.677   2.596  47.687  1.00  0.00     0.090 C 
HETATM   15  N1  UNL     1      22.561   3.686  47.897  1.00  0.00    -0.349 N 
HETATM   16  C11 UNL     1      22.114   4.743  48.779  1.00  0.00     0.157 A 
HETATM   17  N2  UNL     1      20.875   5.101  48.420  1.00  0.00    -0.222 NA
HETATM   18  C12 UNL     1      20.171   6.060  49.038  1.00  0.00     0.235 A 
HETATM   19  N3  UNL     1      20.643   6.759  50.085  1.00  0.00    -0.252 NA
HETATM   20  C13 UNL     1      21.907   6.412  50.470  1.00  0.00     0.151 A 
HETATM   21  C14 UNL     1      22.627   5.432  49.838  1.00  0.00     0.095 A 
HETATM   22  N4  UNL     1      23.923   5.205  50.330  1.00  0.00    -0.357 N 
HETATM   23  C15 UNL     1      24.673   6.466  50.160  1.00  0.00     0.207 C 
HETATM   24  H7  UNL     1      23.441   4.195  47.748  1.00  0.00     0.167 HD
ENDROOT
TORSDOF 0
ENDMDL
MODEL 7
REMARK VINA RESULT:      -7.1      3.948      6.019
REMARK  0 active torsions:
REMARK  status: ('A' for Active; 'I' for Inactive)
ROOT
HETATM    1  O1  UNL     1      21.744  -0.093  51.935  1.00  0.00    -0.291 OA
HETATM    2  C1  UNL     1      22.263   1.021  51.688  1.00  0.00     0.169 C 
HETATM    3  C2  UNL     1      22.822   1.941  52.670  1.00  0.00     0.092 C 
HETATM    4  C3  UNL     1      23.762   2.859  52.396  1.00  0.00     0.121 C 
HETATM    5  F1  UNL     1      24.181   3.641  53.419  1.00  0.00    -0.208 F 
HETATM    6  C4  UNL     1      24.111   2.750  50.920  1.00  0.00     0.167 C 
HETATM    7  C5  UNL     1      25.059   3.872  50.695  1.00  0.00     0.060 C 
HETATM    8 CL1  UNL     1      26.720   3.133  50.564  1.00  0.00    -0.121 Cl
HETATM    9  C6  UNL     1      24.288   5.024  50.680  1.00  0.00     0.142 C 
HETATM   10  C7  UNL     1      24.936   6.378  50.477  1.00  0.00     0.101 C 
HETATM   11  F2  UNL     1      26.117   7.126  50.268  1.00  0.00    -0.210 F 
HETATM   12  C8  UNL     1      24.018   7.359  50.494  1.00  0.00     0.039 C 
HETATM   13  C9  UNL     1      22.618   7.572  50.635  1.00  0.00     0.020 C 
HETATM   14  C10 UNL     1      21.562   6.831  50.804  1.00  0.00     0.090 C 
HETATM   15  N1  UNL     1      21.381   5.428  50.916  1.00  0.00    -0.349 N 
HETATM   16  C11 UNL     1      21.451   4.650  49.697  1.00  0.00     0.157 A 
HETATM   17  N2  UNL     1      20.675   5.234  48.775  1.00  0.00    -0.222 NA
HETATM   18  C12 UNL     1      20.519   4.761  47.530  1.00  0.00     0.235 A 
HETATM   19  N3  UNL     1      21.129   3.650  47.083  1.00  0.00    -0.252 NA
HETATM   20  C13 UNL     1      21.927   3.035  48.007  1.00  0.00     0.151 A 
HETATM   21  C14 UNL     1      22.086   3.518  49.280  1.00  0.00     0.095 A 
HETATM   22  N4  UNL     1      22.917   2.764  50.125  1.00  0.00    -0.357 N 
HETATM   23  C15 UNL     1      22.304   1.427  50.248  1.00  0.00     0.207 C 
HETATM   24  H7  UNL     1      21.204   4.565  51.445  1.00  0.00     0.167 HD
ENDROOT
TORSDOF 0
ENDMDL
MODEL 8
REMARK VINA RESULT:      -7.0      4.524      6.695
REMARK  0 active torsions:
REMARK  status: ('A' for Active; 'I' for Inactive)
ROOT
HETATM    1  O1  UNL     1      19.647   3.602  52.137  1.00  0.00    -0.291 OA
HETATM    2  C1  UNL     1      20.777   3.826  51.644  1.00  0.00     0.169 C 
HETATM    3  C2  UNL     1      21.846   4.593  52.270  1.00  0.00     0.092 C 
HETATM    4  C3  UNL     1      23.150   4.441  51.989  1.00  0.00     0.121 C 
HETATM    5  F1  UNL     1      24.024   5.231  52.657  1.00  0.00    -0.208 F 
HETATM    6  C4  UNL     1      23.281   3.353  50.936  1.00  0.00     0.167 C 
HETATM    7  C5  UNL     1      24.731   3.344  50.613  1.00  0.00     0.060 C 
HETATM    8 CL1  UNL     1      25.435   1.867  51.415  1.00  0.00    -0.121 Cl
HETATM    9  C6  UNL     1      24.954   4.469  49.833  1.00  0.00     0.142 C 
HETATM   10  C7  UNL     1      26.345   4.784  49.321  1.00  0.00     0.101 C 
HETATM   11  F2  UNL     1      27.710   4.427  49.254  1.00  0.00    -0.210 F 
HETATM   12  C8  UNL     1      26.344   5.911  48.589  1.00  0.00     0.039 C 
HETATM   13  C9  UNL     1      25.472   6.928  48.112  1.00  0.00     0.020 C 
HETATM   14  C10 UNL     1      24.200   7.196  48.187  1.00  0.00     0.090 C 
HETATM   15  N1  UNL     1      23.115   6.529  48.812  1.00  0.00    -0.349 N 
HETATM   16  C11 UNL     1      22.594   5.348  48.155  1.00  0.00     0.157 A 
HETATM   17  N2  UNL     1      22.395   5.634  46.862  1.00  0.00    -0.222 NA
HETATM   18  C12 UNL     1      21.917   4.752  45.973  1.00  0.00     0.235 A 
HETATM   19  N3  UNL     1      21.589   3.488  46.294  1.00  0.00    -0.252 NA
HETATM   20  C13 UNL     1      21.783   3.173  47.610  1.00  0.00     0.151 A 
HETATM   21  C14 UNL     1      22.272   4.075  48.519  1.00  0.00     0.095 A 
HETATM   22  N4  UNL     1      22.392   3.613  49.840  1.00  0.00    -0.357 N 
HETATM   23  C15 UNL     1      21.036   3.243  50.290  1.00  0.00     0.207 C 
HETATM   24  H7  UNL     1      22.415   6.413  49.555  1.00  0.00     0.167 HD
ENDROOT
TORSDOF 0
ENDMDL
MODEL 9
REMARK VINA RESULT:      -6.7     10.617     12.448
REMARK  0 active torsions:
REMARK  status: ('A' for Active; 'I' for Inactive)
ROOT
HETATM    1  O1  UNL     1      28.199   4.860  48.493  1.00  0.00    -0.291 OA
HETATM    2  C1  UNL     1      28.990   5.783  48.190  1.00  0.00     0.169 C 
HETATM    3  C2  UNL     1      28.661   6.972  47.415  1.00  0.00     0.092 C 
HETATM    4  C3  UNL     1      29.329   8.134  47.491  1.00  0.00     0.121 C 
HETATM    5  F1  UNL     1      28.900   9.149  46.704  1.00  0.00    -0.208 F 
HETATM    6  C4  UNL     1      30.447   7.968  48.507  1.00  0.00     0.167 C 
HETATM    7  C5  UNL     1      31.189   9.252  48.433  1.00  0.00     0.060 C 
HETATM    8 CL1  UNL     1      30.741  10.202  49.922  1.00  0.00    -0.121 Cl
HETATM    9  C6  UNL     1      31.919   9.202  47.254  1.00  0.00     0.142 C 
HETATM   10  C7  UNL     1      32.800  10.365  46.847  1.00  0.00     0.101 C 
HETATM   11  F2  UNL     1      33.298  11.655  47.139  1.00  0.00    -0.210 F 
HETATM   12  C8  UNL     1      33.418  10.116  45.681  1.00  0.00     0.039 C 
HETATM   13  C9  UNL     1      33.539   9.116  44.676  1.00  0.00     0.020 C 
HETATM   14  C10 UNL     1      33.068   7.920  44.471  1.00  0.00     0.090 C 
HETATM   15  N1  UNL     1      32.195   7.090  45.221  1.00  0.00    -0.349 N 
HETATM   16  C11 UNL     1      32.747   6.425  46.383  1.00  0.00     0.157 A 
HETATM   17  N2  UNL     1      33.898   5.838  46.030  1.00  0.00    -0.222 NA
HETATM   18  C12 UNL     1      34.663   5.136  46.878  1.00  0.00     0.235 A 
HETATM   19  N3  UNL     1      34.348   4.951  48.172  1.00  0.00    -0.252 NA
HETATM   20  C13 UNL     1      33.176   5.541  48.556  1.00  0.00     0.151 A 
HETATM   21  C14 UNL     1      32.394   6.259  47.689  1.00  0.00     0.095 A 
HETATM   22  N4  UNL     1      31.205   6.784  48.222  1.00  0.00    -0.357 N 
HETATM   23  C15 UNL     1      30.397   5.636  48.679  1.00  0.00     0.207 C 
HETATM   24  H7  UNL     1      31.287   6.650  45.413  1.00  0.00     0.167 HD
ENDROOT
TORSDOF 0
ENDMDL
