MODEL 1
REMARK VINA RESULT:      -8.6      0.000      0.000
REMARK  1 active torsions:
REMARK  status: ('A' for Active; 'I' for Inactive)
REMARK    1  A    between atoms: N1_9  and  C7_10 
ROOT
HETATM    1  C7  UNL     1      24.445   2.451  51.698  1.00  0.00     0.118 C 
HETATM    2  N2  UNL     1      24.966   1.696  52.599  1.00  0.00    -0.230 N 
HETATM    3  C8  UNL     1      25.913   2.090  53.545  1.00  0.00     0.234 A 
HETATM    4  N3  UNL     1      25.360   0.968  53.324  1.00  0.00    -0.252 N 
HETATM    5  C9  UNL     1      25.588  -0.202  54.019  1.00  0.00     0.120 C 
HETATM    6  C10 UNL     1      24.304  -0.471  53.846  1.00  0.00     0.050 C 
HETATM    7  C11 UNL     1      23.080   0.049  53.260  1.00  0.00     0.052 C 
HETATM    8  C12 UNL     1      22.704   0.778  52.190  1.00  0.00     0.045 C 
HETATM    9  C13 UNL     1      23.578   1.358  51.122  1.00  0.00     0.107 C 
HETATM   10  C14 UNL     1      22.596   1.979  50.117  1.00  0.00     0.020 C 
HETATM   11  C15 UNL     1      21.623   0.874  49.751  1.00  0.00     0.021 C 
HETATM   12  C16 UNL     1      20.552   0.817  50.830  1.00  0.00     0.123 C 
HETATM   13  N4  UNL     1      21.297   0.994  52.096  1.00  0.00    -0.380 N 
HETATM   14  C17 UNL     1      20.416   1.396  53.203  1.00  0.00     0.142 C 
HETATM   15  C18 UNL     1      20.700   0.446  54.361  1.00  0.00     0.139 C 
HETATM   16  N5  UNL     1      21.927  -0.310  54.070  1.00  0.00    -0.387 N 
HETATM   17  H21 UNL     1      21.887  -1.254  54.568  1.00  0.00     0.159 HD
ENDROOT
BRANCH   1  18
HETATM   18  N1  UNL     1      24.546   3.805  51.288  1.00  0.00    -0.333 N 
HETATM   19  C2  UNL     1      25.448   4.248  50.277  1.00  0.00     0.034 A 
HETATM   20  C1  UNL     1      26.336   3.265  49.604  1.00  0.00     0.070 C 
HETATM   21  C3  UNL     1      25.420   5.533  50.012  1.00  0.00     0.094 A 
HETATM   22 CL1  UNL     1      26.483   6.211  48.784  1.00  0.00    -0.079 Cl
HETATM   23  C4  UNL     1      24.528   6.464  50.700  1.00  0.00     0.137 A 
HETATM   24  F1  UNL     1      24.500   7.784  50.428  1.00  0.00    -0.204 F 
HETATM   25  C5  UNL     1      23.682   6.043  51.649  1.00  0.00     0.037 A 
HETATM   26  C6  UNL     1      23.612   4.632  52.042  1.00  0.00     0.160 A 
ENDBRANCH   1  18
TORSDOF 1
ENDMDL
MODEL 2
REMARK VINA RESULT:      -8.2      3.152      5.051
REMARK  1 active torsions:
REMARK  status: ('A' for Active; 'I' for Inactive)
REMARK    1  A    between atoms: N1_9  and  C7_10 
ROOT
HETATM    1  C7  UNL     1      25.144   1.029  52.317  1.00  0.00     0.118 C 
HETATM    2  N2  UNL     1      23.975   0.573  52.598  1.00  0.00    -0.230 N 
HETATM    3  C8  UNL     1      23.650  -0.203  53.712  1.00  0.00     0.234 A 
HETATM    4  N3  UNL     1      22.943   0.221  52.745  1.00  0.00    -0.252 N 
HETATM    5  C9  UNL     1      21.595  -0.008  52.562  1.00  0.00     0.120 C 
HETATM    6  C10 UNL     1      21.529   1.215  52.061  1.00  0.00     0.050 C 
HETATM    7  C11 UNL     1      22.331   2.388  51.758  1.00  0.00     0.052 C 
HETATM    8  C12 UNL     1      23.585   2.676  51.354  1.00  0.00     0.045 C 
HETATM    9  C13 UNL     1      24.694   1.719  51.052  1.00  0.00     0.107 C 
HETATM   10  C14 UNL     1      25.837   2.605  50.535  1.00  0.00     0.020 C 
HETATM   11  C15 UNL     1      25.246   3.425  49.404  1.00  0.00     0.021 C 
HETATM   12  C16 UNL     1      24.535   4.623  50.017  1.00  0.00     0.123 C 
HETATM   13  N4  UNL     1      23.842   4.072  51.201  1.00  0.00    -0.380 N 
HETATM   14  C17 UNL     1      23.461   5.123  52.157  1.00  0.00     0.142 C 
HETATM   15  C18 UNL     1      21.984   4.919  52.472  1.00  0.00     0.139 C 
HETATM   16  N5  UNL     1      21.562   3.606  51.962  1.00  0.00    -0.387 N 
HETATM   17  H21 UNL     1      20.520   3.634  51.732  1.00  0.00     0.159 HD
ENDROOT
BRANCH   1  18
HETATM   18  N1  UNL     1      26.443   0.986  52.884  1.00  0.00    -0.333 N 
HETATM   19  C2  UNL     1      27.262  -0.181  52.870  1.00  0.00     0.034 A 
HETATM   20  C1  UNL     1      26.753  -1.425  52.238  1.00  0.00     0.070 C 
HETATM   21  C3  UNL     1      28.439  -0.057  53.436  1.00  0.00     0.094 A 
HETATM   22 CL1  UNL     1      29.549  -1.422  53.487  1.00  0.00    -0.079 Cl
HETATM   23  C4  UNL     1      28.898   1.189  54.046  1.00  0.00     0.137 A 
HETATM   24  F1  UNL     1      30.108   1.316  54.627  1.00  0.00    -0.204 F 
HETATM   25  C5  UNL     1      28.125   2.284  54.056  1.00  0.00     0.037 A 
HETATM   26  C6  UNL     1      26.787   2.281  53.458  1.00  0.00     0.160 A 
ENDBRANCH   1  18
TORSDOF 1
ENDMDL
MODEL 3
REMARK VINA RESULT:      -8.1      3.287      5.839
REMARK  1 active torsions:
REMARK  status: ('A' for Active; 'I' for Inactive)
REMARK    1  A    between atoms: N1_9  and  C7_10 
ROOT
HETATM    1  C7  UNL     1      22.898   1.404  52.677  1.00  0.00     0.118 C 
HETATM    2  N2  UNL     1      24.004   0.878  53.069  1.00  0.00    -0.230 N 
HETATM    3  C8  UNL     1      24.278  -0.489  53.132  1.00  0.00     0.234 A 
HETATM    4  N3  UNL     1      24.981   0.526  53.432  1.00  0.00    -0.252 N 
HETATM    5  C9  UNL     1      26.269   0.506  53.925  1.00  0.00     0.120 C 
HETATM    6  C10 UNL     1      26.481   1.602  53.216  1.00  0.00     0.050 C 
HETATM    7  C11 UNL     1      25.840   2.535  52.306  1.00  0.00     0.052 C 
HETATM    8  C12 UNL     1      24.619   3.072  52.105  1.00  0.00     0.045 C 
HETATM    9  C13 UNL     1      23.369   2.823  52.887  1.00  0.00     0.107 C 
HETATM   10  C14 UNL     1      22.336   3.784  52.278  1.00  0.00     0.020 C 
HETATM   11  C15 UNL     1      22.972   5.160  52.329  1.00  0.00     0.021 C 
HETATM   12  C16 UNL     1      23.882   5.300  51.117  1.00  0.00     0.123 C 
HETATM   13  N4  UNL     1      24.556   3.987  51.012  1.00  0.00    -0.380 N 
HETATM   14  C17 UNL     1      25.140   3.771  49.679  1.00  0.00     0.142 C 
HETATM   15  C18 UNL     1      26.588   3.348  49.894  1.00  0.00     0.139 C 
HETATM   16  N5  UNL     1      26.786   3.022  51.314  1.00  0.00    -0.387 N 
HETATM   17  H21 UNL     1      27.807   3.195  51.578  1.00  0.00     0.159 HD
ENDROOT
BRANCH   1  18
HETATM   18  N1  UNL     1      21.641   0.953  52.199  1.00  0.00    -0.333 N 
HETATM   19  C2  UNL     1      20.662   0.344  53.037  1.00  0.00     0.034 A 
HETATM   20  C1  UNL     1      20.945   0.162  54.484  1.00  0.00     0.070 C 
HETATM   21  C3  UNL     1      19.550  -0.018  52.441  1.00  0.00     0.094 A 
HETATM   22 CL1  UNL     1      18.257  -0.781  53.361  1.00  0.00    -0.079 Cl
HETATM   23  C4  UNL     1      19.314   0.182  51.013  1.00  0.00     0.137 A 
HETATM   24  F1  UNL     1      18.171  -0.190  50.402  1.00  0.00    -0.204 F 
HETATM   25  C5  UNL     1      20.238   0.755  50.230  1.00  0.00     0.037 A 
HETATM   26  C6  UNL     1      21.525   1.206  50.769  1.00  0.00     0.160 A 
ENDBRANCH   1  18
TORSDOF 1
ENDMDL
MODEL 4
REMARK VINA RESULT:      -8.0      1.102      1.768
REMARK  1 active torsions:
REMARK  status: ('A' for Active; 'I' for Inactive)
REMARK    1  A    between atoms: N1_9  and  C7_10 
ROOT
HETATM    1  C7  UNL     1      24.487   2.576  51.257  1.00  0.00     0.118 C 
HETATM    2  N2  UNL     1      24.857   1.821  52.230  1.00  0.00    -0.230 N 
HETATM    3  C8  UNL     1      25.785   2.159  53.216  1.00  0.00     0.234 A 
HETATM    4  N3  UNL     1      25.115   1.098  53.017  1.00  0.00    -0.252 N 
HETATM    5  C9  UNL     1      25.158  -0.046  53.787  1.00  0.00     0.120 C 
HETATM    6  C10 UNL     1      23.864  -0.174  53.541  1.00  0.00     0.050 C 
HETATM    7  C11 UNL     1      22.750   0.449  52.847  1.00  0.00     0.052 C 
HETATM    8  C12 UNL     1      22.531   1.151  51.716  1.00  0.00     0.045 C 
HETATM    9  C13 UNL     1      23.532   1.559  50.682  1.00  0.00     0.107 C 
HETATM   10  C14 UNL     1      22.695   2.229  49.581  1.00  0.00     0.020 C 
HETATM   11  C15 UNL     1      21.621   1.225  49.208  1.00  0.00     0.021 C 
HETATM   12  C16 UNL     1      20.487   1.359  50.213  1.00  0.00     0.123 C 
HETATM   13  N4  UNL     1      21.168   1.523  51.516  1.00  0.00    -0.380 N 
HETATM   14  C17 UNL     1      20.276   2.092  52.538  1.00  0.00     0.142 C 
HETATM   15  C18 UNL     1      20.372   1.187  53.760  1.00  0.00     0.139 C 
HETATM   16  N5  UNL     1      21.514   0.277  53.594  1.00  0.00    -0.387 N 
HETATM   17  H21 UNL     1      21.330  -0.625  54.137  1.00  0.00     0.159 HD
ENDROOT
BRANCH   1  18
HETATM   18  N1  UNL     1      24.776   3.882  50.784  1.00  0.00    -0.333 N 
HETATM   19  C2  UNL     1      24.053   5.039  51.196  1.00  0.00     0.034 A 
HETATM   20  C1  UNL     1      22.938   4.898  52.169  1.00  0.00     0.070 C 
HETATM   21  C3  UNL     1      24.444   6.173  50.666  1.00  0.00     0.094 A 
HETATM   22 CL1  UNL     1      23.635   7.678  51.091  1.00  0.00    -0.079 Cl
HETATM   23  C4  UNL     1      25.547   6.264  49.712  1.00  0.00     0.137 A 
HETATM   24  F1  UNL     1      25.948   7.430  49.168  1.00  0.00    -0.204 F 
HETATM   25  C5  UNL     1      26.225   5.174  49.328  1.00  0.00     0.037 A 
HETATM   26  C6  UNL     1      25.890   3.843  49.845  1.00  0.00     0.160 A 
ENDBRANCH   1  18
TORSDOF 1
ENDMDL
MODEL 5
REMARK VINA RESULT:      -7.4      3.025      4.910
REMARK  1 active torsions:
REMARK  status: ('A' for Active; 'I' for Inactive)
REMARK    1  A    between atoms: N1_9  and  C7_10 
ROOT
HETATM    1  C7  UNL     1      21.696   0.585  52.211  1.00  0.00     0.118 C 
HETATM    2  N2  UNL     1      20.623   0.096  52.723  1.00  0.00    -0.230 N 
HETATM    3  C8  UNL     1      20.395  -0.120  54.083  1.00  0.00     0.234 A 
HETATM    4  N3  UNL     1      19.672  -0.339  53.062  1.00  0.00    -0.252 N 
HETATM    5  C9  UNL     1      18.403  -0.883  53.066  1.00  0.00     0.120 C 
HETATM    6  C10 UNL     1      18.131  -0.072  52.056  1.00  0.00     0.050 C 
HETATM    7  C11 UNL     1      18.709   0.956  51.208  1.00  0.00     0.052 C 
HETATM    8  C12 UNL     1      19.904   1.260  50.662  1.00  0.00     0.045 C 
HETATM    9  C13 UNL     1      21.189   0.506  50.792  1.00  0.00     0.107 C 
HETATM   10  C14 UNL     1      22.168   1.253  49.872  1.00  0.00     0.020 C 
HETATM   11  C15 UNL     1      21.490   1.322  48.516  1.00  0.00     0.021 C 
HETATM   12  C16 UNL     1      20.533   2.504  48.532  1.00  0.00     0.123 C 
HETATM   13  N4  UNL     1      19.898   2.445  49.866  1.00  0.00    -0.380 N 
HETATM   14  C17 UNL     1      19.273   3.724  50.238  1.00  0.00     0.142 C 
HETATM   15  C18 UNL     1      17.848   3.408  50.676  1.00  0.00     0.139 C 
HETATM   16  N5  UNL     1      17.712   1.955  50.855  1.00  0.00    -0.387 N 
HETATM   17  H21 UNL     1      16.697   1.671  50.684  1.00  0.00     0.159 HD
ENDROOT
BRANCH   1  18
HETATM   18  N1  UNL     1      22.949   1.062  52.675  1.00  0.00    -0.333 N 
HETATM   19  C2  UNL     1      23.979   0.205  53.161  1.00  0.00     0.034 A 
HETATM   20  C1  UNL     1      23.755  -1.264  53.194  1.00  0.00     0.070 C 
HETATM   21  C3  UNL     1      25.079   0.803  53.554  1.00  0.00     0.094 A 
HETATM   22 CL1  UNL     1      26.429  -0.140  54.176  1.00  0.00    -0.079 Cl
HETATM   23  C4  UNL     1      25.255   2.252  53.503  1.00  0.00     0.137 A 
HETATM   24  F1  UNL     1      26.386   2.865  53.906  1.00  0.00    -0.204 F 
HETATM   25  C5  UNL     1      24.284   3.054  53.045  1.00  0.00     0.037 A 
HETATM   26  C6  UNL     1      23.004   2.515  52.575  1.00  0.00     0.160 A 
ENDBRANCH   1  18
TORSDOF 1
ENDMDL
MODEL 6
REMARK VINA RESULT:      -7.3      3.351      6.477
REMARK  1 active torsions:
REMARK  status: ('A' for Active; 'I' for Inactive)
REMARK    1  A    between atoms: N1_9  and  C7_10 
ROOT
HETATM    1  C7  UNL     1      24.490   4.500  50.499  1.00  0.00     0.118 C 
HETATM    2  N2  UNL     1      25.538   4.826  49.830  1.00  0.00    -0.230 N 
HETATM    3  C8  UNL     1      26.531   3.948  49.393  1.00  0.00     0.234 A 
HETATM    4  N3  UNL     1      26.405   5.206  49.270  1.00  0.00    -0.252 N 
HETATM    5  C9  UNL     1      27.288   6.053  48.632  1.00  0.00     0.120 C 
HETATM    6  C10 UNL     1      26.230   6.744  48.240  1.00  0.00     0.050 C 
HETATM    7  C11 UNL     1      24.779   6.783  48.315  1.00  0.00     0.052 C 
HETATM    8  C12 UNL     1      23.805   6.475  49.196  1.00  0.00     0.045 C 
HETATM    9  C13 UNL     1      23.960   5.911  50.572  1.00  0.00     0.107 C 
HETATM   10  C14 UNL     1      22.531   5.877  51.137  1.00  0.00     0.020 C 
HETATM   11  C15 UNL     1      21.989   7.285  50.975  1.00  0.00     0.021 C 
HETATM   12  C16 UNL     1      21.471   7.427  49.552  1.00  0.00     0.123 C 
HETATM   13  N4  UNL     1      22.485   6.740  48.722  1.00  0.00    -0.380 N 
HETATM   14  C17 UNL     1      21.967   6.393  47.390  1.00  0.00     0.142 C 
HETATM   15  C18 UNL     1      22.976   6.914  46.374  1.00  0.00     0.139 C 
HETATM   16  N5  UNL     1      24.211   7.292  47.076  1.00  0.00    -0.387 N 
HETATM   17  H21 UNL     1      24.710   8.060  46.526  1.00  0.00     0.159 HD
ENDROOT
BRANCH   1  18
HETATM   18  N1  UNL     1      23.919   3.314  51.030  1.00  0.00    -0.333 N 
HETATM   19  C2  UNL     1      22.997   2.502  50.308  1.00  0.00     0.034 A 
HETATM   20  C1  UNL     1      22.597   2.893  48.931  1.00  0.00     0.070 C 
HETATM   21  C3  UNL     1      22.560   1.438  50.940  1.00  0.00     0.094 A 
HETATM   22 CL1  UNL     1      21.417   0.349  50.162  1.00  0.00    -0.079 Cl
HETATM   23  C4  UNL     1      22.982   1.092  52.295  1.00  0.00     0.137 A 
HETATM   24  F1  UNL     1      22.534  -0.001  52.943  1.00  0.00    -0.204 F 
HETATM   25  C5  UNL     1      23.850   1.858  52.969  1.00  0.00     0.037 A 
HETATM   26  C6  UNL     1      24.414   3.077  52.380  1.00  0.00     0.160 A 
ENDBRANCH   1  18
TORSDOF 1
ENDMDL
MODEL 7
REMARK VINA RESULT:      -7.2      1.793      2.446
REMARK  1 active torsions:
REMARK  status: ('A' for Active; 'I' for Inactive)
REMARK    1  A    between atoms: N1_9  and  C7_10 
ROOT
HETATM    1  C7  UNL     1      23.543   4.082  50.820  1.00  0.00     0.118 C 
HETATM    2  N2  UNL     1      23.938   3.403  51.837  1.00  0.00    -0.230 N 
HETATM    3  C8  UNL     1      24.200   3.918  53.108  1.00  0.00     0.234 A 
HETATM    4  N3  UNL     1      24.284   2.739  52.643  1.00  0.00    -0.252 N 
HETATM    5  C9  UNL     1      24.685   1.618  53.339  1.00  0.00     0.120 C 
HETATM    6  C10 UNL     1      23.798   0.945  52.625  1.00  0.00     0.050 C 
HETATM    7  C11 UNL     1      22.796   1.094  51.583  1.00  0.00     0.052 C 
HETATM    8  C12 UNL     1      22.596   1.834  50.474  1.00  0.00     0.045 C 
HETATM    9  C13 UNL     1      23.491   2.886  49.900  1.00  0.00     0.107 C 
HETATM   10  C14 UNL     1      22.809   3.297  48.586  1.00  0.00     0.020 C 
HETATM   11  C15 UNL     1      22.595   2.011  47.811  1.00  0.00     0.021 C 
HETATM   12  C16 UNL     1      21.318   1.363  48.323  1.00  0.00     0.123 C 
HETATM   13  N4  UNL     1      21.378   1.543  49.790  1.00  0.00    -0.380 N 
HETATM   14  C17 UNL     1      20.059   1.376  50.421  1.00  0.00     0.142 C 
HETATM   15  C18 UNL     1      20.240   0.385  51.565  1.00  0.00     0.139 C 
HETATM   16  N5  UNL     1      21.677   0.193  51.811  1.00  0.00    -0.387 N 
HETATM   17  H21 UNL     1      21.839  -0.781  52.219  1.00  0.00     0.159 HD
ENDROOT
BRANCH   1  18
HETATM   18  N1  UNL     1      23.231   5.434  50.526  1.00  0.00    -0.333 N 
HETATM   19  C2  UNL     1      24.180   6.357  49.998  1.00  0.00     0.034 A 
HETATM   20  C1  UNL     1      25.570   5.907  49.732  1.00  0.00     0.070 C 
HETATM   21  C3  UNL     1      23.733   7.572  49.781  1.00  0.00     0.094 A 
HETATM   22 CL1  UNL     1      24.802   8.809  49.130  1.00  0.00    -0.079 Cl
HETATM   23  C4  UNL     1      22.354   7.970  50.057  1.00  0.00     0.137 A 
HETATM   24  F1  UNL     1      21.896   9.218  49.834  1.00  0.00    -0.204 F 
HETATM   25  C5  UNL     1      21.465   7.099  50.553  1.00  0.00     0.037 A 
HETATM   26  C6  UNL     1      21.834   5.709  50.842  1.00  0.00     0.160 A 
ENDBRANCH   1  18
TORSDOF 1
ENDMDL
MODEL 8
REMARK VINA RESULT:      -7.2      2.853      5.031
REMARK  1 active torsions:
REMARK  status: ('A' for Active; 'I' for Inactive)
REMARK    1  A    between atoms: N1_9  and  C7_10 
ROOT
HETATM    1  C7  UNL     1      21.465   1.031  51.483  1.00  0.00     0.118 C 
HETATM    2  N2  UNL     1      20.353   0.486  51.829  1.00  0.00    -0.230 N 
HETATM    3  C8  UNL     1      19.925   0.272  53.140  1.00  0.00     0.234 A 
HETATM    4  N3  UNL     1      19.385   0.000  52.023  1.00  0.00    -0.252 N 
HETATM    5  C9  UNL     1      18.164  -0.615  51.838  1.00  0.00     0.120 C 
HETATM    6  C10 UNL     1      18.010   0.168  50.783  1.00  0.00     0.050 C 
HETATM    7  C11 UNL     1      18.657   1.218  50.015  1.00  0.00     0.052 C 
HETATM    8  C12 UNL     1      19.905   1.584  49.657  1.00  0.00     0.045 C 
HETATM    9  C13 UNL     1      21.193   0.907  50.003  1.00  0.00     0.107 C 
HETATM   10  C14 UNL     1      22.262   1.698  49.233  1.00  0.00     0.020 C 
HETATM   11  C15 UNL     1      21.805   1.713  47.787  1.00  0.00     0.021 C 
HETATM   12  C16 UNL     1      20.793   2.839  47.628  1.00  0.00     0.123 C 
HETATM   13  N4  UNL     1      19.959   2.757  48.847  1.00  0.00    -0.380 N 
HETATM   14  C17 UNL     1      19.214   4.002  49.091  1.00  0.00     0.142 C 
HETATM   15  C18 UNL     1      17.758   3.610  49.306  1.00  0.00     0.139 C 
HETATM   16  N5  UNL     1      17.675   2.154  49.490  1.00  0.00    -0.387 N 
HETATM   17  H21 UNL     1      16.717   1.810  49.167  1.00  0.00     0.159 HD
ENDROOT
BRANCH   1  18
HETATM   18  N1  UNL     1      22.600   1.584  52.128  1.00  0.00    -0.333 N 
HETATM   19  C2  UNL     1      22.711   2.965  52.462  1.00  0.00     0.034 A 
HETATM   20  C1  UNL     1      21.598   3.892  52.130  1.00  0.00     0.070 C 
HETATM   21  C3  UNL     1      23.826   3.319  53.057  1.00  0.00     0.094 A 
HETATM   22 CL1  UNL     1      24.091   4.995  53.525  1.00  0.00    -0.079 Cl
HETATM   23  C4  UNL     1      24.895   2.371  53.365  1.00  0.00     0.137 A 
HETATM   24  F1  UNL     1      26.040   2.735  53.977  1.00  0.00    -0.204 F 
HETATM   25  C5  UNL     1      24.786   1.074  53.050  1.00  0.00     0.037 A 
HETATM   26  C6  UNL     1      23.591   0.546  52.382  1.00  0.00     0.160 A 
ENDBRANCH   1  18
TORSDOF 1
ENDMDL
MODEL 9
REMARK VINA RESULT:      -7.0      2.951      4.735
REMARK  1 active torsions:
REMARK  status: ('A' for Active; 'I' for Inactive)
REMARK    1  A    between atoms: N1_9  and  C7_10 
ROOT
HETATM    1  C7  UNL     1      23.698   5.248  49.066  1.00  0.00     0.118 C 
HETATM    2  N2  UNL     1      24.982   5.269  49.000  1.00  0.00    -0.230 N 
HETATM    3  C8  UNL     1      25.780   6.414  49.027  1.00  0.00     0.234 A 
HETATM    4  N3  UNL     1      26.076   5.183  48.926  1.00  0.00    -0.252 N 
HETATM    5  C9  UNL     1      27.348   4.659  48.811  1.00  0.00     0.120 C 
HETATM    6  C10 UNL     1      26.918   3.644  49.541  1.00  0.00     0.050 C 
HETATM    7  C11 UNL     1      25.749   3.124  50.230  1.00  0.00     0.052 C 
HETATM    8  C12 UNL     1      24.409   3.117  50.079  1.00  0.00     0.045 C 
HETATM    9  C13 UNL     1      23.607   3.743  48.983  1.00  0.00     0.107 C 
HETATM   10  C14 UNL     1      22.160   3.316  49.273  1.00  0.00     0.020 C 
HETATM   11  C15 UNL     1      22.191   1.804  49.390  1.00  0.00     0.021 C 
HETATM   12  C16 UNL     1      22.625   1.453  50.806  1.00  0.00     0.123 C 
HETATM   13  N4  UNL     1      23.710   2.412  51.105  1.00  0.00    -0.380 N 
HETATM   14  C17 UNL     1      23.966   2.525  52.549  1.00  0.00     0.142 C 
HETATM   15  C18 UNL     1      25.465   2.339  52.748  1.00  0.00     0.139 C 
HETATM   16  N5  UNL     1      26.136   2.417  51.442  1.00  0.00    -0.387 N 
HETATM   17  H21 UNL     1      27.035   1.843  51.470  1.00  0.00     0.159 HD
ENDROOT
BRANCH   1  18
HETATM   18  N1  UNL     1      22.645   6.190  49.179  1.00  0.00    -0.333 N 
HETATM   19  C2  UNL     1      21.922   6.691  48.058  1.00  0.00     0.034 A 
HETATM   20  C1  UNL     1      22.268   6.218  46.692  1.00  0.00     0.070 C 
HETATM   21  C3  UNL     1      20.976   7.558  48.331  1.00  0.00     0.094 A 
HETATM   22 CL1  UNL     1      20.007   8.254  47.036  1.00  0.00    -0.079 Cl
HETATM   23  C4  UNL     1      20.669   7.994  49.691  1.00  0.00     0.137 A 
HETATM   24  F1  UNL     1      19.697   8.885  49.971  1.00  0.00    -0.204 F 
HETATM   25  C5  UNL     1      21.351   7.520  50.743  1.00  0.00     0.037 A 
HETATM   26  C6  UNL     1      22.434   6.546  50.577  1.00  0.00     0.160 A 
ENDBRANCH   1  18
TORSDOF 1
ENDMDL
