MODEL 1
REMARK VINA RESULT:      -7.8      0.000      0.000
REMARK  6 active torsions:
REMARK  status: ('A' for Active; 'I' for Inactive)
REMARK    1  A    between atoms: N1_1  and  C1_2 
REMARK    2  A    between atoms: C1_2  and  C2_3 
REMARK    3  A    between atoms: C2_3  and  C3_4 
REMARK    4  A    between atoms: C9_12  and  N3_13 
REMARK    5  A    between atoms: N3_13  and  C10_14 
REMARK    6  A    between atoms: C10_14  and  C11_15 
ROOT
HETATM    1  C1  UNL     1      25.557   4.320  49.881  1.00  0.00     0.223 C 
HETATM    2  C4  UNL     1      24.737   3.452  48.947  1.00  0.00     0.021 C 
HETATM    3  C5  UNL     1      23.515   2.871  48.969  1.00  0.00     0.000 C 
HETATM    4  C6  UNL     1      22.376   2.750  49.826  1.00  0.00     0.017 C 
HETATM    5  C7  UNL     1      21.852   3.068  50.974  1.00  0.00     0.088 C 
HETATM    6  N2  UNL     1      22.260   3.827  52.108  1.00  0.00    -0.366 N 
HETATM    7  C8  UNL     1      23.513   4.430  52.473  1.00  0.00     0.057 C 
HETATM    8  C9  UNL     1      24.336   3.653  51.845  1.00  0.00     0.082 C 
HETATM    9  C17 UNL     1      24.585   4.771  50.938  1.00  0.00     0.124 C 
HETATM   10  N4  UNL     1      23.856   5.781  51.339  1.00  0.00    -0.178 NA
HETATM   11  N5  UNL     1      24.303   6.612  52.412  1.00  0.00    -0.308 N 
HETATM   12  C18 UNL     1      23.701   5.610  53.312  1.00  0.00     0.201 C 
HETATM   13  H11 UNL     1      21.643   4.071  52.911  1.00  0.00     0.165 HD
HETATM   14  H18 UNL     1      24.718   7.364  52.979  1.00  0.00     0.182 HD
ENDROOT
BRANCH   8  15
HETATM   15  N3  UNL     1      24.544   2.326  52.293  1.00  0.00    -0.382 N 
HETATM   16  H12 UNL     1      24.253   1.497  51.728  1.00  0.00     0.160 HD
BRANCH  15  17
HETATM   17  C10 UNL     1      25.197   2.415  53.600  1.00  0.00     0.160 C 
BRANCH  17  18
HETATM   18  C11 UNL     1      26.427   1.607  53.604  1.00  0.00    -0.019 A 
HETATM   19  C12 UNL     1      27.692   2.148  53.507  1.00  0.00     0.012 A 
HETATM   20  C13 UNL     1      28.862   1.394  53.511  1.00  0.00     0.024 A 
HETATM   21  C14 UNL     1      28.727   0.008  53.623  1.00  0.00     0.035 A 
HETATM   22 CL1  UNL     1      30.235  -0.884  53.624  1.00  0.00    -0.084 Cl
HETATM   23  C15 UNL     1      27.487  -0.594  53.724  1.00  0.00     0.048 A 
HETATM   24  C16 UNL     1      26.368   0.234  53.711  1.00  0.00     0.043 A 
HETATM   25 CL2  UNL     1      24.844  -0.625  53.842  1.00  0.00    -0.084 Cl
ENDBRANCH  17  18
ENDBRANCH  15  17
ENDBRANCH   8  15
BRANCH   1  26
HETATM   26  N1  UNL     1      26.569   3.485  50.440  1.00  0.00     0.098 N 
HETATM   27  H1  UNL     1      26.629   3.688  51.468  1.00  0.00     0.314 HD
HETATM   28  H2  UNL     1      27.508   3.792  50.044  1.00  0.00     0.314 HD
ENDBRANCH   1  26
BRANCH   1  29
HETATM   29  C2  UNL     1      26.112   5.482  49.090  1.00  0.00     0.084 C 
BRANCH  29  30
HETATM   30  C3  UNL     1      27.498   5.228  48.613  1.00  0.00     0.225 C 
HETATM   31  F1  UNL     1      27.908   6.319  47.848  1.00  0.00    -0.255 F 
ENDBRANCH  29  30
ENDBRANCH   1  29
TORSDOF 6
ENDMDL
MODEL 2
REMARK VINA RESULT:      -7.8      1.152      1.533
REMARK  6 active torsions:
REMARK  status: ('A' for Active; 'I' for Inactive)
REMARK    1  A    between atoms: N1_1  and  C1_2 
REMARK    2  A    between atoms: C1_2  and  C2_3 
REMARK    3  A    between atoms: C2_3  and  C3_4 
REMARK    4  A    between atoms: C9_12  and  N3_13 
REMARK    5  A    between atoms: N3_13  and  C10_14 
REMARK    6  A    between atoms: C10_14  and  C11_15 
ROOT
HETATM    1  C1  UNL     1      25.473   4.367  49.810  1.00  0.00     0.223 C 
HETATM    2  C4  UNL     1      24.643   3.533  48.853  1.00  0.00     0.021 C 
HETATM    3  C5  UNL     1      23.444   2.907  48.885  1.00  0.00     0.000 C 
HETATM    4  C6  UNL     1      22.348   2.686  49.778  1.00  0.00     0.017 C 
HETATM    5  C7  UNL     1      21.864   2.906  50.965  1.00  0.00     0.088 C 
HETATM    6  N2  UNL     1      22.294   3.602  52.131  1.00  0.00    -0.366 N 
HETATM    7  C8  UNL     1      23.540   4.225  52.485  1.00  0.00     0.057 C 
HETATM    8  C9  UNL     1      24.362   3.524  51.772  1.00  0.00     0.082 C 
HETATM    9  C17 UNL     1      24.532   4.709  50.934  1.00  0.00     0.124 C 
HETATM   10  N4  UNL     1      23.787   5.662  51.434  1.00  0.00    -0.178 NA
HETATM   11  N5  UNL     1      24.251   6.435  52.542  1.00  0.00    -0.308 N 
HETATM   12  C18 UNL     1      23.723   5.353  53.395  1.00  0.00     0.201 C 
HETATM   13  H11 UNL     1      21.704   3.768  52.973  1.00  0.00     0.165 HD
HETATM   14  H18 UNL     1      24.664   7.162  53.142  1.00  0.00     0.182 HD
ENDROOT
BRANCH   8  15
HETATM   15  N3  UNL     1      24.634   2.179  52.119  1.00  0.00    -0.382 N 
HETATM   16  H12 UNL     1      24.191   1.376  51.620  1.00  0.00     0.160 HD
BRANCH  15  17
HETATM   17  C10 UNL     1      25.588   2.210  53.228  1.00  0.00     0.160 C 
BRANCH  17  18
HETATM   18  C11 UNL     1      26.430   1.002  53.203  1.00  0.00    -0.019 A 
HETATM   19  C12 UNL     1      25.933  -0.264  52.978  1.00  0.00     0.012 A 
HETATM   20  C13 UNL     1      26.720  -1.413  52.951  1.00  0.00     0.024 A 
HETATM   21  C14 UNL     1      28.091  -1.252  53.164  1.00  0.00     0.035 A 
HETATM   22 CL1  UNL     1      29.025  -2.734  53.116  1.00  0.00    -0.084 Cl
HETATM   23  C15 UNL     1      28.648  -0.008  53.394  1.00  0.00     0.048 A 
HETATM   24  C16 UNL     1      27.790   1.088  53.405  1.00  0.00     0.043 A 
HETATM   25 CL2  UNL     1      28.593   2.618  53.707  1.00  0.00    -0.084 Cl
ENDBRANCH  17  18
ENDBRANCH  15  17
ENDBRANCH   8  15
BRANCH   1  26
HETATM   26  N1  UNL     1      26.536   3.534  50.268  1.00  0.00     0.098 N 
HETATM   27  H1  UNL     1      26.511   3.521  51.318  1.00  0.00     0.314 HD
HETATM   28  H2  UNL     1      27.457   4.007  50.022  1.00  0.00     0.314 HD
ENDBRANCH   1  26
BRANCH   1  29
HETATM   29  C2  UNL     1      25.953   5.599  49.079  1.00  0.00     0.084 C 
BRANCH  29  30
HETATM   30  C3  UNL     1      27.331   5.436  48.544  1.00  0.00     0.225 C 
HETATM   31  F1  UNL     1      28.058   6.588  48.840  1.00  0.00    -0.255 F 
ENDBRANCH  29  30
ENDBRANCH   1  29
TORSDOF 6
ENDMDL
MODEL 3
REMARK VINA RESULT:      -7.4      2.414      3.712
REMARK  6 active torsions:
REMARK  status: ('A' for Active; 'I' for Inactive)
REMARK    1  A    between atoms: N1_1  and  C1_2 
REMARK    2  A    between atoms: C1_2  and  C2_3 
REMARK    3  A    between atoms: C2_3  and  C3_4 
REMARK    4  A    between atoms: C9_12  and  N3_13 
REMARK    5  A    between atoms: N3_13  and  C10_14 
REMARK    6  A    between atoms: C10_14  and  C11_15 
ROOT
HETATM    1  C1  UNL     1      22.615   5.791  51.289  1.00  0.00     0.223 C 
HETATM    2  C4  UNL     1      23.765   6.740  51.018  1.00  0.00     0.021 C 
HETATM    3  C5  UNL     1      24.986   6.661  50.441  1.00  0.00     0.000 C 
HETATM    4  C6  UNL     1      25.833   5.702  49.799  1.00  0.00     0.017 C 
HETATM    5  C7  UNL     1      25.964   4.466  49.415  1.00  0.00     0.088 C 
HETATM    6  N2  UNL     1      25.167   3.288  49.473  1.00  0.00    -0.366 N 
HETATM    7  C8  UNL     1      23.925   2.988  50.133  1.00  0.00     0.057 C 
HETATM    8  C9  UNL     1      23.983   3.817  51.125  1.00  0.00     0.082 C 
HETATM    9  C17 UNL     1      22.921   4.571  50.462  1.00  0.00     0.124 C 
HETATM   10  N4  UNL     1      22.613   3.941  49.358  1.00  0.00    -0.178 NA
HETATM   11  N5  UNL     1      21.732   2.817  49.390  1.00  0.00    -0.308 N 
HETATM   12  C18 UNL     1      22.926   2.011  49.709  1.00  0.00     0.201 C 
HETATM   13  H11 UNL     1      25.399   2.391  48.998  1.00  0.00     0.165 HD
HETATM   14  H18 UNL     1      20.911   2.197  49.354  1.00  0.00     0.182 HD
ENDROOT
BRANCH   8  15
HETATM   15  N3  UNL     1      24.900   3.600  52.181  1.00  0.00    -0.382 N 
HETATM   16  H12 UNL     1      25.708   4.239  52.356  1.00  0.00     0.160 HD
BRANCH  15  17
HETATM   17  C10 UNL     1      24.468   2.388  52.879  1.00  0.00     0.160 C 
BRANCH  17  18
HETATM   18  C11 UNL     1      25.587   1.438  52.979  1.00  0.00    -0.019 A 
HETATM   19  C12 UNL     1      26.911   1.812  52.892  1.00  0.00     0.012 A 
HETATM   20  C13 UNL     1      27.977   0.922  52.987  1.00  0.00     0.024 A 
HETATM   21  C14 UNL     1      27.668  -0.425  53.184  1.00  0.00     0.035 A 
HETATM   22 CL1  UNL     1      29.052  -1.493  53.297  1.00  0.00    -0.084 Cl
HETATM   23  C15 UNL     1      26.360  -0.862  53.280  1.00  0.00     0.048 A 
HETATM   24  C16 UNL     1      25.354   0.094  53.174  1.00  0.00     0.043 A 
HETATM   25 CL2  UNL     1      23.732  -0.561  53.306  1.00  0.00    -0.084 Cl
ENDBRANCH  17  18
ENDBRANCH  15  17
ENDBRANCH   8  15
BRANCH   1  26
HETATM   26  N1  UNL     1      22.649   5.486  52.682  1.00  0.00     0.098 N 
HETATM   27  H1  UNL     1      22.839   4.459  52.787  1.00  0.00     0.314 HD
HETATM   28  H2  UNL     1      21.670   5.626  53.076  1.00  0.00     0.314 HD
ENDBRANCH   1  26
BRANCH   1  29
HETATM   29  C2  UNL     1      21.331   6.460  50.857  1.00  0.00     0.084 C 
BRANCH  29  30
HETATM   30  C3  UNL     1      21.575   7.752  50.162  1.00  0.00     0.225 C 
HETATM   31  F1  UNL     1      20.497   8.599  50.416  1.00  0.00    -0.255 F 
ENDBRANCH  29  30
ENDBRANCH   1  29
TORSDOF 6
ENDMDL
MODEL 4
REMARK VINA RESULT:      -7.1      2.223      3.045
REMARK  6 active torsions:
REMARK  status: ('A' for Active; 'I' for Inactive)
REMARK    1  A    between atoms: N1_1  and  C1_2 
REMARK    2  A    between atoms: C1_2  and  C2_3 
REMARK    3  A    between atoms: C2_3  and  C3_4 
REMARK    4  A    between atoms: C9_12  and  N3_13 
REMARK    5  A    between atoms: N3_13  and  C10_14 
REMARK    6  A    between atoms: C10_14  and  C11_15 
ROOT
HETATM    1  C1  UNL     1      23.068   4.618  50.689  1.00  0.00     0.223 C 
HETATM    2  C4  UNL     1      23.508   4.390  49.256  1.00  0.00     0.021 C 
HETATM    3  C5  UNL     1      23.246   3.488  48.282  1.00  0.00     0.000 C 
HETATM    4  C6  UNL     1      22.459   2.313  48.061  1.00  0.00     0.017 C 
HETATM    5  C7  UNL     1      21.613   1.470  48.577  1.00  0.00     0.088 C 
HETATM    6  N2  UNL     1      20.967   1.310  49.836  1.00  0.00    -0.366 N 
HETATM    7  C8  UNL     1      21.130   1.974  51.101  1.00  0.00     0.057 C 
HETATM    8  C9  UNL     1      22.369   2.337  51.015  1.00  0.00     0.082 C 
HETATM    9  C17 UNL     1      21.883   3.708  50.876  1.00  0.00     0.124 C 
HETATM   10  N4  UNL     1      20.577   3.676  50.936  1.00  0.00    -0.178 NA
HETATM   11  N5  UNL     1      19.914   3.618  52.200  1.00  0.00    -0.308 N 
HETATM   12  C18 UNL     1      20.108   2.157  52.127  1.00  0.00     0.201 C 
HETATM   13  H11 UNL     1      20.214   0.619  50.033  1.00  0.00     0.165 HD
HETATM   14  H18 UNL     1      19.425   3.846  53.077  1.00  0.00     0.182 HD
ENDROOT
BRANCH   8  15
HETATM   15  N3  UNL     1      23.401   1.370  51.092  1.00  0.00    -0.382 N 
HETATM   16  H12 UNL     1      23.971   1.098  50.261  1.00  0.00     0.160 HD
BRANCH  15  17
HETATM   17  C10 UNL     1      23.449   0.909  52.481  1.00  0.00     0.160 C 
BRANCH  17  18
HETATM   18  C11 UNL     1      24.835   0.586  52.856  1.00  0.00    -0.019 A 
HETATM   19  C12 UNL     1      25.937   1.082  52.192  1.00  0.00     0.012 A 
HETATM   20  C13 UNL     1      27.252   0.784  52.539  1.00  0.00     0.024 A 
HETATM   21  C14 UNL     1      27.447  -0.069  53.628  1.00  0.00     0.035 A 
HETATM   22 CL1  UNL     1      29.122  -0.404  54.014  1.00  0.00    -0.084 Cl
HETATM   23  C15 UNL     1      26.382  -0.599  54.333  1.00  0.00     0.048 A 
HETATM   24  C16 UNL     1      25.100  -0.250  53.919  1.00  0.00     0.043 A 
HETATM   25 CL2  UNL     1      23.820  -0.975  54.875  1.00  0.00    -0.084 Cl
ENDBRANCH  17  18
ENDBRANCH  15  17
ENDBRANCH   8  15
BRANCH   1  26
HETATM   26  N1  UNL     1      24.155   4.221  51.523  1.00  0.00     0.098 N 
HETATM   27  H1  UNL     1      23.929   4.503  52.509  1.00  0.00     0.314 HD
HETATM   28  H2  UNL     1      25.005   4.802  51.258  1.00  0.00     0.314 HD
ENDBRANCH   1  26
BRANCH   1  29
HETATM   29  C2  UNL     1      22.695   6.073  50.849  1.00  0.00     0.084 C 
BRANCH  29  30
HETATM   30  C3  UNL     1      23.794   6.985  50.434  1.00  0.00     0.225 C 
HETATM   31  F1  UNL     1      23.816   8.074  51.306  1.00  0.00    -0.255 F 
ENDBRANCH  29  30
ENDBRANCH   1  29
TORSDOF 6
ENDMDL
MODEL 5
REMARK VINA RESULT:      -7.0      4.268      6.953
REMARK  6 active torsions:
REMARK  status: ('A' for Active; 'I' for Inactive)
REMARK    1  A    between atoms: N1_1  and  C1_2 
REMARK    2  A    between atoms: C1_2  and  C2_3 
REMARK    3  A    between atoms: C2_3  and  C3_4 
REMARK    4  A    between atoms: C9_12  and  N3_13 
REMARK    5  A    between atoms: N3_13  and  C10_14 
REMARK    6  A    between atoms: C10_14  and  C11_15 
ROOT
HETATM    1  C1  UNL     1      25.233   2.354  52.326  1.00  0.00     0.223 C 
HETATM    2  C4  UNL     1      24.014   1.470  52.156  1.00  0.00     0.021 C 
HETATM    3  C5  UNL     1      23.001   1.358  51.265  1.00  0.00     0.000 C 
HETATM    4  C6  UNL     1      22.533   1.968  50.058  1.00  0.00     0.017 C 
HETATM    5  C7  UNL     1      22.741   2.892  49.166  1.00  0.00     0.088 C 
HETATM    6  N2  UNL     1      23.719   3.904  48.952  1.00  0.00    -0.366 N 
HETATM    7  C8  UNL     1      24.807   4.388  49.758  1.00  0.00     0.057 C 
HETATM    8  C9  UNL     1      24.358   4.118  50.942  1.00  0.00     0.082 C 
HETATM    9  C17 UNL     1      25.374   3.071  51.010  1.00  0.00     0.124 C 
HETATM   10  N4  UNL     1      26.049   3.096  49.889  1.00  0.00    -0.178 NA
HETATM   11  N5  UNL     1      27.102   4.043  49.702  1.00  0.00    -0.308 N 
HETATM   12  C18 UNL     1      26.049   4.986  49.278  1.00  0.00     0.201 C 
HETATM   13  H11 UNL     1      23.785   4.493  48.097  1.00  0.00     0.165 HD
HETATM   14  H18 UNL     1      28.014   4.517  49.651  1.00  0.00     0.182 HD
ENDROOT
BRANCH   8  15
HETATM   15  N3  UNL     1      23.281   4.862  51.481  1.00  0.00    -0.382 N 
HETATM   16  H12 UNL     1      22.367   4.420  51.726  1.00  0.00     0.160 HD
BRANCH  15  17
HETATM   17  C10 UNL     1      23.734   6.249  51.591  1.00  0.00     0.160 C 
BRANCH  17  18
HETATM   18  C11 UNL     1      22.863   7.129  50.796  1.00  0.00    -0.019 A 
HETATM   19  C12 UNL     1      21.488   7.017  50.773  1.00  0.00     0.012 A 
HETATM   20  C13 UNL     1      20.654   7.845  50.026  1.00  0.00     0.024 A 
HETATM   21  C14 UNL     1      21.264   8.843  49.262  1.00  0.00     0.035 A 
HETATM   22 CL1  UNL     1      20.161   9.850  48.347  1.00  0.00    -0.084 Cl
HETATM   23  C15 UNL     1      22.636   9.005  49.243  1.00  0.00     0.048 A 
HETATM   24  C16 UNL     1      23.397   8.134  50.019  1.00  0.00     0.043 A 
HETATM   25 CL2  UNL     1      25.125   8.421  49.925  1.00  0.00    -0.084 Cl
ENDBRANCH  17  18
ENDBRANCH  15  17
ENDBRANCH   8  15
BRANCH   1  26
HETATM   26  N1  UNL     1      24.936   3.270  53.379  1.00  0.00     0.098 N 
HETATM   27  H1  UNL     1      23.897   3.419  53.398  1.00  0.00     0.314 HD
HETATM   28  H2  UNL     1      25.345   4.217  53.118  1.00  0.00     0.314 HD
ENDBRANCH   1  26
BRANCH   1  29
HETATM   29  C2  UNL     1      26.425   1.473  52.622  1.00  0.00     0.084 C 
BRANCH  29  30
HETATM   30  C3  UNL     1      26.065   0.031  52.654  1.00  0.00     0.225 C 
HETATM   31  F1  UNL     1      26.773  -0.623  51.646  1.00  0.00    -0.255 F 
ENDBRANCH  29  30
ENDBRANCH   1  29
TORSDOF 6
ENDMDL
MODEL 6
REMARK VINA RESULT:      -7.0      5.096      7.911
REMARK  6 active torsions:
REMARK  status: ('A' for Active; 'I' for Inactive)
REMARK    1  A    between atoms: N1_1  and  C1_2 
REMARK    2  A    between atoms: C1_2  and  C2_3 
REMARK    3  A    between atoms: C2_3  and  C3_4 
REMARK    4  A    between atoms: C9_12  and  N3_13 
REMARK    5  A    between atoms: N3_13  and  C10_14 
REMARK    6  A    between atoms: C10_14  and  C11_15 
ROOT
HETATM    1  C1  UNL     1      29.755  10.157  49.057  1.00  0.00     0.223 C 
HETATM    2  C4  UNL     1      30.922   9.529  49.794  1.00  0.00     0.021 C 
HETATM    3  C5  UNL     1      31.678   8.415  49.664  1.00  0.00     0.000 C 
HETATM    4  C6  UNL     1      31.800   7.268  48.816  1.00  0.00     0.017 C 
HETATM    5  C7  UNL     1      31.331   6.640  47.777  1.00  0.00     0.088 C 
HETATM    6  N2  UNL     1      30.284   6.860  46.837  1.00  0.00    -0.366 N 
HETATM    7  C8  UNL     1      29.225   7.830  46.774  1.00  0.00     0.057 C 
HETATM    8  C9  UNL     1      29.071   8.089  48.033  1.00  0.00     0.082 C 
HETATM    9  C17 UNL     1      29.666   9.396  47.762  1.00  0.00     0.124 C 
HETATM   10  N4  UNL     1      29.942   9.452  46.484  1.00  0.00    -0.178 NA
HETATM   11  N5  UNL     1      28.920   9.772  45.538  1.00  0.00    -0.308 N 
HETATM   12  C18 UNL     1      28.577   8.336  45.567  1.00  0.00     0.201 C 
HETATM   13  H11 UNL     1      30.127   6.289  45.981  1.00  0.00     0.165 HD
HETATM   14  H18 UNL     1      28.285  10.253  44.887  1.00  0.00     0.182 HD
ENDROOT
BRANCH   8  15
HETATM   15  N3  UNL     1      28.493   7.125  48.892  1.00  0.00    -0.382 N 
HETATM   16  H12 UNL     1      29.018   6.706  49.692  1.00  0.00     0.160 HD
BRANCH  15  17
HETATM   17  C10 UNL     1      27.126   6.898  48.420  1.00  0.00     0.160 C 
BRANCH  17  18
HETATM   18  C11 UNL     1      26.547   5.726  49.097  1.00  0.00    -0.019 A 
HETATM   19  C12 UNL     1      27.054   4.450  48.974  1.00  0.00     0.012 A 
HETATM   20  C13 UNL     1      26.515   3.336  49.611  1.00  0.00     0.024 A 
HETATM   21  C14 UNL     1      25.395   3.543  50.419  1.00  0.00     0.035 A 
HETATM   22 CL1  UNL     1      24.766   2.102  51.193  1.00  0.00    -0.084 Cl
HETATM   23  C15 UNL     1      24.841   4.798  50.583  1.00  0.00     0.048 A 
HETATM   24  C16 UNL     1      25.442   5.858  49.910  1.00  0.00     0.043 A 
HETATM   25 CL2  UNL     1      24.664   7.407  50.180  1.00  0.00    -0.084 Cl
ENDBRANCH  17  18
ENDBRANCH  15  17
ENDBRANCH   8  15
BRANCH   1  26
HETATM   26  N1  UNL     1      28.596   9.941  49.859  1.00  0.00     0.098 N 
HETATM   27  H1  UNL     1      28.118  10.866  49.998  1.00  0.00     0.314 HD
HETATM   28  H2  UNL     1      28.915   9.648  50.831  1.00  0.00     0.314 HD
ENDBRANCH   1  26
BRANCH   1  29
HETATM   29  C2  UNL     1      30.062  11.620  48.834  1.00  0.00     0.084 C 
BRANCH  29  30
HETATM   30  C3  UNL     1      28.846  12.405  48.494  1.00  0.00     0.225 C 
HETATM   31  F1  UNL     1      28.533  13.226  49.577  1.00  0.00    -0.255 F 
ENDBRANCH  29  30
ENDBRANCH   1  29
TORSDOF 6
ENDMDL
MODEL 7
REMARK VINA RESULT:      -6.8      4.428      6.784
REMARK  6 active torsions:
REMARK  status: ('A' for Active; 'I' for Inactive)
REMARK    1  A    between atoms: N1_1  and  C1_2 
REMARK    2  A    between atoms: C1_2  and  C2_3 
REMARK    3  A    between atoms: C2_3  and  C3_4 
REMARK    4  A    between atoms: C9_12  and  N3_13 
REMARK    5  A    between atoms: N3_13  and  C10_14 
REMARK    6  A    between atoms: C10_14  and  C11_15 
ROOT
HETATM    1  C1  UNL     1      29.907   7.535  48.582  1.00  0.00     0.223 C 
HETATM    2  C4  UNL     1      29.922   7.595  47.067  1.00  0.00     0.021 C 
HETATM    3  C5  UNL     1      29.048   7.931  46.091  1.00  0.00     0.000 C 
HETATM    4  C6  UNL     1      27.701   8.389  45.938  1.00  0.00     0.017 C 
HETATM    5  C7  UNL     1      26.602   8.727  46.547  1.00  0.00     0.088 C 
HETATM    6  N2  UNL     1      26.166   8.806  47.900  1.00  0.00    -0.366 N 
HETATM    7  C8  UNL     1      26.765   8.389  49.138  1.00  0.00     0.057 C 
HETATM    8  C9  UNL     1      27.507   7.414  48.721  1.00  0.00     0.082 C 
HETATM    9  C17 UNL     1      28.659   8.274  48.983  1.00  0.00     0.124 C 
HETATM   10  N4  UNL     1      28.210   9.409  49.455  1.00  0.00    -0.178 NA
HETATM   11  N5  UNL     1      27.864   9.530  50.836  1.00  0.00    -0.308 N 
HETATM   12  C18 UNL     1      26.548   8.982  50.455  1.00  0.00     0.201 C 
HETATM   13  H11 UNL     1      25.260   9.217  48.208  1.00  0.00     0.165 HD
HETATM   14  H18 UNL     1      27.869   9.714  51.848  1.00  0.00     0.182 HD
ENDROOT
BRANCH   8  15
HETATM   15  N3  UNL     1      26.914   6.201  48.295  1.00  0.00    -0.382 N 
HETATM   16  H12 UNL     1      26.954   5.882  47.302  1.00  0.00     0.160 HD
BRANCH  15  17
HETATM   17  C10 UNL     1      26.305   5.587  49.476  1.00  0.00     0.160 C 
BRANCH  17  18
HETATM   18  C11 UNL     1      25.020   4.967  49.114  1.00  0.00    -0.019 A 
HETATM   19  C12 UNL     1      24.037   5.618  48.400  1.00  0.00     0.012 A 
HETATM   20  C13 UNL     1      22.818   5.040  48.052  1.00  0.00     0.024 A 
HETATM   21  C14 UNL     1      22.599   3.722  48.457  1.00  0.00     0.035 A 
HETATM   22 CL1  UNL     1      21.049   3.052  47.987  1.00  0.00    -0.084 Cl
HETATM   23  C15 UNL     1      23.546   3.016  49.175  1.00  0.00     0.048 A 
HETATM   24  C16 UNL     1      24.737   3.669  49.482  1.00  0.00     0.043 A 
HETATM   25 CL2  UNL     1      25.870   2.691  50.396  1.00  0.00    -0.084 Cl
ENDBRANCH  17  18
ENDBRANCH  15  17
ENDBRANCH   8  15
BRANCH   1  26
HETATM   26  N1  UNL     1      29.823   6.157  48.941  1.00  0.00     0.098 N 
HETATM   27  H1  UNL     1      29.404   5.635  48.132  1.00  0.00     0.314 HD
HETATM   28  H2  UNL     1      29.112   6.062  49.727  1.00  0.00     0.314 HD
ENDBRANCH   1  26
BRANCH   1  29
HETATM   29  C2  UNL     1      31.156   8.210  49.100  1.00  0.00     0.084 C 
BRANCH  29  30
HETATM   30  C3  UNL     1      32.379   7.756  48.387  1.00  0.00     0.225 C 
HETATM   31  F1  UNL     1      32.992   6.765  49.151  1.00  0.00    -0.255 F 
ENDBRANCH  29  30
ENDBRANCH   1  29
TORSDOF 6
ENDMDL
MODEL 8
REMARK VINA RESULT:      -6.8      3.930      6.551
REMARK  6 active torsions:
REMARK  status: ('A' for Active; 'I' for Inactive)
REMARK    1  A    between atoms: N1_1  and  C1_2 
REMARK    2  A    between atoms: C1_2  and  C2_3 
REMARK    3  A    between atoms: C2_3  and  C3_4 
REMARK    4  A    between atoms: C9_12  and  N3_13 
REMARK    5  A    between atoms: N3_13  and  C10_14 
REMARK    6  A    between atoms: C10_14  and  C11_15 
ROOT
HETATM    1  C1  UNL     1      24.791   1.882  51.885  1.00  0.00     0.223 C 
HETATM    2  C4  UNL     1      24.591   2.687  53.154  1.00  0.00     0.021 C 
HETATM    3  C5  UNL     1      24.061   3.888  53.480  1.00  0.00     0.000 C 
HETATM    4  C6  UNL     1      23.430   5.011  52.857  1.00  0.00     0.017 C 
HETATM    5  C7  UNL     1      23.020   5.534  51.738  1.00  0.00     0.088 C 
HETATM    6  N2  UNL     1      23.016   5.143  50.369  1.00  0.00    -0.366 N 
HETATM    7  C8  UNL     1      23.618   4.038  49.673  1.00  0.00     0.057 C 
HETATM    8  C9  UNL     1      24.632   3.803  50.442  1.00  0.00     0.082 C 
HETATM    9  C17 UNL     1      23.946   2.580  50.852  1.00  0.00     0.124 C 
HETATM   10  N4  UNL     1      22.815   2.518  50.198  1.00  0.00    -0.178 NA
HETATM   11  N5  UNL     1      22.783   2.031  48.855  1.00  0.00    -0.308 N 
HETATM   12  C18 UNL     1      23.129   3.407  48.450  1.00  0.00     0.201 C 
HETATM   13  H11 UNL     1      22.529   5.658  49.607  1.00  0.00     0.165 HD
HETATM   14  H18 UNL     1      22.698   1.447  48.012  1.00  0.00     0.182 HD
ENDROOT
BRANCH   8  15
HETATM   15  N3  UNL     1      25.719   4.710  50.483  1.00  0.00    -0.382 N 
HETATM   16  H12 UNL     1      25.887   5.339  51.299  1.00  0.00     0.160 HD
BRANCH  15  17
HETATM   17  C10 UNL     1      26.455   4.549  49.228  1.00  0.00     0.160 C 
BRANCH  17  18
HETATM   18  C11 UNL     1      26.646   5.859  48.585  1.00  0.00    -0.019 A 
HETATM   19  C12 UNL     1      25.632   6.778  48.417  1.00  0.00     0.012 A 
HETATM   20  C13 UNL     1      25.802   8.020  47.811  1.00  0.00     0.024 A 
HETATM   21  C14 UNL     1      27.083   8.337  47.355  1.00  0.00     0.035 A 
HETATM   22 CL1  UNL     1      27.232   9.913  46.605  1.00  0.00    -0.084 Cl
HETATM   23  C15 UNL     1      28.141   7.458  47.494  1.00  0.00     0.048 A 
HETATM   24  C16 UNL     1      27.884   6.236  48.111  1.00  0.00     0.043 A 
HETATM   25 CL2  UNL     1      29.288   5.193  48.238  1.00  0.00    -0.084 Cl
ENDBRANCH  17  18
ENDBRANCH  15  17
ENDBRANCH   8  15
BRANCH   1  26
HETATM   26  N1  UNL     1      26.176   1.967  51.555  1.00  0.00     0.098 N 
HETATM   27  H1  UNL     1      26.611   2.705  52.163  1.00  0.00     0.314 HD
HETATM   28  H2  UNL     1      26.258   2.345  50.564  1.00  0.00     0.314 HD
ENDBRANCH   1  26
BRANCH   1  29
HETATM   29  C2  UNL     1      24.324   0.467  52.137  1.00  0.00     0.084 C 
BRANCH  29  30
HETATM   30  C3  UNL     1      24.966  -0.133  53.336  1.00  0.00     0.225 C 
HETATM   31  F1  UNL     1      25.948  -1.026  52.910  1.00  0.00    -0.255 F 
ENDBRANCH  29  30
ENDBRANCH   1  29
TORSDOF 6
ENDMDL
MODEL 9
REMARK VINA RESULT:      -6.7      8.826     11.790
REMARK  6 active torsions:
REMARK  status: ('A' for Active; 'I' for Inactive)
REMARK    1  A    between atoms: N1_1  and  C1_2 
REMARK    2  A    between atoms: C1_2  and  C2_3 
REMARK    3  A    between atoms: C2_3  and  C3_4 
REMARK    4  A    between atoms: C9_12  and  N3_13 
REMARK    5  A    between atoms: N3_13  and  C10_14 
REMARK    6  A    between atoms: C10_14  and  C11_15 
ROOT
HETATM    1  C1  UNL     1      33.584   3.562  47.362  1.00  0.00     0.223 C 
HETATM    2  C4  UNL     1      34.883   3.917  48.060  1.00  0.00     0.021 C 
HETATM    3  C5  UNL     1      35.428   5.024  48.614  1.00  0.00     0.000 C 
HETATM    4  C6  UNL     1      35.112   6.401  48.843  1.00  0.00     0.017 C 
HETATM    5  C7  UNL     1      34.231   7.346  48.687  1.00  0.00     0.088 C 
HETATM    6  N2  UNL     1      32.935   7.449  48.106  1.00  0.00    -0.366 N 
HETATM    7  C8  UNL     1      32.150   6.538  47.319  1.00  0.00     0.057 C 
HETATM    8  C9  UNL     1      33.088   5.841  46.764  1.00  0.00     0.082 C 
HETATM    9  C17 UNL     1      32.676   4.734  47.625  1.00  0.00     0.124 C 
HETATM   10  N4  UNL     1      31.670   5.147  48.352  1.00  0.00    -0.178 NA
HETATM   11  N5  UNL     1      30.347   5.159  47.812  1.00  0.00    -0.308 N 
HETATM   12  C18 UNL     1      30.692   6.479  47.249  1.00  0.00     0.201 C 
HETATM   13  H11 UNL     1      32.318   8.284  48.178  1.00  0.00     0.165 HD
HETATM   14  H18 UNL     1      29.380   4.926  47.547  1.00  0.00     0.182 HD
ENDROOT
BRANCH   8  15
HETATM   15  N3  UNL     1      33.903   6.417  45.760  1.00  0.00    -0.382 N 
HETATM   16  H12 UNL     1      34.933   6.539  45.883  1.00  0.00     0.160 HD
BRANCH  15  17
HETATM   17  C10 UNL     1      33.025   6.755  44.640  1.00  0.00     0.160 C 
BRANCH  17  18
HETATM   18  C11 UNL     1      33.538   6.153  43.398  1.00  0.00    -0.019 A 
HETATM   19  C12 UNL     1      33.091   4.949  42.897  1.00  0.00     0.012 A 
HETATM   20  C13 UNL     1      33.568   4.372  41.723  1.00  0.00     0.024 A 
HETATM   21  C14 UNL     1      34.557   5.069  41.025  1.00  0.00     0.035 A 
HETATM   22 CL1  UNL     1      35.114   4.291  39.558  1.00  0.00    -0.084 Cl
HETATM   23  C15 UNL     1      35.045   6.281  41.477  1.00  0.00     0.048 A 
HETATM   24  C16 UNL     1      34.514   6.787  42.660  1.00  0.00     0.043 A 
HETATM   25 CL2  UNL     1      35.200   8.326  43.148  1.00  0.00    -0.084 Cl
ENDBRANCH  17  18
ENDBRANCH  15  17
ENDBRANCH   8  15
BRANCH   1  26
HETATM   26  N1  UNL     1      33.880   3.445  45.972  1.00  0.00     0.098 N 
HETATM   27  H1  UNL     1      33.355   4.199  45.462  1.00  0.00     0.314 HD
HETATM   28  H2  UNL     1      33.461   2.533  45.620  1.00  0.00     0.314 HD
ENDBRANCH   1  26
BRANCH   1  29
HETATM   29  C2  UNL     1      33.049   2.285  47.968  1.00  0.00     0.084 C 
BRANCH  29  30
HETATM   30  C3  UNL     1      32.429   1.396  46.950  1.00  0.00     0.225 C 
HETATM   31  F1  UNL     1      32.365   0.105  47.473  1.00  0.00    -0.255 F 
ENDBRANCH  29  30
ENDBRANCH   1  29
TORSDOF 6
ENDMDL
