MODEL 1
REMARK VINA RESULT:      -7.9      0.000      0.000
REMARK  5 active torsions:
REMARK  status: ('A' for Active; 'I' for Inactive)
REMARK    1  A    between atoms: O1_2  and  C2_3 
REMARK    2  A    between atoms: C5_6  and  O2_7 
REMARK    3  A    between atoms: C7_9  and  O3_10 
REMARK    4  A    between atoms: C12_16  and  O4_17 
REMARK    5  A    between atoms: O4_17  and  C13_18 
ROOT
HETATM    1  C2  UNL     1      26.732   1.939  53.838  1.00  0.00     0.065 C 
HETATM    2  C3  UNL     1      26.808   0.575  53.603  1.00  0.00     0.030 C 
HETATM    3  C4  UNL     1      25.480   0.229  52.951  1.00  0.00     0.083 A 
HETATM    4  C5  UNL     1      24.875  -0.551  53.868  1.00  0.00     0.095 A 
HETATM    5  C7  UNL     1      23.506  -0.475  53.582  1.00  0.00     0.096 A 
HETATM    6  C9  UNL     1      23.098   0.344  52.488  1.00  0.00     0.031 A 
HETATM    7  C10 UNL     1      24.231   0.809  52.038  1.00  0.00     0.082 A 
HETATM    8  C11 UNL     1      24.125   1.950  51.216  1.00  0.00     0.171 A 
HETATM    9  N1  UNL     1      24.811   2.887  50.507  1.00  0.00    -0.213 NA
HETATM   10  C12 UNL     1      26.193   2.777  50.549  1.00  0.00     0.263 A 
HETATM   11  N2  UNL     1      26.451   1.731  51.336  1.00  0.00    -0.231 NA
HETATM   12  C14 UNL     1      25.444   1.089  51.830  1.00  0.00     0.140 A 
HETATM   13  N3  UNL     1      22.904   2.821  51.398  1.00  0.00    -0.389 N 
HETATM   14  C15 UNL     1      23.164   2.892  52.809  1.00  0.00     0.144 C 
HETATM   15  C16 UNL     1      24.474   3.485  53.266  1.00  0.00    -0.005 C 
HETATM   16  C17 UNL     1      25.601   2.785  53.559  1.00  0.00     0.034 C 
HETATM   17  H14 UNL     1      22.181   3.206  50.767  1.00  0.00     0.156 HD
ENDROOT
BRANCH  10  18
HETATM   18  O4  UNL     1      27.079   3.562  49.927  1.00  0.00    -0.305 OA
BRANCH  18  19
HETATM   19  C13 UNL     1      26.632   4.668  49.118  1.00  0.00     0.293 C 
HETATM   20 CL1  UNL     1      27.972   5.539  48.369  1.00  0.00    -0.101 Cl
ENDBRANCH  18  19
ENDBRANCH  10  18
BRANCH   4  21
HETATM   21  O2  UNL     1      25.371  -1.316  54.916  1.00  0.00    -0.356 OA
HETATM   22  C6  UNL     1      25.087  -0.927  56.245  1.00  0.00     0.209 C 
ENDBRANCH   4  21
BRANCH   5  23
HETATM   23  O3  UNL     1      22.548  -1.157  54.309  1.00  0.00    -0.354 OA
HETATM   24  C8  UNL     1      21.341  -0.534  54.716  1.00  0.00     0.210 C 
ENDBRANCH   5  23
BRANCH   1  25
HETATM   25  O1  UNL     1      27.961   2.114  54.383  1.00  0.00    -0.356 OA
HETATM   26  C1  UNL     1      29.078   1.255  54.250  1.00  0.00     0.210 C 
ENDBRANCH   1  25
TORSDOF 5
ENDMDL
MODEL 2
REMARK VINA RESULT:      -7.8      2.473      4.447
REMARK  5 active torsions:
REMARK  status: ('A' for Active; 'I' for Inactive)
REMARK    1  A    between atoms: O1_2  and  C2_3 
REMARK    2  A    between atoms: C5_6  and  O2_7 
REMARK    3  A    between atoms: C7_9  and  O3_10 
REMARK    4  A    between atoms: C12_16  and  O4_17 
REMARK    5  A    between atoms: O4_17  and  C13_18 
ROOT
HETATM    1  C2  UNL     1      26.259   2.014  50.856  1.00  0.00     0.065 C 
HETATM    2  C3  UNL     1      25.143   2.803  51.089  1.00  0.00     0.030 C 
HETATM    3  C4  UNL     1      24.365   2.052  52.155  1.00  0.00     0.083 A 
HETATM    4  C5  UNL     1      23.243   1.673  51.513  1.00  0.00     0.095 A 
HETATM    5  C7  UNL     1      22.747   0.580  52.236  1.00  0.00     0.096 A 
HETATM    6  C9  UNL     1      23.481   0.151  53.382  1.00  0.00     0.031 A 
HETATM    7  C10 UNL     1      24.479   0.991  53.416  1.00  0.00     0.082 A 
HETATM    8  C11 UNL     1      25.580   0.579  54.196  1.00  0.00     0.171 A 
HETATM    9  N1  UNL     1      26.838   0.892  54.610  1.00  0.00    -0.213 NA
HETATM   10  C12 UNL     1      27.354   2.079  54.113  1.00  0.00     0.263 A 
HETATM   11  N2  UNL     1      26.411   2.581  53.313  1.00  0.00    -0.231 NA
HETATM   12  C14 UNL     1      25.306   1.918  53.201  1.00  0.00     0.140 A 
HETATM   13  N3  UNL     1      25.760  -0.906  54.407  1.00  0.00    -0.389 N 
HETATM   14  C15 UNL     1      25.680  -1.119  52.989  1.00  0.00     0.144 C 
HETATM   15  C16 UNL     1      26.702  -0.447  52.106  1.00  0.00    -0.005 C 
HETATM   16  C17 UNL     1      26.543   0.745  51.472  1.00  0.00     0.034 C 
HETATM   17  H14 UNL     1      25.887  -1.515  55.232  1.00  0.00     0.156 HD
ENDROOT
BRANCH  10  18
HETATM   18  O4  UNL     1      28.552   2.607  54.384  1.00  0.00    -0.305 OA
BRANCH  18  19
HETATM   19  C13 UNL     1      29.669   1.755  54.705  1.00  0.00     0.293 C 
HETATM   20 CL1  UNL     1      29.861   0.433  53.551  1.00  0.00    -0.101 Cl
ENDBRANCH  18  19
ENDBRANCH  10  18
BRANCH   4  21
HETATM   21  O2  UNL     1      22.604   2.162  50.381  1.00  0.00    -0.356 OA
HETATM   22  C6  UNL     1      21.552   3.093  50.534  1.00  0.00     0.209 C 
ENDBRANCH   4  21
BRANCH   5  23
HETATM   23  O3  UNL     1      21.587  -0.087  51.889  1.00  0.00    -0.354 OA
HETATM   24  C8  UNL     1      20.413   0.003  52.679  1.00  0.00     0.210 C 
ENDBRANCH   5  23
BRANCH   1  25
HETATM   25  O1  UNL     1      26.865   2.797  49.928  1.00  0.00    -0.356 OA
HETATM   26  C1  UNL     1      26.460   4.089  49.514  1.00  0.00     0.210 C 
ENDBRANCH   1  25
TORSDOF 5
ENDMDL
MODEL 3
REMARK VINA RESULT:      -7.3      1.579      2.209
REMARK  5 active torsions:
REMARK  status: ('A' for Active; 'I' for Inactive)
REMARK    1  A    between atoms: O1_2  and  C2_3 
REMARK    2  A    between atoms: C5_6  and  O2_7 
REMARK    3  A    between atoms: C7_9  and  O3_10 
REMARK    4  A    between atoms: C12_16  and  O4_17 
REMARK    5  A    between atoms: O4_17  and  C13_18 
ROOT
HETATM    1  C2  UNL     1      25.027   2.286  53.516  1.00  0.00     0.065 C 
HETATM    2  C3  UNL     1      24.680   0.978  53.216  1.00  0.00     0.030 C 
HETATM    3  C4  UNL     1      23.454   1.105  52.328  1.00  0.00     0.083 A 
HETATM    4  C5  UNL     1      22.468   0.579  53.080  1.00  0.00     0.095 A 
HETATM    5  C7  UNL     1      21.279   1.117  52.571  1.00  0.00     0.096 A 
HETATM    6  C9  UNL     1      21.374   2.025  51.475  1.00  0.00     0.031 A 
HETATM    7  C10 UNL     1      22.660   2.074  51.253  1.00  0.00     0.082 A 
HETATM    8  C11 UNL     1      23.093   3.182  50.494  1.00  0.00     0.171 A 
HETATM    9  N1  UNL     1      24.169   3.827  49.970  1.00  0.00    -0.213 NA
HETATM   10  C12 UNL     1      25.402   3.252  50.239  1.00  0.00     0.263 A 
HETATM   11  N2  UNL     1      25.148   2.182  50.995  1.00  0.00    -0.231 NA
HETATM   12  C14 UNL     1      23.911   1.923  51.271  1.00  0.00     0.140 A 
HETATM   13  N3  UNL     1      22.224   4.418  50.518  1.00  0.00    -0.389 N 
HETATM   14  C15 UNL     1      22.233   4.398  51.954  1.00  0.00     0.144 C 
HETATM   15  C16 UNL     1      23.562   4.509  52.662  1.00  0.00    -0.005 C 
HETATM   16  C17 UNL     1      24.316   3.467  53.100  1.00  0.00     0.034 C 
HETATM   17  H14 UNL     1      21.798   5.025  49.798  1.00  0.00     0.156 HD
ENDROOT
BRANCH  10  18
HETATM   18  O4  UNL     1      26.597   3.687  49.824  1.00  0.00    -0.305 OA
BRANCH  18  19
HETATM   19  C13 UNL     1      26.700   4.873  49.012  1.00  0.00     0.293 C 
HETATM   20 CL1  UNL     1      28.338   5.134  48.407  1.00  0.00    -0.101 Cl
ENDBRANCH  18  19
ENDBRANCH  10  18
BRANCH   4  21
HETATM   21  O2  UNL     1      22.481  -0.307  54.149  1.00  0.00    -0.356 OA
HETATM   22  C6  UNL     1      22.043  -1.635  53.947  1.00  0.00     0.209 C 
ENDBRANCH   4  21
BRANCH   5  23
HETATM   23  O3  UNL     1      20.033   0.805  53.082  1.00  0.00    -0.354 OA
HETATM   24  C8  UNL     1      19.097   0.039  52.342  1.00  0.00     0.210 C 
ENDBRANCH   5  23
BRANCH   1  25
HETATM   25  O1  UNL     1      26.124   2.033  54.271  1.00  0.00    -0.356 OA
HETATM   26  C1  UNL     1      26.684   0.763  54.554  1.00  0.00     0.210 C 
ENDBRANCH   1  25
TORSDOF 5
ENDMDL
MODEL 4
REMARK VINA RESULT:      -7.1      3.745      6.046
REMARK  5 active torsions:
REMARK  status: ('A' for Active; 'I' for Inactive)
REMARK    1  A    between atoms: O1_2  and  C2_3 
REMARK    2  A    between atoms: C5_6  and  O2_7 
REMARK    3  A    between atoms: C7_9  and  O3_10 
REMARK    4  A    between atoms: C12_16  and  O4_17 
REMARK    5  A    between atoms: O4_17  and  C13_18 
ROOT
HETATM    1  C2  UNL     1      19.768   0.144  51.865  1.00  0.00     0.065 C 
HETATM    2  C3  UNL     1      20.228   0.082  53.171  1.00  0.00     0.030 C 
HETATM    3  C4  UNL     1      21.529   0.866  53.151  1.00  0.00     0.083 A 
HETATM    4  C5  UNL     1      22.464  -0.073  53.392  1.00  0.00     0.095 A 
HETATM    5  C7  UNL     1      23.662   0.450  52.888  1.00  0.00     0.096 A 
HETATM    6  C9  UNL     1      23.622   1.740  52.281  1.00  0.00     0.031 A 
HETATM    7  C10 UNL     1      22.366   2.076  52.400  1.00  0.00     0.082 A 
HETATM    8  C11 UNL     1      21.943   3.118  51.549  1.00  0.00     0.171 A 
HETATM    9  N1  UNL     1      20.887   3.875  51.146  1.00  0.00    -0.213 NA
HETATM   10  C12 UNL     1      19.673   3.578  51.747  1.00  0.00     0.263 A 
HETATM   11  N2  UNL     1      19.917   2.563  52.579  1.00  0.00    -0.231 NA
HETATM   12  C14 UNL     1      21.132   2.128  52.653  1.00  0.00     0.140 A 
HETATM   13  N3  UNL     1      22.722   3.326  50.271  1.00  0.00    -0.389 N 
HETATM   14  C15 UNL     1      22.564   1.935  49.948  1.00  0.00     0.144 C 
HETATM   15  C16 UNL     1      21.165   1.392  49.789  1.00  0.00    -0.005 C 
HETATM   16  C17 UNL     1      20.439   0.776  50.759  1.00  0.00     0.034 C 
HETATM   17  H14 UNL     1      23.179   4.134  49.818  1.00  0.00     0.156 HD
ENDROOT
BRANCH  10  18
HETATM   18  O4  UNL     1      18.502   4.187  51.532  1.00  0.00    -0.305 OA
BRANCH  18  19
HETATM   19  C13 UNL     1      17.273   3.435  51.561  1.00  0.00     0.293 C 
HETATM   20 CL1  UNL     1      17.180   2.248  50.258  1.00  0.00    -0.101 Cl
ENDBRANCH  18  19
ENDBRANCH  10  18
BRANCH   4  21
HETATM   21  O2  UNL     1      22.398  -1.323  53.995  1.00  0.00    -0.356 OA
HETATM   22  C6  UNL     1      22.766  -1.451  55.353  1.00  0.00     0.209 C 
ENDBRANCH   4  21
BRANCH   5  23
HETATM   23  O3  UNL     1      24.866  -0.227  52.957  1.00  0.00    -0.354 OA
HETATM   24  C8  UNL     1      25.844   0.097  53.930  1.00  0.00     0.210 C 
ENDBRANCH   5  23
BRANCH   1  25
HETATM   25  O1  UNL     1      18.617  -0.554  52.027  1.00  0.00    -0.356 OA
HETATM   26  C1  UNL     1      18.211  -1.263  53.184  1.00  0.00     0.210 C 
ENDBRANCH   1  25
TORSDOF 5
ENDMDL
MODEL 5
REMARK VINA RESULT:      -7.0      3.011      4.983
REMARK  5 active torsions:
REMARK  status: ('A' for Active; 'I' for Inactive)
REMARK    1  A    between atoms: O1_2  and  C2_3 
REMARK    2  A    between atoms: C5_6  and  O2_7 
REMARK    3  A    between atoms: C7_9  and  O3_10 
REMARK    4  A    between atoms: C12_16  and  O4_17 
REMARK    5  A    between atoms: O4_17  and  C13_18 
ROOT
HETATM    1  C2  UNL     1      21.680   1.354  50.722  1.00  0.00     0.065 C 
HETATM    2  C3  UNL     1      21.562   0.984  52.053  1.00  0.00     0.030 C 
HETATM    3  C4  UNL     1      22.773   1.608  52.727  1.00  0.00     0.083 A 
HETATM    4  C5  UNL     1      23.507   0.541  53.099  1.00  0.00     0.095 A 
HETATM    5  C7  UNL     1      24.816   1.018  53.243  1.00  0.00     0.096 A 
HETATM    6  C9  UNL     1      25.056   2.399  52.978  1.00  0.00     0.031 A 
HETATM    7  C10 UNL     1      23.869   2.842  52.663  1.00  0.00     0.082 A 
HETATM    8  C11 UNL     1      23.854   4.072  51.973  1.00  0.00     0.171 A 
HETATM    9  N1  UNL     1      23.072   5.006  51.367  1.00  0.00    -0.213 NA
HETATM   10  C12 UNL     1      21.712   4.732  51.355  1.00  0.00     0.263 A 
HETATM   11  N2  UNL     1      21.572   3.552  51.963  1.00  0.00    -0.231 NA
HETATM   12  C14 UNL     1      22.641   2.979  52.412  1.00  0.00     0.140 A 
HETATM   13  N3  UNL     1      25.093   4.441  51.191  1.00  0.00    -0.389 N 
HETATM   14  C15 UNL     1      25.053   3.168  50.527  1.00  0.00     0.144 C 
HETATM   15  C16 UNL     1      23.831   2.825  49.709  1.00  0.00    -0.005 C 
HETATM   16  C17 UNL     1      22.759   2.114  50.146  1.00  0.00     0.034 C 
HETATM   17  H14 UNL     1      25.712   5.267  51.152  1.00  0.00     0.156 HD
ENDROOT
BRANCH  10  18
HETATM   18  O4  UNL     1      20.745   5.498  50.838  1.00  0.00    -0.305 OA
BRANCH  18  19
HETATM   19  C13 UNL     1      19.642   4.899  50.129  1.00  0.00     0.293 C 
HETATM   20 CL1  UNL     1      20.157   4.076  48.655  1.00  0.00    -0.101 Cl
ENDBRANCH  18  19
ENDBRANCH  10  18
BRANCH   4  21
HETATM   21  O2  UNL     1      23.174  -0.787  53.328  1.00  0.00    -0.356 OA
HETATM   22  C6  UNL     1      22.761  -1.180  54.621  1.00  0.00     0.209 C 
ENDBRANCH   4  21
BRANCH   5  23
HETATM   23  O3  UNL     1      25.871   0.212  53.628  1.00  0.00    -0.354 OA
HETATM   24  C8  UNL     1      26.470   0.333  54.907  1.00  0.00     0.210 C 
ENDBRANCH   5  23
BRANCH   1  25
HETATM   25  O1  UNL     1      20.550   0.770  50.254  1.00  0.00    -0.356 OA
HETATM   26  C1  UNL     1      19.221   1.050  50.654  1.00  0.00     0.210 C 
ENDBRANCH   1  25
TORSDOF 5
ENDMDL
MODEL 6
REMARK VINA RESULT:      -6.8      3.291      5.736
REMARK  5 active torsions:
REMARK  status: ('A' for Active; 'I' for Inactive)
REMARK    1  A    between atoms: O1_2  and  C2_3 
REMARK    2  A    between atoms: C5_6  and  O2_7 
REMARK    3  A    between atoms: C7_9  and  O3_10 
REMARK    4  A    between atoms: C12_16  and  O4_17 
REMARK    5  A    between atoms: O4_17  and  C13_18 
ROOT
HETATM    1  C2  UNL     1      22.430   0.554  52.021  1.00  0.00     0.065 C 
HETATM    2  C3  UNL     1      23.314   1.204  52.868  1.00  0.00     0.030 C 
HETATM    3  C4  UNL     1      23.737   2.442  52.095  1.00  0.00     0.083 A 
HETATM    4  C5  UNL     1      25.043   2.225  51.847  1.00  0.00     0.095 A 
HETATM    5  C7  UNL     1      25.353   3.027  50.741  1.00  0.00     0.096 A 
HETATM    6  C9  UNL     1      24.308   3.815  50.175  1.00  0.00     0.031 A 
HETATM    7  C10 UNL     1      23.288   3.530  50.937  1.00  0.00     0.082 A 
HETATM    8  C11 UNL     1      22.027   3.848  50.390  1.00  0.00     0.171 A 
HETATM    9  N1  UNL     1      20.680   3.802  50.580  1.00  0.00    -0.213 NA
HETATM   10  C12 UNL     1      20.262   3.208  51.762  1.00  0.00     0.263 A 
HETATM   11  N2  UNL     1      21.375   2.820  52.388  1.00  0.00    -0.231 NA
HETATM   12  C14 UNL     1      22.506   3.077  51.817  1.00  0.00     0.140 A 
HETATM   13  N3  UNL     1      21.924   3.914  48.884  1.00  0.00    -0.389 N 
HETATM   14  C15 UNL     1      22.515   2.609  48.785  1.00  0.00     0.144 C 
HETATM   15  C16 UNL     1      21.809   1.451  49.447  1.00  0.00    -0.005 C 
HETATM   16  C17 UNL     1      22.068   0.971  50.692  1.00  0.00     0.034 C 
HETATM   17  H14 UNL     1      21.573   4.611  48.207  1.00  0.00     0.156 HD
ENDROOT
BRANCH  10  18
HETATM   18  O4  UNL     1      19.001   3.059  52.181  1.00  0.00    -0.305 OA
BRANCH  18  19
HETATM   19  C13 UNL     1      18.124   2.116  51.533  1.00  0.00     0.293 C 
HETATM   20 CL1  UNL     1      18.696   0.453  51.681  1.00  0.00    -0.101 Cl
ENDBRANCH  18  19
ENDBRANCH  10  18
BRANCH   4  21
HETATM   21  O2  UNL     1      25.989   1.417  52.464  1.00  0.00    -0.356 OA
HETATM   22  C6  UNL     1      26.836   1.978  53.446  1.00  0.00     0.209 C 
ENDBRANCH   4  21
BRANCH   5  23
HETATM   23  O3  UNL     1      26.619   3.085  50.187  1.00  0.00    -0.354 OA
HETATM   24  C8  UNL     1      26.972   4.084  49.245  1.00  0.00     0.210 C 
ENDBRANCH   5  23
BRANCH   1  25
HETATM   25  O1  UNL     1      22.118  -0.492  52.826  1.00  0.00    -0.356 OA
HETATM   26  C1  UNL     1      22.720  -0.818  54.065  1.00  0.00     0.210 C 
ENDBRANCH   1  25
TORSDOF 5
ENDMDL
MODEL 7
REMARK VINA RESULT:      -6.6      2.837      3.916
REMARK  5 active torsions:
REMARK  status: ('A' for Active; 'I' for Inactive)
REMARK    1  A    between atoms: O1_2  and  C2_3 
REMARK    2  A    between atoms: C5_6  and  O2_7 
REMARK    3  A    between atoms: C7_9  and  O3_10 
REMARK    4  A    between atoms: C12_16  and  O4_17 
REMARK    5  A    between atoms: O4_17  and  C13_18 
ROOT
HETATM    1  C2  UNL     1      23.515   3.541  51.400  1.00  0.00     0.065 C 
HETATM    2  C3  UNL     1      24.301   2.402  51.310  1.00  0.00     0.030 C 
HETATM    3  C4  UNL     1      23.325   1.253  51.494  1.00  0.00     0.083 A 
HETATM    4  C5  UNL     1      23.698   0.712  52.670  1.00  0.00     0.095 A 
HETATM    5  C7  UNL     1      22.574   0.021  53.140  1.00  0.00     0.096 A 
HETATM    6  C9  UNL     1      21.392   0.051  52.342  1.00  0.00     0.031 A 
HETATM    7  C10 UNL     1      21.755   0.772  51.316  1.00  0.00     0.082 A 
HETATM    8  C11 UNL     1      20.694   1.305  50.554  1.00  0.00     0.171 A 
HETATM    9  N1  UNL     1      20.361   2.090  49.495  1.00  0.00    -0.213 NA
HETATM   10  C12 UNL     1      21.425   2.664  48.816  1.00  0.00     0.263 A 
HETATM   11  N2  UNL     1      22.525   2.264  49.458  1.00  0.00    -0.231 NA
HETATM   12  C14 UNL     1      22.374   1.478  50.474  1.00  0.00     0.140 A 
HETATM   13  N3  UNL     1      19.369   1.497  51.255  1.00  0.00    -0.389 N 
HETATM   14  C15 UNL     1      20.027   2.228  52.302  1.00  0.00     0.144 C 
HETATM   15  C16 UNL     1      20.772   3.488  51.935  1.00  0.00    -0.005 C 
HETATM   16  C17 UNL     1      22.101   3.575  51.667  1.00  0.00     0.034 C 
HETATM   17  H14 UNL     1      18.394   1.217  51.061  1.00  0.00     0.156 HD
ENDROOT
BRANCH  10  18
HETATM   18  O4  UNL     1      21.357   3.456  47.740  1.00  0.00    -0.305 OA
BRANCH  18  19
HETATM   19  C13 UNL     1      22.339   4.491  47.534  1.00  0.00     0.293 C 
HETATM   20 CL1  UNL     1      22.225   5.775  48.740  1.00  0.00    -0.101 Cl
ENDBRANCH  18  19
ENDBRANCH  10  18
BRANCH   4  21
HETATM   21  O2  UNL     1      24.893   0.748  53.377  1.00  0.00    -0.356 OA
HETATM   22  C6  UNL     1      25.805  -0.323  53.240  1.00  0.00     0.209 C 
ENDBRANCH   4  21
BRANCH   5  23
HETATM   23  O3  UNL     1      22.567  -0.682  54.330  1.00  0.00    -0.354 OA
HETATM   24  C8  UNL     1      21.570  -1.649  54.616  1.00  0.00     0.210 C 
ENDBRANCH   5  23
BRANCH   1  25
HETATM   25  O1  UNL     1      24.484   4.467  51.195  1.00  0.00    -0.356 OA
HETATM   26  C1  UNL     1      25.388   4.523  50.107  1.00  0.00     0.210 C 
ENDBRANCH   1  25
TORSDOF 5
ENDMDL
MODEL 8
REMARK VINA RESULT:      -6.5      3.345      5.838
REMARK  5 active torsions:
REMARK  status: ('A' for Active; 'I' for Inactive)
REMARK    1  A    between atoms: O1_2  and  C2_3 
REMARK    2  A    between atoms: C5_6  and  O2_7 
REMARK    3  A    between atoms: C7_9  and  O3_10 
REMARK    4  A    between atoms: C12_16  and  O4_17 
REMARK    5  A    between atoms: O4_17  and  C13_18 
ROOT
HETATM    1  C2  UNL     1      21.516   1.915  52.173  1.00  0.00     0.065 C 
HETATM    2  C3  UNL     1      21.461   1.112  51.044  1.00  0.00     0.030 C 
HETATM    3  C4  UNL     1      22.463   1.735  50.087  1.00  0.00     0.083 A 
HETATM    4  C5  UNL     1      21.692   2.198  49.084  1.00  0.00     0.095 A 
HETATM    5  C7  UNL     1      22.448   3.198  48.460  1.00  0.00     0.096 A 
HETATM    6  C9  UNL     1      23.744   3.480  48.985  1.00  0.00     0.031 A 
HETATM    7  C10 UNL     1      23.844   2.634  49.974  1.00  0.00     0.082 A 
HETATM    8  C11 UNL     1      24.842   2.939  50.922  1.00  0.00     0.171 A 
HETATM    9  N1  UNL     1      25.422   2.568  52.096  1.00  0.00    -0.213 NA
HETATM   10  C12 UNL     1      24.879   1.446  52.704  1.00  0.00     0.263 A 
HETATM   11  N2  UNL     1      23.877   1.053  51.915  1.00  0.00    -0.231 NA
HETATM   12  C14 UNL     1      23.661   1.733  50.837  1.00  0.00     0.140 A 
HETATM   13  N3  UNL     1      25.260   4.386  51.045  1.00  0.00    -0.389 N 
HETATM   14  C15 UNL     1      23.884   4.770  51.202  1.00  0.00     0.144 C 
HETATM   15  C16 UNL     1      23.112   4.202  52.368  1.00  0.00    -0.005 C 
HETATM   16  C17 UNL     1      22.321   3.098  52.332  1.00  0.00     0.034 C 
HETATM   17  H14 UNL     1      26.162   4.889  51.024  1.00  0.00     0.156 HD
ENDROOT
BRANCH  10  18
HETATM   18  O4  UNL     1      25.282   0.879  53.846  1.00  0.00    -0.305 OA
BRANCH  18  19
HETATM   19  C13 UNL     1      25.637  -0.518  53.881  1.00  0.00     0.293 C 
HETATM   20 CL1  UNL     1      26.730  -0.967  52.570  1.00  0.00    -0.101 Cl
ENDBRANCH  18  19
ENDBRANCH  10  18
BRANCH   4  21
HETATM   21  O2  UNL     1      20.417   1.856  48.652  1.00  0.00    -0.356 OA
HETATM   22  C6  UNL     1      19.346   2.743  48.899  1.00  0.00     0.209 C 
ENDBRANCH   4  21
BRANCH   5  23
HETATM   23  O3  UNL     1      21.993   3.912  47.367  1.00  0.00    -0.354 OA
HETATM   24  C8  UNL     1      22.071   5.327  47.318  1.00  0.00     0.210 C 
ENDBRANCH   5  23
BRANCH   1  25
HETATM   25  O1  UNL     1      20.617   1.246  52.935  1.00  0.00    -0.356 OA
HETATM   26  C1  UNL     1      20.902   0.337  53.983  1.00  0.00     0.210 C 
ENDBRANCH   1  25
TORSDOF 5
ENDMDL
MODEL 9
REMARK VINA RESULT:      -6.5      3.680      6.126
REMARK  5 active torsions:
REMARK  status: ('A' for Active; 'I' for Inactive)
REMARK    1  A    between atoms: O1_2  and  C2_3 
REMARK    2  A    between atoms: C5_6  and  O2_7 
REMARK    3  A    between atoms: C7_9  and  O3_10 
REMARK    4  A    between atoms: C12_16  and  O4_17 
REMARK    5  A    between atoms: O4_17  and  C13_18 
ROOT
HETATM    1  C2  UNL     1      24.081   2.093  51.354  1.00  0.00     0.065 C 
HETATM    2  C3  UNL     1      24.040   3.076  52.331  1.00  0.00     0.030 C 
HETATM    3  C4  UNL     1      22.602   3.566  52.313  1.00  0.00     0.083 A 
HETATM    4  C5  UNL     1      22.709   4.833  51.866  1.00  0.00     0.095 A 
HETATM    5  C7  UNL     1      21.450   5.155  51.345  1.00  0.00     0.096 A 
HETATM    6  C9  UNL     1      20.432   4.156  51.395  1.00  0.00     0.031 A 
HETATM    7  C10 UNL     1      21.039   3.156  51.973  1.00  0.00     0.082 A 
HETATM    8  C11 UNL     1      20.416   1.902  51.806  1.00  0.00     0.171 A 
HETATM    9  N1  UNL     1      20.496   0.569  52.065  1.00  0.00    -0.213 NA
HETATM   10  C12 UNL     1      21.617   0.162  52.772  1.00  0.00     0.263 A 
HETATM   11  N2  UNL     1      22.336   1.267  52.983  1.00  0.00    -0.231 NA
HETATM   12  C14 UNL     1      21.861   2.384  52.538  1.00  0.00     0.140 A 
HETATM   13  N3  UNL     1      19.535   1.725  50.591  1.00  0.00    -0.389 N 
HETATM   14  C15 UNL     1      20.601   2.191  49.748  1.00  0.00     0.144 C 
HETATM   15  C16 UNL     1      21.898   1.420  49.743  1.00  0.00    -0.005 C 
HETATM   16  C17 UNL     1      22.990   1.700  50.501  1.00  0.00     0.034 C 
HETATM   17  H14 UNL     1      18.566   1.403  50.433  1.00  0.00     0.156 HD
ENDROOT
BRANCH  10  18
HETATM   18  O4  UNL     1      21.913  -1.083  53.161  1.00  0.00    -0.305 OA
BRANCH  18  19
HETATM   19  C13 UNL     1      21.662  -1.503  54.516  1.00  0.00     0.293 C 
HETATM   20 CL1  UNL     1      23.109  -1.419  55.524  1.00  0.00    -0.101 Cl
ENDBRANCH  18  19
ENDBRANCH  10  18
BRANCH   4  21
HETATM   21  O2  UNL     1      23.766   5.734  51.858  1.00  0.00    -0.356 OA
HETATM   22  C6  UNL     1      24.461   5.968  50.650  1.00  0.00     0.209 C 
ENDBRANCH   4  21
BRANCH   5  23
HETATM   23  O3  UNL     1      21.158   6.389  50.794  1.00  0.00    -0.354 OA
HETATM   24  C8  UNL     1      20.763   6.523  49.439  1.00  0.00     0.210 C 
ENDBRANCH   5  23
BRANCH   1  25
HETATM   25  O1  UNL     1      25.381   1.732  51.492  1.00  0.00    -0.356 OA
HETATM   26  C1  UNL     1      25.878   0.601  52.186  1.00  0.00     0.210 C 
ENDBRANCH   1  25
TORSDOF 5
ENDMDL
