MODEL 1
REMARK VINA RESULT:      -7.7      0.000      0.000
REMARK  6 active torsions:
REMARK  status: ('A' for Active; 'I' for Inactive)
REMARK    1  A    between atoms: O1_1  and  C1_2 
REMARK    2  A    between atoms: C2_3  and  S1_4 
REMARK    3  A    between atoms: S1_4  and  C3_5 
REMARK    4  A    between atoms: C3_5  and  N1_6 
REMARK    5  A    between atoms: C5_8  and  C6_9 
REMARK    6  A    between atoms: C13_17  and  C14_18 
ROOT
HETATM    1  N1  UNL     1      25.739   0.585  52.817  1.00  0.00     0.104 N 
HETATM    2  C4  UNL     1      24.742  -0.290  53.378  1.00  0.00     0.283 C 
HETATM    3  C5  UNL     1      23.589   0.591  53.642  1.00  0.00     0.049 C 
HETATM    4  C12 UNL     1      23.738   1.753  52.672  1.00  0.00     0.048 C 
HETATM    5  C13 UNL     1      25.054   1.525  52.010  1.00  0.00     0.236 C 
ENDROOT
BRANCH   3   6
HETATM    6  C6  UNL     1      22.253  -0.005  53.606  1.00  0.00    -0.052 A 
HETATM    7  C7  UNL     1      21.225   0.573  52.854  1.00  0.00     0.009 A 
HETATM    8  C8  UNL     1      19.948   0.056  52.783  1.00  0.00     0.019 A 
HETATM    9  C9  UNL     1      19.676  -1.096  53.495  1.00  0.00     0.011 A 
HETATM   10 BR1  UNL     1      17.906  -1.776  53.370  1.00  0.00    -0.051 Br
HETATM   11  C10 UNL     1      20.649  -1.716  54.258  1.00  0.00     0.019 A 
HETATM   12  C11 UNL     1      21.906  -1.162  54.296  1.00  0.00     0.009 A 
ENDBRANCH   3   6
BRANCH   1  13
HETATM   13  C3  UNL     1      26.699   1.064  53.734  1.00  0.00     0.351 C 
BRANCH  13  14
HETATM   14  S1  UNL     1      28.406   0.725  53.306  1.00  0.00    -0.110 SA
BRANCH  14  15
HETATM   15  C2  UNL     1      28.752  -0.984  53.776  1.00  0.00     0.070 C 
HETATM   16  C1  UNL     1      28.447  -2.061  53.032  1.00  0.00     0.138 C 
BRANCH  16  17
HETATM   17  O1  UNL     1      28.725  -3.381  53.420  1.00  0.00    -0.372 OA
HETATM   18  H1  UNL     1      28.381  -3.755  54.311  1.00  0.00     0.216 HD
ENDBRANCH  16  17
ENDBRANCH  14  15
ENDBRANCH  13  14
ENDBRANCH   1  13
BRANCH   5  19
HETATM   19  C14 UNL     1      25.809   2.775  51.694  1.00  0.00     0.064 A 
HETATM   20  C15 UNL     1      24.891   3.845  51.230  1.00  0.00    -0.016 A 
HETATM   21  C16 UNL     1      25.052   4.163  49.954  1.00  0.00    -0.004 A 
HETATM   22  C17 UNL     1      26.130   3.296  49.449  1.00  0.00    -0.004 A 
HETATM   23  C18 UNL     1      26.563   2.511  50.422  1.00  0.00    -0.016 A 
ENDBRANCH   5  19
TORSDOF 6
ENDMDL
MODEL 2
REMARK VINA RESULT:      -7.6      3.953      6.912
REMARK  6 active torsions:
REMARK  status: ('A' for Active; 'I' for Inactive)
REMARK    1  A    between atoms: O1_1  and  C1_2 
REMARK    2  A    between atoms: C2_3  and  S1_4 
REMARK    3  A    between atoms: S1_4  and  C3_5 
REMARK    4  A    between atoms: C3_5  and  N1_6 
REMARK    5  A    between atoms: C5_8  and  C6_9 
REMARK    6  A    between atoms: C13_17  and  C14_18 
ROOT
HETATM    1  N1  UNL     1      23.950   1.278  51.545  1.00  0.00     0.104 N 
HETATM    2  C4  UNL     1      23.921   2.453  50.713  1.00  0.00     0.283 C 
HETATM    3  C5  UNL     1      24.982   3.318  51.264  1.00  0.00     0.049 C 
HETATM    4  C12 UNL     1      25.957   2.373  51.951  1.00  0.00     0.048 C 
HETATM    5  C13 UNL     1      25.307   1.034  51.866  1.00  0.00     0.236 C 
ENDROOT
BRANCH   3   6
HETATM    6  C6  UNL     1      25.648   4.247  50.350  1.00  0.00    -0.052 A 
HETATM    7  C7  UNL     1      25.197   5.564  50.205  1.00  0.00     0.009 A 
HETATM    8  C8  UNL     1      25.785   6.482  49.360  1.00  0.00     0.019 A 
HETATM    9  C9  UNL     1      26.878   6.074  48.621  1.00  0.00     0.011 A 
HETATM   10 BR1  UNL     1      27.660   7.369  47.470  1.00  0.00    -0.051 Br
HETATM   11  C10 UNL     1      27.373   4.786  48.720  1.00  0.00     0.019 A 
HETATM   12  C11 UNL     1      26.752   3.908  49.576  1.00  0.00     0.009 A 
ENDBRANCH   3   6
BRANCH   1  13
HETATM   13  C3  UNL     1      23.002   1.263  52.591  1.00  0.00     0.351 C 
BRANCH  13  14
HETATM   14  S1  UNL     1      21.732   0.006  52.456  1.00  0.00    -0.110 SA
BRANCH  14  15
HETATM   15  C2  UNL     1      22.088  -1.258  53.697  1.00  0.00     0.070 C 
HETATM   16  C1  UNL     1      22.621  -1.016  54.906  1.00  0.00     0.138 C 
BRANCH  16  17
HETATM   17  O1  UNL     1      22.890  -2.016  55.854  1.00  0.00    -0.372 OA
HETATM   18  H1  UNL     1      22.138  -2.605  56.229  1.00  0.00     0.216 HD
ENDBRANCH  16  17
ENDBRANCH  14  15
ENDBRANCH  13  14
ENDBRANCH   1  13
BRANCH   5  19
HETATM   19  C14 UNL     1      25.542   0.159  53.054  1.00  0.00     0.064 A 
HETATM   20  C15 UNL     1      26.443   0.821  54.030  1.00  0.00    -0.016 A 
HETATM   21  C16 UNL     1      27.625   0.235  54.140  1.00  0.00    -0.004 A 
HETATM   22  C17 UNL     1      27.604  -0.907  53.211  1.00  0.00    -0.004 A 
HETATM   23  C18 UNL     1      26.434  -0.959  52.595  1.00  0.00    -0.016 A 
ENDBRANCH   5  19
TORSDOF 6
ENDMDL
MODEL 3
REMARK VINA RESULT:      -7.5      3.320      6.181
REMARK  6 active torsions:
REMARK  status: ('A' for Active; 'I' for Inactive)
REMARK    1  A    between atoms: O1_1  and  C1_2 
REMARK    2  A    between atoms: C2_3  and  S1_4 
REMARK    3  A    between atoms: S1_4  and  C3_5 
REMARK    4  A    between atoms: C3_5  and  N1_6 
REMARK    5  A    between atoms: C5_8  and  C6_9 
REMARK    6  A    between atoms: C13_17  and  C14_18 
ROOT
HETATM    1  N1  UNL     1      24.668   1.363  53.317  1.00  0.00     0.104 N 
HETATM    2  C4  UNL     1      25.590   2.310  52.746  1.00  0.00     0.283 C 
HETATM    3  C5  UNL     1      25.358   2.217  51.293  1.00  0.00     0.049 C 
HETATM    4  C12 UNL     1      23.931   1.712  51.143  1.00  0.00     0.048 C 
HETATM    5  C13 UNL     1      23.489   1.415  52.535  1.00  0.00     0.236 C 
ENDROOT
BRANCH   3   6
HETATM    6  C6  UNL     1      25.623   3.406  50.482  1.00  0.00    -0.052 A 
HETATM    7  C7  UNL     1      24.755   4.504  50.507  1.00  0.00     0.009 A 
HETATM    8  C8  UNL     1      24.953   5.650  49.765  1.00  0.00     0.019 A 
HETATM    9  C9  UNL     1      26.071   5.711  48.956  1.00  0.00     0.011 A 
HETATM   10 BR1  UNL     1      26.308   7.306  47.950  1.00  0.00    -0.051 Br
HETATM   11  C10 UNL     1      26.968   4.660  48.887  1.00  0.00     0.019 A 
HETATM   12  C11 UNL     1      26.726   3.540  49.646  1.00  0.00     0.009 A 
ENDBRANCH   3   6
BRANCH   1  13
HETATM   13  C3  UNL     1      25.218   0.097  53.615  1.00  0.00     0.351 C 
BRANCH  13  14
HETATM   14  S1  UNL     1      26.431   0.080  54.934  1.00  0.00    -0.110 SA
BRANCH  14  15
HETATM   15  C2  UNL     1      28.053  -0.153  54.175  1.00  0.00     0.070 C 
HETATM   16  C1  UNL     1      28.987   0.805  54.053  1.00  0.00     0.138 C 
BRANCH  16  17
HETATM   17  O1  UNL     1      30.242   0.600  53.458  1.00  0.00    -0.372 OA
HETATM   18  H1  UNL     1      30.383   0.760  52.454  1.00  0.00     0.216 HD
ENDBRANCH  16  17
ENDBRANCH  14  15
ENDBRANCH  13  14
ENDBRANCH   1  13
BRANCH   5  19
HETATM   19  C14 UNL     1      22.583   0.232  52.654  1.00  0.00     0.064 A 
HETATM   20  C15 UNL     1      21.616   0.189  51.529  1.00  0.00    -0.016 A 
HETATM   21  C16 UNL     1      20.364   0.407  51.900  1.00  0.00    -0.004 A 
HETATM   22  C17 UNL     1      20.399   0.619  53.356  1.00  0.00    -0.004 A 
HETATM   23  C18 UNL     1      21.645   0.522  53.791  1.00  0.00    -0.016 A 
ENDBRANCH   5  19
TORSDOF 6
ENDMDL
MODEL 4
REMARK VINA RESULT:      -7.5      4.295      6.953
REMARK  6 active torsions:
REMARK  status: ('A' for Active; 'I' for Inactive)
REMARK    1  A    between atoms: O1_1  and  C1_2 
REMARK    2  A    between atoms: C2_3  and  S1_4 
REMARK    3  A    between atoms: S1_4  and  C3_5 
REMARK    4  A    between atoms: C3_5  and  N1_6 
REMARK    5  A    between atoms: C5_8  and  C6_9 
REMARK    6  A    between atoms: C13_17  and  C14_18 
ROOT
HETATM    1  N1  UNL     1      23.048   3.094  51.359  1.00  0.00     0.104 N 
HETATM    2  C4  UNL     1      24.477   2.996  51.504  1.00  0.00     0.283 C 
HETATM    3  C5  UNL     1      24.667   2.295  52.787  1.00  0.00     0.049 C 
HETATM    4  C12 UNL     1      23.394   1.489  53.000  1.00  0.00     0.048 C 
HETATM    5  C13 UNL     1      22.498   1.899  51.882  1.00  0.00     0.236 C 
ENDROOT
BRANCH   3   6
HETATM    6  C6  UNL     1      25.878   1.489  52.951  1.00  0.00    -0.052 A 
HETATM    7  C7  UNL     1      27.039   2.035  53.509  1.00  0.00     0.009 A 
HETATM    8  C8  UNL     1      28.207   1.323  53.687  1.00  0.00     0.019 A 
HETATM    9  C9  UNL     1      28.225   0.000  53.293  1.00  0.00     0.011 A 
HETATM   10 BR1  UNL     1      29.853  -0.945  53.556  1.00  0.00    -0.051 Br
HETATM   11  C10 UNL     1      27.110  -0.599  52.734  1.00  0.00     0.019 A 
HETATM   12  C11 UNL     1      25.970   0.152  52.577  1.00  0.00     0.009 A 
ENDBRANCH   3   6
BRANCH   1  13
HETATM   13  C3  UNL     1      22.488   4.324  51.769  1.00  0.00     0.351 C 
BRANCH  13  14
HETATM   14  S1  UNL     1      22.668   5.675  50.605  1.00  0.00    -0.110 SA
BRANCH  14  15
HETATM   15  C2  UNL     1      24.090   6.656  51.132  1.00  0.00     0.070 C 
HETATM   16  C1  UNL     1      25.217   6.816  50.419  1.00  0.00     0.138 C 
BRANCH  16  17
HETATM   17  O1  UNL     1      26.311   7.584  50.850  1.00  0.00    -0.372 OA
HETATM   18  H1  UNL     1      27.253   7.419  50.477  1.00  0.00     0.216 HD
ENDBRANCH  16  17
ENDBRANCH  14  15
ENDBRANCH  13  14
ENDBRANCH   1  13
BRANCH   5  19
HETATM   19  C14 UNL     1      21.050   1.960  52.245  1.00  0.00     0.064 A 
HETATM   20  C15 UNL     1      20.729   0.979  53.311  1.00  0.00    -0.016 A 
HETATM   21  C16 UNL     1      19.949  -0.011  52.902  1.00  0.00    -0.004 A 
HETATM   22  C17 UNL     1      19.678   0.244  51.477  1.00  0.00    -0.004 A 
HETATM   23  C18 UNL     1      20.293   1.352  51.098  1.00  0.00    -0.016 A 
ENDBRANCH   5  19
TORSDOF 6
ENDMDL
MODEL 5
REMARK VINA RESULT:      -7.4      3.120      5.729
REMARK  6 active torsions:
REMARK  status: ('A' for Active; 'I' for Inactive)
REMARK    1  A    between atoms: O1_1  and  C1_2 
REMARK    2  A    between atoms: C2_3  and  S1_4 
REMARK    3  A    between atoms: S1_4  and  C3_5 
REMARK    4  A    between atoms: C3_5  and  N1_6 
REMARK    5  A    between atoms: C5_8  and  C6_9 
REMARK    6  A    between atoms: C13_17  and  C14_18 
ROOT
HETATM    1  N1  UNL     1      25.880   0.744  52.916  1.00  0.00     0.104 N 
HETATM    2  C4  UNL     1      26.083   2.023  52.286  1.00  0.00     0.283 C 
HETATM    3  C5  UNL     1      24.918   2.181  51.396  1.00  0.00     0.049 C 
HETATM    4  C12 UNL     1      23.823   1.318  52.007  1.00  0.00     0.048 C 
HETATM    5  C13 UNL     1      24.489   0.609  53.136  1.00  0.00     0.236 C 
ENDROOT
BRANCH   3   6
HETATM    6  C6  UNL     1      24.464   3.541  51.102  1.00  0.00    -0.052 A 
HETATM    7  C7  UNL     1      24.809   4.173  49.902  1.00  0.00     0.009 A 
HETATM    8  C8  UNL     1      24.410   5.451  49.571  1.00  0.00     0.019 A 
HETATM    9  C9  UNL     1      23.627   6.140  50.477  1.00  0.00     0.011 A 
HETATM   10 BR1  UNL     1      23.099   7.897  49.984  1.00  0.00    -0.051 Br
HETATM   11  C10 UNL     1      23.251   5.570  51.681  1.00  0.00     0.019 A 
HETATM   12  C11 UNL     1      23.674   4.294  51.964  1.00  0.00     0.009 A 
ENDBRANCH   3   6
BRANCH   1  13
HETATM   13  C3  UNL     1      26.570  -0.333  52.318  1.00  0.00     0.351 C 
BRANCH  13  14
HETATM   14  S1  UNL     1      27.985  -0.942  53.235  1.00  0.00    -0.110 SA
BRANCH  14  15
HETATM   15  C2  UNL     1      28.515   0.377  54.348  1.00  0.00     0.070 C 
HETATM   16  C1  UNL     1      29.347   1.377  54.012  1.00  0.00     0.138 C 
BRANCH  16  17
HETATM   17  O1  UNL     1      29.746   2.392  54.896  1.00  0.00    -0.372 OA
HETATM   18  H1  UNL     1      29.902   2.194  55.891  1.00  0.00     0.216 HD
ENDBRANCH  16  17
ENDBRANCH  14  15
ENDBRANCH  13  14
ENDBRANCH   1  13
BRANCH   5  19
HETATM   19  C14 UNL     1      24.003  -0.786  53.360  1.00  0.00     0.064 A 
HETATM   20  C15 UNL     1      22.545  -0.887  53.098  1.00  0.00    -0.016 A 
HETATM   21  C16 UNL     1      21.828  -1.123  54.186  1.00  0.00    -0.004 A 
HETATM   22  C17 UNL     1      22.787  -1.201  55.300  1.00  0.00    -0.004 A 
HETATM   23  C18 UNL     1      24.015  -1.013  54.845  1.00  0.00    -0.016 A 
ENDBRANCH   5  19
TORSDOF 6
ENDMDL
MODEL 6
REMARK VINA RESULT:      -7.3      3.273      5.035
REMARK  6 active torsions:
REMARK  status: ('A' for Active; 'I' for Inactive)
REMARK    1  A    between atoms: O1_1  and  C1_2 
REMARK    2  A    between atoms: C2_3  and  S1_4 
REMARK    3  A    between atoms: S1_4  and  C3_5 
REMARK    4  A    between atoms: C3_5  and  N1_6 
REMARK    5  A    between atoms: C5_8  and  C6_9 
REMARK    6  A    between atoms: C13_17  and  C14_18 
ROOT
HETATM    1  N1  UNL     1      24.594   2.908  51.978  1.00  0.00     0.104 N 
HETATM    2  C4  UNL     1      23.183   2.751  51.738  1.00  0.00     0.283 C 
HETATM    3  C5  UNL     1      23.005   1.300  51.542  1.00  0.00     0.049 C 
HETATM    4  C12 UNL     1      24.164   0.647  52.280  1.00  0.00     0.048 C 
HETATM    5  C13 UNL     1      25.011   1.786  52.734  1.00  0.00     0.236 C 
ENDROOT
BRANCH   3   6
HETATM    6  C6  UNL     1      21.710   0.717  51.898  1.00  0.00    -0.052 A 
HETATM    7  C7  UNL     1      21.524   0.065  53.122  1.00  0.00     0.009 A 
HETATM    8  C8  UNL     1      20.328  -0.502  53.510  1.00  0.00     0.019 A 
HETATM    9  C9  UNL     1      19.260  -0.418  52.640  1.00  0.00     0.011 A 
HETATM   10 BR1  UNL     1      17.630  -1.211  53.212  1.00  0.00    -0.051 Br
HETATM   11  C10 UNL     1      19.378   0.215  51.414  1.00  0.00     0.019 A 
HETATM   12  C11 UNL     1      20.591   0.764  51.073  1.00  0.00     0.009 A 
ENDBRANCH   3   6
BRANCH   1  13
HETATM   13  C3  UNL     1      25.356   3.273  50.846  1.00  0.00     0.351 C 
BRANCH  13  14
HETATM   14  S1  UNL     1      24.486   4.241  49.615  1.00  0.00    -0.110 SA
BRANCH  14  15
HETATM   15  C2  UNL     1      24.586   5.972  50.118  1.00  0.00     0.070 C 
HETATM   16  C1  UNL     1      24.035   6.480  51.234  1.00  0.00     0.138 C 
BRANCH  16  17
HETATM   17  O1  UNL     1      24.125   7.831  51.604  1.00  0.00    -0.372 OA
HETATM   18  H1  UNL     1      24.686   8.493  51.055  1.00  0.00     0.216 HD
ENDBRANCH  16  17
ENDBRANCH  14  15
ENDBRANCH  13  14
ENDBRANCH   1  13
BRANCH   5  19
HETATM   19  C14 UNL     1      26.478   1.507  52.718  1.00  0.00     0.064 A 
HETATM   20  C15 UNL     1      26.750   0.130  52.234  1.00  0.00    -0.016 A 
HETATM   21  C16 UNL     1      27.235  -0.673  53.168  1.00  0.00    -0.004 A 
HETATM   22  C17 UNL     1      27.327   0.135  54.395  1.00  0.00    -0.004 A 
HETATM   23  C18 UNL     1      26.904   1.364  54.152  1.00  0.00    -0.016 A 
ENDBRANCH   5  19
TORSDOF 6
ENDMDL
MODEL 7
REMARK VINA RESULT:      -7.0      3.932      6.051
REMARK  6 active torsions:
REMARK  status: ('A' for Active; 'I' for Inactive)
REMARK    1  A    between atoms: O1_1  and  C1_2 
REMARK    2  A    between atoms: C2_3  and  S1_4 
REMARK    3  A    between atoms: S1_4  and  C3_5 
REMARK    4  A    between atoms: C3_5  and  N1_6 
REMARK    5  A    between atoms: C5_8  and  C6_9 
REMARK    6  A    between atoms: C13_17  and  C14_18 
ROOT
HETATM    1  N1  UNL     1      22.990   2.885  52.182  1.00  0.00     0.104 N 
HETATM    2  C4  UNL     1      23.708   1.809  52.814  1.00  0.00     0.283 C 
HETATM    3  C5  UNL     1      24.706   1.397  51.810  1.00  0.00     0.049 C 
HETATM    4  C12 UNL     1      24.930   2.622  50.936  1.00  0.00     0.048 C 
HETATM    5  C13 UNL     1      23.931   3.617  51.419  1.00  0.00     0.236 C 
ENDROOT
BRANCH   3   6
HETATM    6  C6  UNL     1      25.959   0.813  52.292  1.00  0.00    -0.052 A 
HETATM    7  C7  UNL     1      27.052   1.622  52.623  1.00  0.00     0.009 A 
HETATM    8  C8  UNL     1      28.255   1.128  53.082  1.00  0.00     0.019 A 
HETATM    9  C9  UNL     1      28.382  -0.240  53.221  1.00  0.00     0.011 A 
HETATM   10 BR1  UNL     1      30.055  -0.881  53.857  1.00  0.00    -0.051 Br
HETATM   11  C10 UNL     1      27.338  -1.095  52.912  1.00  0.00     0.019 A 
HETATM   12  C11 UNL     1      26.159  -0.553  52.458  1.00  0.00     0.009 A 
ENDBRANCH   3   6
BRANCH   1  13
HETATM   13  C3  UNL     1      21.774   2.513  51.567  1.00  0.00     0.351 C 
BRANCH  13  14
HETATM   14  S1  UNL     1      20.409   2.210  52.688  1.00  0.00    -0.110 SA
BRANCH  14  15
HETATM   15  C2  UNL     1      20.542   0.501  53.254  1.00  0.00     0.070 C 
HETATM   16  C1  UNL     1      20.856   0.130  54.507  1.00  0.00     0.138 C 
BRANCH  16  17
HETATM   17  O1  UNL     1      20.954  -1.207  54.923  1.00  0.00    -0.372 OA
HETATM   18  H1  UNL     1      21.841  -1.589  55.271  1.00  0.00     0.216 HD
ENDBRANCH  16  17
ENDBRANCH  14  15
ENDBRANCH  13  14
ENDBRANCH   1  13
BRANCH   5  19
HETATM   19  C14 UNL     1      23.357   4.484  50.346  1.00  0.00     0.064 A 
HETATM   20  C15 UNL     1      24.256   4.531  49.166  1.00  0.00    -0.016 A 
HETATM   21  C16 UNL     1      24.810   5.718  48.971  1.00  0.00    -0.004 A 
HETATM   22  C17 UNL     1      24.304   6.588  50.046  1.00  0.00    -0.004 A 
HETATM   23  C18 UNL     1      23.485   5.902  50.826  1.00  0.00    -0.016 A 
ENDBRANCH   5  19
TORSDOF 6
ENDMDL
MODEL 8
REMARK VINA RESULT:      -6.9      7.796     10.143
REMARK  6 active torsions:
REMARK  status: ('A' for Active; 'I' for Inactive)
REMARK    1  A    between atoms: O1_1  and  C1_2 
REMARK    2  A    between atoms: C2_3  and  S1_4 
REMARK    3  A    between atoms: S1_4  and  C3_5 
REMARK    4  A    between atoms: C3_5  and  N1_6 
REMARK    5  A    between atoms: C5_8  and  C6_9 
REMARK    6  A    between atoms: C13_17  and  C14_18 
ROOT
HETATM    1  N1  UNL     1      32.214   6.227  48.055  1.00  0.00     0.104 N 
HETATM    2  C4  UNL     1      30.981   6.895  48.385  1.00  0.00     0.283 C 
HETATM    3  C5  UNL     1      29.948   6.138  47.654  1.00  0.00     0.049 C 
HETATM    4  C12 UNL     1      30.529   4.745  47.461  1.00  0.00     0.048 C 
HETATM    5  C13 UNL     1      31.924   4.844  47.976  1.00  0.00     0.236 C 
ENDROOT
BRANCH   3   6
HETATM    6  C6  UNL     1      28.596   6.111  48.215  1.00  0.00    -0.052 A 
HETATM    7  C7  UNL     1      27.983   4.901  48.562  1.00  0.00     0.009 A 
HETATM    8  C8  UNL     1      26.713   4.816  49.094  1.00  0.00     0.019 A 
HETATM    9  C9  UNL     1      26.014   5.990  49.293  1.00  0.00     0.011 A 
HETATM   10 BR1  UNL     1      24.269   5.829  50.027  1.00  0.00    -0.051 Br
HETATM   11  C10 UNL     1      26.565   7.219  48.971  1.00  0.00     0.019 A 
HETATM   12  C11 UNL     1      27.834   7.251  48.443  1.00  0.00     0.009 A 
ENDBRANCH   3   6
BRANCH   1  13
HETATM   13  C3  UNL     1      32.952   6.818  47.006  1.00  0.00     0.351 C 
BRANCH  13  14
HETATM   14  S1  UNL     1      33.959   8.225  47.474  1.00  0.00    -0.110 SA
BRANCH  14  15
HETATM   15  C2  UNL     1      35.401   7.588  48.355  1.00  0.00     0.070 C 
HETATM   16  C1  UNL     1      35.458   6.395  48.971  1.00  0.00     0.138 C 
BRANCH  16  17
HETATM   17  O1  UNL     1      36.592   5.922  49.651  1.00  0.00    -0.372 OA
HETATM   18  H1  UNL     1      37.005   5.011  49.420  1.00  0.00     0.216 HD
ENDBRANCH  16  17
ENDBRANCH  14  15
ENDBRANCH  13  14
ENDBRANCH   1  13
BRANCH   5  19
HETATM   19  C14 UNL     1      32.918   4.019  47.225  1.00  0.00     0.064 A 
HETATM   20  C15 UNL     1      32.236   3.018  46.367  1.00  0.00    -0.016 A 
HETATM   21  C16 UNL     1      32.423   1.768  46.762  1.00  0.00    -0.004 A 
HETATM   22  C17 UNL     1      33.278   1.840  47.959  1.00  0.00    -0.004 A 
HETATM   23  C18 UNL     1      33.562   3.104  48.228  1.00  0.00    -0.016 A 
ENDBRANCH   5  19
TORSDOF 6
ENDMDL
MODEL 9
REMARK VINA RESULT:      -6.8      6.991      9.667
REMARK  6 active torsions:
REMARK  status: ('A' for Active; 'I' for Inactive)
REMARK    1  A    between atoms: O1_1  and  C1_2 
REMARK    2  A    between atoms: C2_3  and  S1_4 
REMARK    3  A    between atoms: S1_4  and  C3_5 
REMARK    4  A    between atoms: C3_5  and  N1_6 
REMARK    5  A    between atoms: C5_8  and  C6_9 
REMARK    6  A    between atoms: C13_17  and  C14_18 
ROOT
HETATM    1  N1  UNL     1      29.176   7.895  48.234  1.00  0.00     0.104 N 
HETATM    2  C4  UNL     1      27.828   7.555  48.610  1.00  0.00     0.283 C 
HETATM    3  C5  UNL     1      27.672   6.152  48.182  1.00  0.00     0.049 C 
HETATM    4  C12 UNL     1      29.081   5.577  48.161  1.00  0.00     0.048 C 
HETATM    5  C13 UNL     1      29.967   6.741  48.446  1.00  0.00     0.236 C 
ENDROOT
BRANCH   3   6
HETATM    6  C6  UNL     1      26.732   5.312  48.925  1.00  0.00    -0.052 A 
HETATM    7  C7  UNL     1      25.503   5.818  49.365  1.00  0.00     0.009 A 
HETATM    8  C8  UNL     1      24.580   5.074  50.068  1.00  0.00     0.019 A 
HETATM    9  C9  UNL     1      24.889   3.758  50.351  1.00  0.00     0.011 A 
HETATM   10 BR1  UNL     1      23.590   2.766  51.321  1.00  0.00    -0.051 Br
HETATM   11  C10 UNL     1      26.088   3.197  49.943  1.00  0.00     0.019 A 
HETATM   12  C11 UNL     1      26.975   3.980  49.245  1.00  0.00     0.009 A 
ENDBRANCH   3   6
BRANCH   1  13
HETATM   13  C3  UNL     1      29.299   8.573  47.001  1.00  0.00     0.351 C 
BRANCH  13  14
HETATM   14  S1  UNL     1      29.932  10.246  47.106  1.00  0.00    -0.110 SA
BRANCH  14  15
HETATM   15  C2  UNL     1      29.090  11.057  48.483  1.00  0.00     0.070 C 
HETATM   16  C1  UNL     1      29.119  12.378  48.728  1.00  0.00     0.138 C 
BRANCH  16  17
HETATM   17  O1  UNL     1      28.456  12.986  49.806  1.00  0.00    -0.372 OA
HETATM   18  H1  UNL     1      27.624  13.567  49.655  1.00  0.00     0.216 HD
ENDBRANCH  16  17
ENDBRANCH  14  15
ENDBRANCH  13  14
ENDBRANCH   1  13
BRANCH   5  19
HETATM   19  C14 UNL     1      31.274   6.712  47.722  1.00  0.00     0.064 A 
HETATM   20  C15 UNL     1      31.640   5.324  47.346  1.00  0.00    -0.016 A 
HETATM   21  C16 UNL     1      32.696   4.861  47.998  1.00  0.00    -0.004 A 
HETATM   22  C17 UNL     1      33.133   5.946  48.893  1.00  0.00    -0.004 A 
HETATM   23  C18 UNL     1      32.338   6.993  48.745  1.00  0.00    -0.016 A 
ENDBRANCH   5  19
TORSDOF 6
ENDMDL
