MODEL 1
REMARK VINA RESULT:      -6.9      0.000      0.000
REMARK  7 active torsions:
REMARK  status: ('A' for Active; 'I' for Inactive)
REMARK    1  A    between atoms: C3_3  and  O1_4 
REMARK    2  A    between atoms: O1_4  and  C4_5 
REMARK    3  A    between atoms: C4_5  and  C5_6 
REMARK    4  A    between atoms: C5_6  and  C6_7 
REMARK    5  A    between atoms: C6_7  and  C7_8 
REMARK    6  A    between atoms: C7_8  and  C8_9 
REMARK    7  A    between atoms: N2_11  and  C9_12 
ROOT
HETATM    1  C8  UNL     1      26.042   3.541  50.176  1.00  0.00     0.035 A 
HETATM    2  N1  UNL     1      27.061   3.155  50.848  1.00  0.00    -0.179 NA
HETATM    3  N2  UNL     1      26.674   2.256  51.853  1.00  0.00    -0.247 N 
HETATM    4  C15 UNL     1      25.236   1.981  51.736  1.00  0.00     0.159 A 
HETATM    5  C16 UNL     1      24.801   2.925  50.667  1.00  0.00     0.078 A 
ENDROOT
BRANCH   1   6
HETATM    6  C7  UNL     1      25.921   4.475  49.026  1.00  0.00     0.074 C 
BRANCH   6   7
HETATM    7  C6  UNL     1      27.231   5.080  48.712  1.00  0.00     0.075 C 
BRANCH   7   8
HETATM    8  C5  UNL     1      27.299   6.401  48.673  1.00  0.00    -0.141 C 
BRANCH   8   9
HETATM    9  C4  UNL     1      27.207   7.713  48.839  1.00  0.00     0.234 C 
BRANCH   9  10
HETATM   10  O1  UNL     1      26.549   8.138  49.977  1.00  0.00    -0.343 OA
BRANCH  10  11
HETATM   11  C3  UNL     1      25.284   8.679  49.954  1.00  0.00     0.132 C 
HETATM   12  C2  UNL     1      24.199   8.143  50.488  1.00  0.00    -0.007 C 
HETATM   13  C1  UNL     1      24.304   6.852  51.181  1.00  0.00     0.038 C 
ENDBRANCH  10  11
ENDBRANCH   9  10
ENDBRANCH   8   9
ENDBRANCH   7   8
ENDBRANCH   6   7
ENDBRANCH   1   6
BRANCH   3  14
HETATM   14  C9  UNL     1      27.547   1.686  52.850  1.00  0.00     0.170 A 
HETATM   15  N3  UNL     1      28.709   2.010  53.140  1.00  0.00    -0.247 NA
HETATM   16  C10 UNL     1      28.807   1.011  54.147  1.00  0.00     0.189 A 
HETATM   17  C11 UNL     1      29.778  -0.026  53.711  1.00  0.00     0.008 C 
HETATM   18  S1  UNL     1      27.335   0.321  54.045  1.00  0.00    -0.128 SA
HETATM   19  C12 UNL     1      29.446  -1.195  53.226  1.00  0.00    -0.002 C 
HETATM   20  C13 UNL     1      28.016  -1.354  53.164  1.00  0.00     0.068 A 
HETATM   21  C14 UNL     1      26.711  -1.108  53.312  1.00  0.00     0.035 A 
ENDBRANCH   3  14
TORSDOF 7
ENDMDL
MODEL 2
REMARK VINA RESULT:      -6.9      3.885      5.657
REMARK  7 active torsions:
REMARK  status: ('A' for Active; 'I' for Inactive)
REMARK    1  A    between atoms: C3_3  and  O1_4 
REMARK    2  A    between atoms: O1_4  and  C4_5 
REMARK    3  A    between atoms: C4_5  and  C5_6 
REMARK    4  A    between atoms: C5_6  and  C6_7 
REMARK    5  A    between atoms: C6_7  and  C7_8 
REMARK    6  A    between atoms: C7_8  and  C8_9 
REMARK    7  A    between atoms: N2_11  and  C9_12 
ROOT
HETATM    1  C8  UNL     1      22.876  -0.735  53.947  1.00  0.00     0.035 A 
HETATM    2  N1  UNL     1      24.017  -0.444  53.444  1.00  0.00    -0.179 NA
HETATM    3  N2  UNL     1      25.039  -0.689  54.374  1.00  0.00    -0.247 N 
HETATM    4  C15 UNL     1      24.465  -1.293  55.583  1.00  0.00     0.159 A 
HETATM    5  C16 UNL     1      22.998  -1.230  55.326  1.00  0.00     0.078 A 
ENDROOT
BRANCH   1   6
HETATM    6  C7  UNL     1      21.505  -0.656  53.378  1.00  0.00     0.074 C 
BRANCH   6   7
HETATM    7  C6  UNL     1      20.771   0.488  53.956  1.00  0.00     0.075 C 
BRANCH   7   8
HETATM    8  C5  UNL     1      20.573   1.541  53.179  1.00  0.00    -0.141 C 
BRANCH   8   9
HETATM    9  C4  UNL     1      20.353   2.419  52.210  1.00  0.00     0.234 C 
BRANCH   9  10
HETATM   10  O1  UNL     1      21.476   2.988  51.639  1.00  0.00    -0.343 OA
BRANCH  10  11
HETATM   11  C3  UNL     1      21.964   4.219  52.011  1.00  0.00     0.132 C 
HETATM   12  C2  UNL     1      23.120   4.448  52.613  1.00  0.00    -0.007 C 
HETATM   13  C1  UNL     1      23.998   3.315  52.934  1.00  0.00     0.038 C 
ENDBRANCH  10  11
ENDBRANCH   9  10
ENDBRANCH   8   9
ENDBRANCH   7   8
ENDBRANCH   6   7
ENDBRANCH   1   6
BRANCH   3  14
HETATM   14  C9  UNL     1      26.438  -0.397  54.178  1.00  0.00     0.170 A 
HETATM   15  N3  UNL     1      27.343  -0.334  55.025  1.00  0.00    -0.247 NA
HETATM   16  C10 UNL     1      28.326  -0.019  54.047  1.00  0.00     0.189 A 
HETATM   17  C11 UNL     1      28.778   1.383  54.244  1.00  0.00     0.008 C 
HETATM   18  S1  UNL     1      27.425  -0.015  52.690  1.00  0.00    -0.128 SA
HETATM   19  C12 UNL     1      28.388   2.398  53.516  1.00  0.00    -0.002 C 
HETATM   20  C13 UNL     1      27.459   1.987  52.494  1.00  0.00     0.068 A 
HETATM   21  C14 UNL     1      26.703   1.209  51.715  1.00  0.00     0.035 A 
ENDBRANCH   3  14
TORSDOF 7
ENDMDL
MODEL 3
REMARK VINA RESULT:      -6.9      1.831      2.799
REMARK  7 active torsions:
REMARK  status: ('A' for Active; 'I' for Inactive)
REMARK    1  A    between atoms: C3_3  and  O1_4 
REMARK    2  A    between atoms: O1_4  and  C4_5 
REMARK    3  A    between atoms: C4_5  and  C5_6 
REMARK    4  A    between atoms: C5_6  and  C6_7 
REMARK    5  A    between atoms: C6_7  and  C7_8 
REMARK    6  A    between atoms: C7_8  and  C8_9 
REMARK    7  A    between atoms: N2_11  and  C9_12 
ROOT
HETATM    1  C8  UNL     1      26.316   3.619  50.180  1.00  0.00     0.035 A 
HETATM    2  N1  UNL     1      27.276   3.144  50.883  1.00  0.00    -0.179 NA
HETATM    3  N2  UNL     1      26.783   2.245  51.840  1.00  0.00    -0.247 N 
HETATM    4  C15 UNL     1      25.337   2.072  51.651  1.00  0.00     0.159 A 
HETATM    5  C16 UNL     1      25.016   3.074  50.596  1.00  0.00     0.078 A 
ENDROOT
BRANCH   1   6
HETATM    6  C7  UNL     1      26.311   4.592  49.057  1.00  0.00     0.074 C 
BRANCH   6   7
HETATM    7  C6  UNL     1      27.692   4.903  48.636  1.00  0.00     0.075 C 
BRANCH   7   8
HETATM    8  C5  UNL     1      27.977   6.166  48.365  1.00  0.00    -0.141 C 
BRANCH   8   9
HETATM    9  C4  UNL     1      28.424   7.413  48.295  1.00  0.00     0.234 C 
BRANCH   9  10
HETATM   10  O1  UNL     1      29.766   7.562  48.000  1.00  0.00    -0.343 OA
BRANCH  10  11
HETATM   11  C3  UNL     1      30.679   8.063  48.899  1.00  0.00     0.132 C 
HETATM   12  C2  UNL     1      31.609   7.367  49.533  1.00  0.00    -0.007 C 
HETATM   13  C1  UNL     1      31.715   5.923  49.287  1.00  0.00     0.038 C 
ENDBRANCH  10  11
ENDBRANCH   9  10
ENDBRANCH   8   9
ENDBRANCH   7   8
ENDBRANCH   6   7
ENDBRANCH   1   6
BRANCH   3  14
HETATM   14  C9  UNL     1      27.570   1.587  52.855  1.00  0.00     0.170 A 
HETATM   15  N3  UNL     1      28.731   1.833  53.217  1.00  0.00    -0.247 NA
HETATM   16  C10 UNL     1      28.720   0.792  54.185  1.00  0.00     0.189 A 
HETATM   17  C11 UNL     1      29.653  -0.283  53.756  1.00  0.00     0.008 C 
HETATM   18  S1  UNL     1      27.220   0.192  53.981  1.00  0.00    -0.128 SA
HETATM   19  C12 UNL     1      29.283  -1.411  53.207  1.00  0.00    -0.002 C 
HETATM   20  C13 UNL     1      27.851  -1.485  53.067  1.00  0.00     0.068 A 
HETATM   21  C14 UNL     1      26.556  -1.170  53.159  1.00  0.00     0.035 A 
ENDBRANCH   3  14
TORSDOF 7
ENDMDL
MODEL 4
REMARK VINA RESULT:      -6.8      4.121      5.684
REMARK  7 active torsions:
REMARK  status: ('A' for Active; 'I' for Inactive)
REMARK    1  A    between atoms: C3_3  and  O1_4 
REMARK    2  A    between atoms: O1_4  and  C4_5 
REMARK    3  A    between atoms: C4_5  and  C5_6 
REMARK    4  A    between atoms: C5_6  and  C6_7 
REMARK    5  A    between atoms: C6_7  and  C7_8 
REMARK    6  A    between atoms: C7_8  and  C8_9 
REMARK    7  A    between atoms: N2_11  and  C9_12 
ROOT
HETATM    1  C8  UNL     1      23.486   2.194  51.132  1.00  0.00     0.035 A 
HETATM    2  N1  UNL     1      24.220   1.314  51.704  1.00  0.00    -0.179 NA
HETATM    3  N2  UNL     1      24.750   1.821  52.901  1.00  0.00    -0.247 N 
HETATM    4  C15 UNL     1      24.206   3.163  53.147  1.00  0.00     0.159 A 
HETATM    5  C16 UNL     1      23.434   3.444  51.904  1.00  0.00     0.078 A 
ENDROOT
BRANCH   1   6
HETATM    6  C7  UNL     1      22.712   2.152  49.864  1.00  0.00     0.074 C 
BRANCH   6   7
HETATM    7  C6  UNL     1      21.843   0.959  49.829  1.00  0.00     0.075 C 
BRANCH   7   8
HETATM    8  C5  UNL     1      20.757   0.973  50.585  1.00  0.00    -0.141 C 
BRANCH   8   9
HETATM    9  C4  UNL     1      19.674   0.731  51.310  1.00  0.00     0.234 C 
BRANCH   9  10
HETATM   10  O1  UNL     1      19.884   0.121  52.532  1.00  0.00    -0.343 OA
BRANCH  10  11
HETATM   11  C3  UNL     1      20.659   0.677  53.524  1.00  0.00     0.132 C 
HETATM   12  C2  UNL     1      21.765   0.157  54.031  1.00  0.00    -0.007 C 
HETATM   13  C1  UNL     1      22.250  -1.132  53.520  1.00  0.00     0.038 C 
ENDBRANCH  10  11
ENDBRANCH   9  10
ENDBRANCH   8   9
ENDBRANCH   7   8
ENDBRANCH   6   7
ENDBRANCH   1   6
BRANCH   3  14
HETATM   14  C9  UNL     1      25.685   1.136  53.760  1.00  0.00     0.170 A 
HETATM   15  N3  UNL     1      26.486   1.618  54.575  1.00  0.00    -0.247 NA
HETATM   16  C10 UNL     1      26.973   0.338  54.954  1.00  0.00     0.189 A 
HETATM   17  C11 UNL     1      28.374   0.188  54.481  1.00  0.00     0.008 C 
HETATM   18  S1  UNL     1      26.072  -0.632  54.005  1.00  0.00    -0.128 SA
HETATM   19  C12 UNL     1      28.731  -0.495  53.423  1.00  0.00    -0.002 C 
HETATM   20  C13 UNL     1      27.592  -1.087  52.769  1.00  0.00     0.068 A 
HETATM   21  C14 UNL     1      26.335  -1.463  52.519  1.00  0.00     0.035 A 
ENDBRANCH   3  14
TORSDOF 7
ENDMDL
MODEL 5
REMARK VINA RESULT:      -6.7      3.219      5.336
REMARK  7 active torsions:
REMARK  status: ('A' for Active; 'I' for Inactive)
REMARK    1  A    between atoms: C3_3  and  O1_4 
REMARK    2  A    between atoms: O1_4  and  C4_5 
REMARK    3  A    between atoms: C4_5  and  C5_6 
REMARK    4  A    between atoms: C5_6  and  C6_7 
REMARK    5  A    between atoms: C6_7  and  C7_8 
REMARK    6  A    between atoms: C7_8  and  C8_9 
REMARK    7  A    between atoms: N2_11  and  C9_12 
ROOT
HETATM    1  C8  UNL     1      24.320   2.879  50.616  1.00  0.00     0.035 A 
HETATM    2  N1  UNL     1      24.850   2.449  51.700  1.00  0.00    -0.179 NA
HETATM    3  N2  UNL     1      26.249   2.525  51.625  1.00  0.00    -0.247 N 
HETATM    4  C15 UNL     1      26.637   3.167  50.363  1.00  0.00     0.159 A 
HETATM    5  C16 UNL     1      25.338   3.312  49.648  1.00  0.00     0.078 A 
ENDROOT
BRANCH   1   6
HETATM    6  C7  UNL     1      22.899   3.005  50.201  1.00  0.00     0.074 C 
BRANCH   6   7
HETATM    7  C6  UNL     1      22.404   1.724  49.658  1.00  0.00     0.075 C 
BRANCH   7   8
HETATM    8  C5  UNL     1      21.707   0.946  50.471  1.00  0.00    -0.141 C 
BRANCH   8   9
HETATM    9  C4  UNL     1      20.881   0.385  51.344  1.00  0.00     0.234 C 
BRANCH   9  10
HETATM   10  O1  UNL     1      21.159   0.613  52.678  1.00  0.00    -0.343 OA
BRANCH  10  11
HETATM   11  C3  UNL     1      22.369   0.303  53.255  1.00  0.00     0.132 C 
HETATM   12  C2  UNL     1      22.595  -0.686  54.104  1.00  0.00    -0.007 C 
HETATM   13  C1  UNL     1      21.484  -1.562  54.496  1.00  0.00     0.038 C 
ENDBRANCH  10  11
ENDBRANCH   9  10
ENDBRANCH   8   9
ENDBRANCH   7   8
ENDBRANCH   6   7
ENDBRANCH   1   6
BRANCH   3  14
HETATM   14  C9  UNL     1      27.168   2.049  52.630  1.00  0.00     0.170 A 
HETATM   15  N3  UNL     1      28.355   2.364  52.807  1.00  0.00    -0.247 NA
HETATM   16  C10 UNL     1      28.490   1.491  53.921  1.00  0.00     0.189 A 
HETATM   17  C11 UNL     1      29.400   0.374  53.559  1.00  0.00     0.008 C 
HETATM   18  S1  UNL     1      26.995   0.848  53.995  1.00  0.00    -0.128 SA
HETATM   19  C12 UNL     1      29.004  -0.832  53.243  1.00  0.00    -0.002 C 
HETATM   20  C13 UNL     1      27.569  -0.946  53.289  1.00  0.00     0.068 A 
HETATM   21  C14 UNL     1      26.284  -0.636  53.483  1.00  0.00     0.035 A 
ENDBRANCH   3  14
TORSDOF 7
ENDMDL
MODEL 6
REMARK VINA RESULT:      -6.5      5.806      8.013
REMARK  7 active torsions:
REMARK  status: ('A' for Active; 'I' for Inactive)
REMARK    1  A    between atoms: C3_3  and  O1_4 
REMARK    2  A    between atoms: O1_4  and  C4_5 
REMARK    3  A    between atoms: C4_5  and  C5_6 
REMARK    4  A    between atoms: C5_6  and  C6_7 
REMARK    5  A    between atoms: C6_7  and  C7_8 
REMARK    6  A    between atoms: C7_8  and  C8_9 
REMARK    7  A    between atoms: N2_11  and  C9_12 
ROOT
HETATM    1  C8  UNL     1      22.109   0.056  53.810  1.00  0.00     0.035 A 
HETATM    2  N1  UNL     1      23.202   0.180  53.154  1.00  0.00    -0.179 NA
HETATM    3  N2  UNL     1      24.231  -0.542  53.777  1.00  0.00    -0.247 N 
HETATM    4  C15 UNL     1      23.686  -1.281  54.923  1.00  0.00     0.159 A 
HETATM    5  C16 UNL     1      22.279  -0.796  54.996  1.00  0.00     0.078 A 
ENDROOT
BRANCH   1   6
HETATM    6  C7  UNL     1      20.752   0.614  53.570  1.00  0.00     0.074 C 
BRANCH   6   7
HETATM    7  C6  UNL     1      20.410   0.541  52.135  1.00  0.00     0.075 C 
BRANCH   7   8
HETATM    8  C5  UNL     1      19.235   0.025  51.814  1.00  0.00    -0.141 C 
BRANCH   8   9
HETATM    9  C4  UNL     1      17.993  -0.434  51.737  1.00  0.00     0.234 C 
BRANCH   9  10
HETATM   10  O1  UNL     1      17.471  -0.974  52.897  1.00  0.00    -0.343 OA
BRANCH  10  11
HETATM   11  C3  UNL     1      18.062  -2.020  53.569  1.00  0.00     0.132 C 
HETATM   12  C2  UNL     1      17.575  -3.245  53.682  1.00  0.00    -0.007 C 
HETATM   13  C1  UNL     1      16.290  -3.567  53.049  1.00  0.00     0.038 C 
ENDBRANCH  10  11
ENDBRANCH   9  10
ENDBRANCH   8   9
ENDBRANCH   7   8
ENDBRANCH   6   7
ENDBRANCH   1   6
BRANCH   3  14
HETATM   14  C9  UNL     1      25.612  -0.559  53.362  1.00  0.00     0.170 A 
HETATM   15  N3  UNL     1      26.541  -1.266  53.784  1.00  0.00    -0.247 NA
HETATM   16  C10 UNL     1      27.482  -0.678  52.895  1.00  0.00     0.189 A 
HETATM   17  C11 UNL     1      28.455   0.128  53.677  1.00  0.00     0.008 C 
HETATM   18  S1  UNL     1      26.539   0.393  52.109  1.00  0.00    -0.128 SA
HETATM   19  C12 UNL     1      28.425   1.432  53.780  1.00  0.00    -0.002 C 
HETATM   20  C13 UNL     1      27.326   1.995  53.039  1.00  0.00     0.068 A 
HETATM   21  C14 UNL     1      26.265   2.090  52.233  1.00  0.00     0.035 A 
ENDBRANCH   3  14
TORSDOF 7
ENDMDL
MODEL 7
REMARK VINA RESULT:      -6.3      3.808      7.566
REMARK  7 active torsions:
REMARK  status: ('A' for Active; 'I' for Inactive)
REMARK    1  A    between atoms: C3_3  and  O1_4 
REMARK    2  A    between atoms: O1_4  and  C4_5 
REMARK    3  A    between atoms: C4_5  and  C5_6 
REMARK    4  A    between atoms: C5_6  and  C6_7 
REMARK    5  A    between atoms: C6_7  and  C7_8 
REMARK    6  A    between atoms: C7_8  and  C8_9 
REMARK    7  A    between atoms: N2_11  and  C9_12 
ROOT
HETATM    1  C8  UNL     1      26.295   4.152  49.356  1.00  0.00     0.035 A 
HETATM    2  N1  UNL     1      27.548   4.176  49.093  1.00  0.00    -0.179 NA
HETATM    3  N2  UNL     1      27.920   5.433  48.592  1.00  0.00    -0.247 N 
HETATM    4  C15 UNL     1      26.762   6.335  48.629  1.00  0.00     0.159 A 
HETATM    5  C16 UNL     1      25.650   5.437  49.052  1.00  0.00     0.078 A 
ENDROOT
BRANCH   1   6
HETATM    6  C7  UNL     1      25.427   3.074  49.898  1.00  0.00     0.074 C 
BRANCH   6   7
HETATM    7  C6  UNL     1      25.710   2.853  51.330  1.00  0.00     0.075 C 
BRANCH   7   8
HETATM    8  C5  UNL     1      26.076   1.636  51.698  1.00  0.00    -0.141 C 
BRANCH   8   9
HETATM    9  C4  UNL     1      26.590   0.423  51.854  1.00  0.00     0.234 C 
BRANCH   9  10
HETATM   10  O1  UNL     1      27.253   0.191  53.044  1.00  0.00    -0.343 OA
BRANCH  10  11
HETATM   11  C3  UNL     1      28.379   0.886  53.422  1.00  0.00     0.132 C 
HETATM   12  C2  UNL     1      29.564   0.361  53.689  1.00  0.00    -0.007 C 
HETATM   13  C1  UNL     1      29.743  -1.093  53.584  1.00  0.00     0.038 C 
ENDBRANCH  10  11
ENDBRANCH   9  10
ENDBRANCH   8   9
ENDBRANCH   7   8
ENDBRANCH   6   7
ENDBRANCH   1   6
BRANCH   3  14
HETATM   14  C9  UNL     1      29.233   5.789  48.115  1.00  0.00     0.170 A 
HETATM   15  N3  UNL     1      30.229   5.064  47.966  1.00  0.00    -0.247 NA
HETATM   16  C10 UNL     1      31.026   6.140  47.491  1.00  0.00     0.189 A 
HETATM   17  C11 UNL     1      32.072   6.454  48.499  1.00  0.00     0.008 C 
HETATM   18  S1  UNL     1      29.959   7.369  47.554  1.00  0.00    -0.128 SA
HETATM   19  C12 UNL     1      32.021   7.460  49.333  1.00  0.00    -0.002 C 
HETATM   20  C13 UNL     1      30.818   8.232  49.156  1.00  0.00     0.068 A 
HETATM   21  C14 UNL     1      29.657   8.661  48.655  1.00  0.00     0.035 A 
ENDBRANCH   3  14
TORSDOF 7
ENDMDL
MODEL 8
REMARK VINA RESULT:      -6.3      4.173      7.821
REMARK  7 active torsions:
REMARK  status: ('A' for Active; 'I' for Inactive)
REMARK    1  A    between atoms: C3_3  and  O1_4 
REMARK    2  A    between atoms: O1_4  and  C4_5 
REMARK    3  A    between atoms: C4_5  and  C5_6 
REMARK    4  A    between atoms: C5_6  and  C6_7 
REMARK    5  A    between atoms: C6_7  and  C7_8 
REMARK    6  A    between atoms: C7_8  and  C8_9 
REMARK    7  A    between atoms: N2_11  and  C9_12 
ROOT
HETATM    1  C8  UNL     1      27.050   4.431  49.067  1.00  0.00     0.035 A 
HETATM    2  N1  UNL     1      28.214   4.790  48.674  1.00  0.00    -0.179 NA
HETATM    3  N2  UNL     1      28.230   6.161  48.376  1.00  0.00    -0.247 N 
HETATM    4  C15 UNL     1      26.926   6.749  48.710  1.00  0.00     0.159 A 
HETATM    5  C16 UNL     1      26.108   5.560  49.082  1.00  0.00     0.078 A 
ENDROOT
BRANCH   1   6
HETATM    6  C7  UNL     1      26.523   3.108  49.494  1.00  0.00     0.074 C 
BRANCH   6   7
HETATM    7  C6  UNL     1      26.493   3.015  50.967  1.00  0.00     0.075 C 
BRANCH   7   8
HETATM    8  C5  UNL     1      26.521   1.805  51.502  1.00  0.00    -0.141 C 
BRANCH   8   9
HETATM    9  C4  UNL     1      26.728   0.544  51.857  1.00  0.00     0.234 C 
BRANCH   9  10
HETATM   10  O1  UNL     1      27.262   0.346  53.116  1.00  0.00    -0.343 OA
BRANCH  10  11
HETATM   11  C3  UNL     1      28.509   0.798  53.481  1.00  0.00     0.132 C 
HETATM   12  C2  UNL     1      29.585   0.049  53.662  1.00  0.00    -0.007 C 
HETATM   13  C1  UNL     1      29.489  -1.403  53.467  1.00  0.00     0.038 C 
ENDBRANCH  10  11
ENDBRANCH   9  10
ENDBRANCH   8   9
ENDBRANCH   7   8
ENDBRANCH   6   7
ENDBRANCH   1   6
BRANCH   3  14
HETATM   14  C9  UNL     1      29.349   6.887  47.827  1.00  0.00     0.170 A 
HETATM   15  N3  UNL     1      29.448   7.441  46.721  1.00  0.00    -0.247 NA
HETATM   16  C10 UNL     1      30.774   7.878  46.984  1.00  0.00     0.189 A 
HETATM   17  C11 UNL     1      31.715   7.143  46.100  1.00  0.00     0.008 C 
HETATM   18  S1  UNL     1      31.007   7.283  48.482  1.00  0.00    -0.128 SA
HETATM   19  C12 UNL     1      32.459   6.136  46.481  1.00  0.00    -0.002 C 
HETATM   20  C13 UNL     1      32.253   5.826  47.872  1.00  0.00     0.068 A 
HETATM   21  C14 UNL     1      31.809   5.901  49.130  1.00  0.00     0.035 A 
ENDBRANCH   3  14
TORSDOF 7
ENDMDL
MODEL 9
REMARK VINA RESULT:      -6.0      2.051      2.839
REMARK  7 active torsions:
REMARK  status: ('A' for Active; 'I' for Inactive)
REMARK    1  A    between atoms: C3_3  and  O1_4 
REMARK    2  A    between atoms: O1_4  and  C4_5 
REMARK    3  A    between atoms: C4_5  and  C5_6 
REMARK    4  A    between atoms: C5_6  and  C6_7 
REMARK    5  A    between atoms: C6_7  and  C7_8 
REMARK    6  A    between atoms: C7_8  and  C8_9 
REMARK    7  A    between atoms: N2_11  and  C9_12 
ROOT
HETATM    1  C8  UNL     1      24.412   2.470  50.410  1.00  0.00     0.035 A 
HETATM    2  N1  UNL     1      24.937   2.010  51.484  1.00  0.00    -0.179 NA
HETATM    3  N2  UNL     1      26.284   2.393  51.573  1.00  0.00    -0.247 N 
HETATM    4  C15 UNL     1      26.616   3.279  50.450  1.00  0.00     0.159 A 
HETATM    5  C16 UNL     1      25.378   3.246  49.620  1.00  0.00     0.078 A 
ENDROOT
BRANCH   1   6
HETATM    6  C7  UNL     1      23.036   2.347  49.861  1.00  0.00     0.074 C 
BRANCH   6   7
HETATM    7  C6  UNL     1      22.842   3.287  48.738  1.00  0.00     0.075 C 
BRANCH   7   8
HETATM    8  C5  UNL     1      22.058   4.332  48.947  1.00  0.00    -0.141 C 
BRANCH   8   9
HETATM    9  C4  UNL     1      21.484   5.518  49.093  1.00  0.00     0.234 C 
BRANCH   9  10
HETATM   10  O1  UNL     1      21.873   6.251  50.198  1.00  0.00    -0.343 OA
BRANCH  10  11
HETATM   11  C3  UNL     1      23.179   6.610  50.437  1.00  0.00     0.132 C 
HETATM   12  C2  UNL     1      23.941   6.164  51.423  1.00  0.00    -0.007 C 
HETATM   13  C1  UNL     1      23.384   5.195  52.376  1.00  0.00     0.038 C 
ENDBRANCH  10  11
ENDBRANCH   9  10
ENDBRANCH   8   9
ENDBRANCH   7   8
ENDBRANCH   6   7
ENDBRANCH   1   6
BRANCH   3  14
HETATM   14  C9  UNL     1      27.205   1.985  52.605  1.00  0.00     0.170 A 
HETATM   15  N3  UNL     1      28.372   2.359  52.797  1.00  0.00    -0.247 NA
HETATM   16  C10 UNL     1      28.525   1.520  53.934  1.00  0.00     0.189 A 
HETATM   17  C11 UNL     1      29.494   0.439  53.615  1.00  0.00     0.008 C 
HETATM   18  S1  UNL     1      27.061   0.809  53.996  1.00  0.00    -0.128 SA
HETATM   19  C12 UNL     1      29.162  -0.792  53.321  1.00  0.00    -0.002 C 
HETATM   20  C13 UNL     1      27.733  -0.972  53.343  1.00  0.00     0.068 A 
HETATM   21  C14 UNL     1      26.431  -0.719  53.506  1.00  0.00     0.035 A 
ENDBRANCH   3  14
TORSDOF 7
ENDMDL
