MODEL 1
REMARK VINA RESULT:      -6.8      0.000      0.000
REMARK  5 active torsions:
REMARK  status: ('A' for Active; 'I' for Inactive)
REMARK    1  A    between atoms: C2_2  and  C3_3 
REMARK    2  A    between atoms: C11_13  and  O2_14 
REMARK    3  A    between atoms: O2_14  and  C12_15 
REMARK    4  A    between atoms: C12_15  and  C13_16 
REMARK    5  A    between atoms: C13_16  and  O3_17 
ROOT
HETATM    1  C3  UNL     1      24.887   1.449  53.349  1.00  0.00     0.064 C 
HETATM    2  C4  UNL     1      24.568   2.955  53.317  1.00  0.00     0.011 C 
HETATM    3  C5  UNL     1      24.091   3.256  52.089  1.00  0.00     0.011 C 
HETATM    4  C6  UNL     1      24.159   4.585  51.427  1.00  0.00     0.068 C 
HETATM    5  N1  UNL     1      23.447   2.267  51.313  1.00  0.00    -0.310 N 
HETATM    6  C7  UNL     1      23.179   0.902  51.613  1.00  0.00     0.104 C 
HETATM    7  C8  UNL     1      23.663   0.810  52.822  1.00  0.00    -0.029 C 
HETATM    8  C9  UNL     1      22.558  -0.007  53.414  1.00  0.00     0.212 C 
HETATM    9  O1  UNL     1      21.424   0.876  53.517  1.00  0.00    -0.348 OA
HETATM   10  C10 UNL     1      20.615   1.243  52.447  1.00  0.00     0.082 C 
HETATM   11  C11 UNL     1      20.031   0.913  51.252  1.00  0.00     0.105 C 
HETATM   12  C15 UNL     1      20.464   1.800  50.091  1.00  0.00     0.205 C 
HETATM   13  N2  UNL     1      21.020   1.005  49.023  1.00  0.00    -0.266 NA
HETATM   14  C16 UNL     1      21.760   1.537  48.106  1.00  0.00     0.230 C 
HETATM   15  N3  UNL     1      22.755   2.297  48.821  1.00  0.00    -0.224 NA
HETATM   16  C17 UNL     1      22.806   2.365  50.064  1.00  0.00     0.144 C 
HETATM   17  C18 UNL     1      21.496   2.743  50.684  1.00  0.00     0.016 C 
HETATM   18  C19 UNL     1      20.721   3.465  51.527  1.00  0.00    -0.007 C 
HETATM   19  C20 UNL     1      20.136   2.661  52.668  1.00  0.00     0.095 C 
ENDROOT
BRANCH  11  20
HETATM   20  O2  UNL     1      19.156  -0.159  51.299  1.00  0.00    -0.348 OA
BRANCH  20  21
HETATM   21  C12 UNL     1      17.763  -0.045  51.271  1.00  0.00     0.201 C 
BRANCH  21  22
HETATM   22  C13 UNL     1      17.081  -0.560  52.491  1.00  0.00     0.193 C 
BRANCH  22  23
HETATM   23  O3  UNL     1      17.948  -1.126  53.405  1.00  0.00    -0.394 OA
HETATM   24  C14 UNL     1      17.796  -2.479  53.594  1.00  0.00     0.201 C 
ENDBRANCH  22  23
ENDBRANCH  21  22
ENDBRANCH  20  21
ENDBRANCH  11  20
BRANCH   1  25
HETATM   25  C2  UNL     1      26.054   1.230  52.495  1.00  0.00    -0.024 C 
HETATM   26  C1  UNL     1      26.753   0.248  51.937  1.00  0.00     0.008 C 
ENDBRANCH   1  25
TORSDOF 5
ENDMDL
MODEL 2
REMARK VINA RESULT:      -6.8      3.491      6.246
REMARK  5 active torsions:
REMARK  status: ('A' for Active; 'I' for Inactive)
REMARK    1  A    between atoms: C2_2  and  C3_3 
REMARK    2  A    between atoms: C11_13  and  O2_14 
REMARK    3  A    between atoms: O2_14  and  C12_15 
REMARK    4  A    between atoms: C12_15  and  C13_16 
REMARK    5  A    between atoms: C13_16  and  O3_17 
ROOT
HETATM    1  C3  UNL     1      24.779   5.189  49.325  1.00  0.00     0.064 C 
HETATM    2  C4  UNL     1      24.577   5.828  50.710  1.00  0.00     0.011 C 
HETATM    3  C5  UNL     1      23.756   5.029  51.425  1.00  0.00     0.011 C 
HETATM    4  C6  UNL     1      22.875   5.456  52.543  1.00  0.00     0.068 C 
HETATM    5  N1  UNL     1      23.686   3.646  51.145  1.00  0.00    -0.310 N 
HETATM    6  C7  UNL     1      24.385   2.874  50.175  1.00  0.00     0.104 C 
HETATM    7  C8  UNL     1      25.139   3.787  49.624  1.00  0.00    -0.029 C 
HETATM    8  C9  UNL     1      26.393   2.975  49.534  1.00  0.00     0.212 C 
HETATM    9  O1  UNL     1      26.874   2.839  50.886  1.00  0.00    -0.348 OA
HETATM   10  C10 UNL     1      26.342   1.960  51.823  1.00  0.00     0.082 C 
HETATM   11  C11 UNL     1      25.748   0.756  52.096  1.00  0.00     0.105 C 
HETATM   12  C15 UNL     1      24.367   0.881  52.728  1.00  0.00     0.205 C 
HETATM   13  N2  UNL     1      23.381   0.181  51.941  1.00  0.00    -0.266 NA
HETATM   14  C16 UNL     1      22.119   0.429  52.071  1.00  0.00     0.230 C 
HETATM   15  N3  UNL     1      22.006   1.863  51.973  1.00  0.00    -0.224 NA
HETATM   16  C17 UNL     1      22.980   2.619  51.799  1.00  0.00     0.144 C 
HETATM   17  C18 UNL     1      24.092   2.375  52.772  1.00  0.00     0.016 C 
HETATM   18  C19 UNL     1      25.025   2.775  53.666  1.00  0.00    -0.007 C 
HETATM   19  C20 UNL     1      26.452   2.592  53.194  1.00  0.00     0.095 C 
ENDROOT
BRANCH  11  20
HETATM   20  O2  UNL     1      26.493  -0.360  51.755  1.00  0.00    -0.348 OA
BRANCH  20  21
HETATM   21  C12 UNL     1      26.935  -1.324  52.665  1.00  0.00     0.201 C 
BRANCH  21  22
HETATM   22  C13 UNL     1      27.832  -0.797  53.732  1.00  0.00     0.193 C 
BRANCH  22  23
HETATM   23  O3  UNL     1      29.025  -1.485  53.831  1.00  0.00    -0.394 OA
HETATM   24  C14 UNL     1      30.157  -0.712  53.723  1.00  0.00     0.201 C 
ENDBRANCH  22  23
ENDBRANCH  21  22
ENDBRANCH  20  21
ENDBRANCH  11  20
BRANCH   1  25
HETATM   25  C2  UNL     1      23.515   5.306  48.599  1.00  0.00    -0.024 C 
HETATM   26  C1  UNL     1      23.002   5.855  47.503  1.00  0.00     0.008 C 
ENDBRANCH   1  25
TORSDOF 5
ENDMDL
MODEL 3
REMARK VINA RESULT:      -6.5     10.096     12.978
REMARK  5 active torsions:
REMARK  status: ('A' for Active; 'I' for Inactive)
REMARK    1  A    between atoms: C2_2  and  C3_3 
REMARK    2  A    between atoms: C11_13  and  O2_14 
REMARK    3  A    between atoms: O2_14  and  C12_15 
REMARK    4  A    between atoms: C12_15  and  C13_16 
REMARK    5  A    between atoms: C13_16  and  O3_17 
ROOT
HETATM    1  C3  UNL     1      32.949   3.042  47.773  1.00  0.00     0.064 C 
HETATM    2  C4  UNL     1      34.367   3.351  47.261  1.00  0.00     0.011 C 
HETATM    3  C5  UNL     1      34.261   4.211  46.225  1.00  0.00     0.011 C 
HETATM    4  C6  UNL     1      35.236   4.368  45.115  1.00  0.00     0.068 C 
HETATM    5  N1  UNL     1      33.151   5.080  46.132  1.00  0.00    -0.310 N 
HETATM    6  C7  UNL     1      32.036   5.234  47.004  1.00  0.00     0.104 C 
HETATM    7  C8  UNL     1      32.328   4.373  47.939  1.00  0.00    -0.029 C 
HETATM    8  C9  UNL     1      31.935   5.216  49.111  1.00  0.00     0.212 C 
HETATM    9  O1  UNL     1      32.935   6.249  49.209  1.00  0.00    -0.348 OA
HETATM   10  C10 UNL     1      32.990   7.370  48.388  1.00  0.00     0.082 C 
HETATM   11  C11 UNL     1      32.327   8.321  47.658  1.00  0.00     0.105 C 
HETATM   12  C15 UNL     1      32.665   8.301  46.172  1.00  0.00     0.205 C 
HETATM   13  N2  UNL     1      31.471   8.137  45.379  1.00  0.00    -0.266 NA
HETATM   14  C16 UNL     1      31.531   7.746  44.149  1.00  0.00     0.230 C 
HETATM   15  N3  UNL     1      32.362   6.568  44.169  1.00  0.00    -0.224 NA
HETATM   16  C17 UNL     1      32.871   6.103  45.206  1.00  0.00     0.144 C 
HETATM   17  C18 UNL     1      33.616   7.128  46.004  1.00  0.00     0.016 C 
HETATM   18  C19 UNL     1      34.690   7.575  46.696  1.00  0.00    -0.007 C 
HETATM   19  C20 UNL     1      34.441   7.745  48.179  1.00  0.00     0.095 C 
ENDROOT
BRANCH  11  20
HETATM   20  O2  UNL     1      31.470   9.130  48.383  1.00  0.00    -0.348 OA
BRANCH  20  21
HETATM   21  C12 UNL     1      30.358   8.669  49.094  1.00  0.00     0.201 C 
BRANCH  21  22
HETATM   22  C13 UNL     1      29.249   8.164  48.239  1.00  0.00     0.193 C 
BRANCH  22  23
HETATM   23  O3  UNL     1      29.011   6.812  48.394  1.00  0.00    -0.394 OA
HETATM   24  C14 UNL     1      27.688   6.441  48.340  1.00  0.00     0.201 C 
ENDBRANCH  22  23
ENDBRANCH  21  22
ENDBRANCH  20  21
ENDBRANCH  11  20
BRANCH   1  25
HETATM   25  C2  UNL     1      32.283   2.229  46.755  1.00  0.00    -0.024 C 
HETATM   26  C1  UNL     1      31.921   0.974  46.512  1.00  0.00     0.008 C 
ENDBRANCH   1  25
TORSDOF 5
ENDMDL
MODEL 4
REMARK VINA RESULT:      -6.5     10.560     12.766
REMARK  5 active torsions:
REMARK  status: ('A' for Active; 'I' for Inactive)
REMARK    1  A    between atoms: C2_2  and  C3_3 
REMARK    2  A    between atoms: C11_13  and  O2_14 
REMARK    3  A    between atoms: O2_14  and  C12_15 
REMARK    4  A    between atoms: C12_15  and  C13_16 
REMARK    5  A    between atoms: C13_16  and  O3_17 
ROOT
HETATM    1  C3  UNL     1      34.216   3.727  47.439  1.00  0.00     0.064 C 
HETATM    2  C4  UNL     1      34.839   4.595  48.546  1.00  0.00     0.011 C 
HETATM    3  C5  UNL     1      34.841   5.878  48.122  1.00  0.00     0.011 C 
HETATM    4  C6  UNL     1      35.777   6.944  48.566  1.00  0.00     0.068 C 
HETATM    5  N1  UNL     1      33.887   6.318  47.178  1.00  0.00    -0.310 N 
HETATM    6  C7  UNL     1      32.831   5.603  46.546  1.00  0.00     0.104 C 
HETATM    7  C8  UNL     1      32.959   4.427  47.097  1.00  0.00    -0.029 C 
HETATM    8  C9  UNL     1      31.504   4.155  47.318  1.00  0.00     0.212 C 
HETATM    9  O1  UNL     1      31.094   5.037  48.381  1.00  0.00    -0.348 OA
HETATM   10  C10 UNL     1      30.842   6.395  48.221  1.00  0.00     0.082 C 
HETATM   11  C11 UNL     1      30.389   7.418  47.429  1.00  0.00     0.105 C 
HETATM   12  C15 UNL     1      31.444   8.473  47.123  1.00  0.00     0.205 C 
HETATM   13  N2  UNL     1      31.609   8.631  45.698  1.00  0.00    -0.266 NA
HETATM   14  C16 UNL     1      32.662   9.192  45.202  1.00  0.00     0.230 C 
HETATM   15  N3  UNL     1      33.774   8.521  45.828  1.00  0.00    -0.224 NA
HETATM   16  C17 UNL     1      33.644   7.604  46.661  1.00  0.00     0.144 C 
HETATM   17  C18 UNL     1      32.713   7.958  47.780  1.00  0.00     0.016 C 
HETATM   18  C19 UNL     1      32.370   8.042  49.086  1.00  0.00    -0.007 C 
HETATM   19  C20 UNL     1      31.244   7.115  49.490  1.00  0.00     0.095 C 
ENDROOT
BRANCH  11  20
HETATM   20  O2  UNL     1      29.062   7.321  47.044  1.00  0.00    -0.348 OA
BRANCH  20  21
HETATM   21  C12 UNL     1      28.063   8.225  47.417  1.00  0.00     0.201 C 
BRANCH  21  22
HETATM   22  C13 UNL     1      27.670   8.149  48.852  1.00  0.00     0.193 C 
BRANCH  22  23
HETATM   23  O3  UNL     1      28.317   9.075  49.645  1.00  0.00    -0.394 OA
HETATM   24  C14 UNL     1      28.576  10.283  49.040  1.00  0.00     0.201 C 
ENDBRANCH  22  23
ENDBRANCH  21  22
ENDBRANCH  20  21
ENDBRANCH  11  20
BRANCH   1  25
HETATM   25  C2  UNL     1      35.164   3.689  46.325  1.00  0.00    -0.024 C 
HETATM   26  C1  UNL     1      35.201   3.763  45.000  1.00  0.00     0.008 C 
ENDBRANCH   1  25
TORSDOF 5
ENDMDL
MODEL 5
REMARK VINA RESULT:      -6.3      2.940      5.972
REMARK  5 active torsions:
REMARK  status: ('A' for Active; 'I' for Inactive)
REMARK    1  A    between atoms: C2_2  and  C3_3 
REMARK    2  A    between atoms: C11_13  and  O2_14 
REMARK    3  A    between atoms: O2_14  and  C12_15 
REMARK    4  A    between atoms: C12_15  and  C13_16 
REMARK    5  A    between atoms: C13_16  and  O3_17 
ROOT
HETATM    1  C3  UNL     1      22.800   4.612  47.749  1.00  0.00     0.064 C 
HETATM    2  C4  UNL     1      21.760   5.401  48.564  1.00  0.00     0.011 C 
HETATM    3  C5  UNL     1      21.095   4.529  49.352  1.00  0.00     0.011 C 
HETATM    4  C6  UNL     1      19.716   4.704  49.878  1.00  0.00     0.068 C 
HETATM    5  N1  UNL     1      21.710   3.326  49.761  1.00  0.00    -0.310 N 
HETATM    6  C7  UNL     1      23.012   2.824  49.480  1.00  0.00     0.104 C 
HETATM    7  C8  UNL     1      23.505   3.795  48.760  1.00  0.00    -0.029 C 
HETATM    8  C9  UNL     1      24.869   3.821  49.375  1.00  0.00     0.212 C 
HETATM    9  O1  UNL     1      24.697   4.368  50.697  1.00  0.00    -0.348 OA
HETATM   10  C10 UNL     1      24.193   3.657  51.782  1.00  0.00     0.082 C 
HETATM   11  C11 UNL     1      24.068   2.465  52.445  1.00  0.00     0.105 C 
HETATM   12  C15 UNL     1      22.628   1.987  52.585  1.00  0.00     0.205 C 
HETATM   13  N2  UNL     1      22.471   0.670  52.019  1.00  0.00    -0.266 NA
HETATM   14  C16 UNL     1      21.304   0.209  51.706  1.00  0.00     0.230 C 
HETATM   15  N3  UNL     1      20.693   1.243  50.909  1.00  0.00    -0.224 NA
HETATM   16  C17 UNL     1      21.253   2.321  50.635  1.00  0.00     0.144 C 
HETATM   17  C18 UNL     1      21.800   3.020  51.841  1.00  0.00     0.016 C 
HETATM   18  C19 UNL     1      21.985   4.105  52.629  1.00  0.00    -0.007 C 
HETATM   19  C20 UNL     1      23.412   4.608  52.662  1.00  0.00     0.095 C 
ENDROOT
BRANCH  11  20
HETATM   20  O2  UNL     1      25.258   1.900  52.871  1.00  0.00    -0.348 OA
BRANCH  20  21
HETATM   21  C12 UNL     1      26.507   2.159  52.299  1.00  0.00     0.201 C 
BRANCH  21  22
HETATM   22  C13 UNL     1      27.649   2.078  53.252  1.00  0.00     0.193 C 
BRANCH  22  23
HETATM   23  O3  UNL     1      27.314   1.490  54.456  1.00  0.00    -0.394 OA
HETATM   24  C14 UNL     1      27.929   0.287  54.710  1.00  0.00     0.201 C 
ENDBRANCH  22  23
ENDBRANCH  21  22
ENDBRANCH  20  21
ENDBRANCH  11  20
BRANCH   1  25
HETATM   25  C2  UNL     1      22.070   3.800  46.775  1.00  0.00    -0.024 C 
HETATM   26  C1  UNL     1      21.454   3.903  45.603  1.00  0.00     0.008 C 
ENDBRANCH   1  25
TORSDOF 5
ENDMDL
MODEL 6
REMARK VINA RESULT:      -6.2      2.870      4.989
REMARK  5 active torsions:
REMARK  status: ('A' for Active; 'I' for Inactive)
REMARK    1  A    between atoms: C2_2  and  C3_3 
REMARK    2  A    between atoms: C11_13  and  O2_14 
REMARK    3  A    between atoms: O2_14  and  C12_15 
REMARK    4  A    between atoms: C12_15  and  C13_16 
REMARK    5  A    between atoms: C13_16  and  O3_17 
ROOT
HETATM    1  C3  UNL     1      26.240   6.059  49.220  1.00  0.00     0.064 C 
HETATM    2  C4  UNL     1      25.662   6.995  50.296  1.00  0.00     0.011 C 
HETATM    3  C5  UNL     1      24.316   6.885  50.267  1.00  0.00     0.011 C 
HETATM    4  C6  UNL     1      23.345   7.923  50.701  1.00  0.00     0.068 C 
HETATM    5  N1  UNL     1      23.707   5.697  49.805  1.00  0.00    -0.310 N 
HETATM    6  C7  UNL     1      24.299   4.492  49.332  1.00  0.00     0.104 C 
HETATM    7  C8  UNL     1      25.568   4.766  49.468  1.00  0.00    -0.029 C 
HETATM    8  C9  UNL     1      25.996   3.440  50.016  1.00  0.00     0.212 C 
HETATM    9  O1  UNL     1      25.467   3.377  51.355  1.00  0.00    -0.348 OA
HETATM   10  C10 UNL     1      24.139   3.105  51.663  1.00  0.00     0.082 C 
HETATM   11  C11 UNL     1      22.976   2.448  51.358  1.00  0.00     0.105 C 
HETATM   12  C15 UNL     1      21.803   3.375  51.068  1.00  0.00     0.205 C 
HETATM   13  N2  UNL     1      21.253   3.108  49.761  1.00  0.00    -0.266 NA
HETATM   14  C16 UNL     1      20.503   3.972  49.159  1.00  0.00     0.230 C 
HETATM   15  N3  UNL     1      21.235   5.212  49.220  1.00  0.00    -0.224 NA
HETATM   16  C17 UNL     1      22.350   5.327  49.763  1.00  0.00     0.144 C 
HETATM   17  C18 UNL     1      22.382   4.777  51.156  1.00  0.00     0.016 C 
HETATM   18  C19 UNL     1      22.682   4.841  52.474  1.00  0.00    -0.007 C 
HETATM   19  C20 UNL     1      23.764   3.877  52.910  1.00  0.00     0.095 C 
ENDROOT
BRANCH  11  20
HETATM   20  O2  UNL     1      23.061   1.066  51.364  1.00  0.00    -0.348 OA
BRANCH  20  21
HETATM   21  C12 UNL     1      22.525   0.244  52.360  1.00  0.00     0.201 C 
BRANCH  21  22
HETATM   22  C13 UNL     1      23.498  -0.159  53.413  1.00  0.00     0.193 C 
BRANCH  22  23
HETATM   23  O3  UNL     1      24.810  -0.135  52.983  1.00  0.00    -0.394 OA
HETATM   24  C14 UNL     1      25.689   0.508  53.822  1.00  0.00     0.201 C 
ENDBRANCH  22  23
ENDBRANCH  21  22
ENDBRANCH  20  21
ENDBRANCH  11  20
BRANCH   1  25
HETATM   25  C2  UNL     1      25.905   6.630  47.915  1.00  0.00    -0.024 C 
HETATM   26  C1  UNL     1      25.781   7.803  47.305  1.00  0.00     0.008 C 
ENDBRANCH   1  25
TORSDOF 5
ENDMDL
MODEL 7
REMARK VINA RESULT:      -6.0      2.399      5.822
REMARK  5 active torsions:
REMARK  status: ('A' for Active; 'I' for Inactive)
REMARK    1  A    between atoms: C2_2  and  C3_3 
REMARK    2  A    between atoms: C11_13  and  O2_14 
REMARK    3  A    between atoms: O2_14  and  C12_15 
REMARK    4  A    between atoms: C12_15  and  C13_16 
REMARK    5  A    between atoms: C13_16  and  O3_17 
ROOT
HETATM    1  C3  UNL     1      17.443   2.657  51.032  1.00  0.00     0.064 C 
HETATM    2  C4  UNL     1      17.881   3.095  49.623  1.00  0.00     0.011 C 
HETATM    3  C5  UNL     1      18.993   3.851  49.745  1.00  0.00     0.011 C 
HETATM    4  C6  UNL     1      19.449   4.895  48.791  1.00  0.00     0.068 C 
HETATM    5  N1  UNL     1      19.855   3.677  50.851  1.00  0.00    -0.310 N 
HETATM    6  C7  UNL     1      19.764   2.773  51.946  1.00  0.00     0.104 C 
HETATM    7  C8  UNL     1      18.677   2.117  51.641  1.00  0.00    -0.029 C 
HETATM    8  C9  UNL     1      19.166   0.750  52.005  1.00  0.00     0.212 C 
HETATM    9  O1  UNL     1      20.130   0.393  50.996  1.00  0.00    -0.348 OA
HETATM   10  C10 UNL     1      21.434   0.874  50.950  1.00  0.00     0.082 C 
HETATM   11  C11 UNL     1      22.550   1.300  51.621  1.00  0.00     0.105 C 
HETATM   12  C15 UNL     1      22.940   2.741  51.314  1.00  0.00     0.205 C 
HETATM   13  N2  UNL     1      23.002   3.522  52.525  1.00  0.00    -0.266 NA
HETATM   14  C16 UNL     1      22.965   4.814  52.493  1.00  0.00     0.230 C 
HETATM   15  N3  UNL     1      21.826   5.137  51.669  1.00  0.00    -0.224 NA
HETATM   16  C17 UNL     1      21.093   4.279  51.143  1.00  0.00     0.144 C 
HETATM   17  C18 UNL     1      21.859   3.246  50.374  1.00  0.00     0.016 C 
HETATM   18  C19 UNL     1      22.096   2.481  49.284  1.00  0.00    -0.007 C 
HETATM   19  C20 UNL     1      21.851   1.003  49.502  1.00  0.00     0.095 C 
ENDROOT
BRANCH  11  20
HETATM   20  O2  UNL     1      23.129   0.361  52.458  1.00  0.00    -0.348 OA
BRANCH  20  21
HETATM   21  C12 UNL     1      24.460   0.395  52.884  1.00  0.00     0.201 C 
BRANCH  21  22
HETATM   22  C13 UNL     1      24.779  -0.565  53.978  1.00  0.00     0.193 C 
BRANCH  22  23
HETATM   23  O3  UNL     1      26.101  -0.964  53.985  1.00  0.00    -0.394 OA
HETATM   24  C14 UNL     1      26.604  -1.343  52.763  1.00  0.00     0.201 C 
ENDBRANCH  22  23
ENDBRANCH  21  22
ENDBRANCH  20  21
ENDBRANCH  11  20
BRANCH   1  25
HETATM   25  C2  UNL     1      16.943   3.845  51.724  1.00  0.00    -0.024 C 
HETATM   26  C1  UNL     1      15.885   4.273  52.404  1.00  0.00     0.008 C 
ENDBRANCH   1  25
TORSDOF 5
ENDMDL
MODEL 8
REMARK VINA RESULT:      -5.9      9.582     12.110
REMARK  5 active torsions:
REMARK  status: ('A' for Active; 'I' for Inactive)
REMARK    1  A    between atoms: C2_2  and  C3_3 
REMARK    2  A    between atoms: C11_13  and  O2_14 
REMARK    3  A    between atoms: O2_14  and  C12_15 
REMARK    4  A    between atoms: C12_15  and  C13_16 
REMARK    5  A    between atoms: C13_16  and  O3_17 
ROOT
HETATM    1  C3  UNL     1      33.155   4.507  47.797  1.00  0.00     0.064 C 
HETATM    2  C4  UNL     1      33.948   5.533  48.626  1.00  0.00     0.011 C 
HETATM    3  C5  UNL     1      34.016   6.681  47.917  1.00  0.00     0.011 C 
HETATM    4  C6  UNL     1      35.073   7.719  48.034  1.00  0.00     0.068 C 
HETATM    5  N1  UNL     1      33.017   6.993  46.969  1.00  0.00    -0.310 N 
HETATM    6  C7  UNL     1      31.852   6.266  46.597  1.00  0.00     0.104 C 
HETATM    7  C8  UNL     1      31.933   5.236  47.394  1.00  0.00    -0.029 C 
HETATM    8  C9  UNL     1      30.488   5.169  47.777  1.00  0.00     0.212 C 
HETATM    9  O1  UNL     1      30.253   6.304  48.633  1.00  0.00    -0.348 OA
HETATM   10  C10 UNL     1      30.100   7.610  48.182  1.00  0.00     0.082 C 
HETATM   11  C11 UNL     1      29.660   8.471  47.210  1.00  0.00     0.105 C 
HETATM   12  C15 UNL     1      30.766   9.318  46.593  1.00  0.00     0.205 C 
HETATM   13  N2  UNL     1      30.809   9.136  45.162  1.00  0.00    -0.266 NA
HETATM   14  C16 UNL     1      31.854   9.462  44.475  1.00  0.00     0.230 C 
HETATM   15  N3  UNL     1      32.961   8.838  45.157  1.00  0.00    -0.224 NA
HETATM   16  C17 UNL     1      32.834   8.149  46.187  1.00  0.00     0.144 C 
HETATM   17  C18 UNL     1      32.044   8.837  47.258  1.00  0.00     0.016 C 
HETATM   18  C19 UNL     1      31.833   9.245  48.531  1.00  0.00    -0.007 C 
HETATM   19  C20 UNL     1      30.677   8.550  49.218  1.00  0.00     0.095 C 
ENDROOT
BRANCH  11  20
HETATM   20  O2  UNL     1      28.300   8.426  46.955  1.00  0.00    -0.348 OA
BRANCH  20  21
HETATM   21  C12 UNL     1      27.310   8.406  47.941  1.00  0.00     0.201 C 
BRANCH  21  22
HETATM   22  C13 UNL     1      26.519   7.145  47.993  1.00  0.00     0.193 C 
BRANCH  22  23
HETATM   23  O3  UNL     1      26.800   6.370  49.101  1.00  0.00    -0.394 OA
HETATM   24  C14 UNL     1      26.945   5.025  48.852  1.00  0.00     0.201 C 
ENDBRANCH  22  23
ENDBRANCH  21  22
ENDBRANCH  20  21
ENDBRANCH  11  20
BRANCH   1  25
HETATM   25  C2  UNL     1      33.988   4.125  46.657  1.00  0.00    -0.024 C 
HETATM   26  C1  UNL     1      35.069   3.411  46.364  1.00  0.00     0.008 C 
ENDBRANCH   1  25
TORSDOF 5
ENDMDL
MODEL 9
REMARK VINA RESULT:      -5.8     10.161     13.370
REMARK  5 active torsions:
REMARK  status: ('A' for Active; 'I' for Inactive)
REMARK    1  A    between atoms: C2_2  and  C3_3 
REMARK    2  A    between atoms: C11_13  and  O2_14 
REMARK    3  A    between atoms: O2_14  and  C12_15 
REMARK    4  A    between atoms: C12_15  and  C13_16 
REMARK    5  A    between atoms: C13_16  and  O3_17 
ROOT
HETATM    1  C3  UNL     1      31.874  10.985  45.738  1.00  0.00     0.064 C 
HETATM    2  C4  UNL     1      32.099  11.342  47.218  1.00  0.00     0.011 C 
HETATM    3  C5  UNL     1      31.161  10.702  47.951  1.00  0.00     0.011 C 
HETATM    4  C6  UNL     1      30.646  11.131  49.278  1.00  0.00     0.068 C 
HETATM    5  N1  UNL     1      30.583   9.503  47.478  1.00  0.00    -0.310 N 
HETATM    6  C7  UNL     1      30.832   8.781  46.277  1.00  0.00     0.104 C 
HETATM    7  C8  UNL     1      31.769   9.511  45.735  1.00  0.00    -0.029 C 
HETATM    8  C9  UNL     1      32.643   8.390  45.266  1.00  0.00     0.212 C 
HETATM    9  O1  UNL     1      33.231   7.824  46.453  1.00  0.00    -0.348 OA
HETATM   10  C10 UNL     1      32.567   6.973  47.330  1.00  0.00     0.082 C 
HETATM   11  C11 UNL     1      31.640   5.983  47.526  1.00  0.00     0.105 C 
HETATM   12  C15 UNL     1      30.489   6.391  48.437  1.00  0.00     0.205 C 
HETATM   13  N2  UNL     1      29.223   6.217  47.767  1.00  0.00    -0.266 NA
HETATM   14  C16 UNL     1      28.154   6.809  48.189  1.00  0.00     0.230 C 
HETATM   15  N3  UNL     1      28.527   8.194  48.341  1.00  0.00    -0.224 NA
HETATM   16  C17 UNL     1      29.666   8.630  48.094  1.00  0.00     0.144 C 
HETATM   17  C18 UNL     1      30.752   7.850  48.769  1.00  0.00     0.016 C 
HETATM   18  C19 UNL     1      31.881   7.739  49.507  1.00  0.00    -0.007 C 
HETATM   19  C20 UNL     1      33.077   7.230  48.732  1.00  0.00     0.095 C 
ENDROOT
BRANCH  11  20
HETATM   20  O2  UNL     1      31.902   4.792  46.871  1.00  0.00    -0.348 OA
BRANCH  20  21
HETATM   21  C12 UNL     1      32.361   3.629  47.496  1.00  0.00     0.201 C 
BRANCH  21  22
HETATM   22  C13 UNL     1      33.439   2.918  46.753  1.00  0.00     0.193 C 
BRANCH  22  23
HETATM   23  O3  UNL     1      34.675   3.521  46.875  1.00  0.00    -0.394 OA
HETATM   24  C14 UNL     1      34.964   4.016  48.124  1.00  0.00     0.201 C 
ENDBRANCH  22  23
ENDBRANCH  21  22
ENDBRANCH  20  21
ENDBRANCH  11  20
BRANCH   1  25
HETATM   25  C2  UNL     1      30.638  11.642  45.312  1.00  0.00    -0.024 C 
HETATM   26  C1  UNL     1      29.757  11.636  44.317  1.00  0.00     0.008 C 
ENDBRANCH   1  25
TORSDOF 5
ENDMDL
