MODEL 1
REMARK VINA RESULT:      -8.9      0.000      0.000
REMARK  6 active torsions:
REMARK  status: ('A' for Active; 'I' for Inactive)
REMARK    1  A    between atoms: N2_5  and  C4_6 
REMARK    2  A    between atoms: C4_6  and  C5_7 
REMARK    3  A    between atoms: C5_7  and  C6_8 
REMARK       I    between atoms: C6_8  and  N3_10 
REMARK    4  A    between atoms: N3_10  and  C7_11 
REMARK    5  A    between atoms: C13_18  and  N5_19 
REMARK    6  A    between atoms: N5_19  and  C14_20 
ROOT
HETATM    1  C7  UNL     1      20.787   0.529  52.293  1.00  0.00     0.027 A 
HETATM    2  C8  UNL     1      19.651  -0.079  52.764  1.00  0.00     0.023 A 
HETATM    3  C9  UNL     1      20.021  -0.929  53.811  1.00  0.00    -0.011 A 
HETATM    4  C10 UNL     1      21.276  -1.142  54.306  1.00  0.00     0.033 A 
HETATM    5  C11 UNL     1      22.459  -1.020  54.403  1.00  0.00     0.088 A 
HETATM    6  C12 UNL     1      23.441  -0.902  54.465  1.00  0.00    -0.028 A 
HETATM    7  N4  UNL     1      24.679  -0.734  54.522  1.00  0.00    -0.192 NA
HETATM    8  C13 UNL     1      24.484   0.391  53.289  1.00  0.00     0.134 A 
HETATM    9  C20 UNL     1      23.119   0.630  52.632  1.00  0.00     0.043 A 
HETATM   10  C21 UNL     1      21.822  -0.045  53.159  1.00  0.00     0.060 A 
ENDROOT
BRANCH   1  11
HETATM   11  N3  UNL     1      20.633   1.431  51.226  1.00  0.00    -0.330 N 
HETATM   12  C6  UNL     1      20.336   2.741  51.646  1.00  0.00     0.223 C 
HETATM   13  O1  UNL     1      20.280   2.781  52.914  1.00  0.00    -0.273 OA
HETATM   14  H12 UNL     1      20.761   0.986  50.310  1.00  0.00     0.168 HD
BRANCH  12  15
HETATM   15  C5  UNL     1      20.166   3.721  50.509  1.00  0.00     0.122 C 
BRANCH  15  16
HETATM   16  C4  UNL     1      21.389   3.629  49.649  1.00  0.00     0.126 C 
BRANCH  16  17
HETATM   17  N2  UNL     1      22.596   4.089  50.205  1.00  0.00    -0.409 N 
HETATM   18  C3  UNL     1      22.674   5.489  50.407  1.00  0.00     0.147 C 
HETATM   19  C2  UNL     1      24.002   5.935  50.976  1.00  0.00     0.291 C 
HETATM   20  N1  UNL     1      25.104   5.380  50.268  1.00  0.00     0.087 N 
HETATM   21  C1  UNL     1      25.439   5.998  49.025  1.00  0.00     0.310 C 
HETATM   22  C23 UNL     1      25.040   3.954  50.255  1.00  0.00     0.291 C 
HETATM   23  C22 UNL     1      23.736   3.445  49.656  1.00  0.00     0.147 C 
ENDBRANCH  16  17
ENDBRANCH  15  16
ENDBRANCH  12  15
ENDBRANCH   1  11
BRANCH   8  24
HETATM   24  N5  UNL     1      25.330   1.287  52.613  1.00  0.00    -0.341 N 
HETATM   25  H15 UNL     1      24.703   1.827  51.987  1.00  0.00     0.167 HD
BRANCH  24  26
HETATM   26  C14 UNL     1      26.688   1.130  53.003  1.00  0.00     0.035 A 
HETATM   27  C15 UNL     1      27.450   2.180  53.427  1.00  0.00     0.029 A 
HETATM   28  C16 UNL     1      28.757   2.218  53.841  1.00  0.00     0.004 A 
HETATM   29  C17 UNL     1      29.305   0.949  53.785  1.00  0.00     0.019 A 
HETATM   30  C18 UNL     1      28.665  -0.176  53.384  1.00  0.00     0.013 A 
HETATM   31 BR1  UNL     1      29.490  -1.907  53.325  1.00  0.00    -0.051 Br
HETATM   32  C19 UNL     1      27.346  -0.110  52.984  1.00  0.00     0.048 A 
ENDBRANCH  24  26
ENDBRANCH   8  24
TORSDOF 6
ENDMDL
MODEL 2
REMARK VINA RESULT:      -8.6      1.143      1.655
REMARK  6 active torsions:
REMARK  status: ('A' for Active; 'I' for Inactive)
REMARK    1  A    between atoms: N2_5  and  C4_6 
REMARK    2  A    between atoms: C4_6  and  C5_7 
REMARK    3  A    between atoms: C5_7  and  C6_8 
REMARK       I    between atoms: C6_8  and  N3_10 
REMARK    4  A    between atoms: N3_10  and  C7_11 
REMARK    5  A    between atoms: C13_18  and  N5_19 
REMARK    6  A    between atoms: N5_19  and  C14_20 
ROOT
HETATM    1  C7  UNL     1      19.821   0.530  51.816  1.00  0.00     0.027 A 
HETATM    2  C8  UNL     1      18.585  -0.041  51.985  1.00  0.00     0.023 A 
HETATM    3  C9  UNL     1      18.673  -0.953  53.040  1.00  0.00    -0.011 A 
HETATM    4  C10 UNL     1      19.772  -1.251  53.794  1.00  0.00     0.033 A 
HETATM    5  C11 UNL     1      20.906  -1.193  54.161  1.00  0.00     0.088 A 
HETATM    6  C12 UNL     1      21.851  -1.127  54.450  1.00  0.00    -0.028 A 
HETATM    7  N4  UNL     1      23.050  -1.024  54.794  1.00  0.00    -0.192 NA
HETATM    8  C13 UNL     1      23.185   0.163  53.612  1.00  0.00     0.134 A 
HETATM    9  C20 UNL     1      22.017   0.498  52.678  1.00  0.00     0.043 A 
HETATM   10  C21 UNL     1      20.608  -0.133  52.861  1.00  0.00     0.060 A 
ENDROOT
BRANCH   1  11
HETATM   11  N3  UNL     1      19.950   1.484  50.793  1.00  0.00    -0.330 N 
HETATM   12  C6  UNL     1      19.796   2.808  51.246  1.00  0.00     0.223 C 
HETATM   13  O1  UNL     1      19.575   2.808  52.497  1.00  0.00    -0.273 OA
HETATM   14  H12 UNL     1      20.134   1.060  49.876  1.00  0.00     0.168 HD
BRANCH  12  15
HETATM   15  C5  UNL     1      19.931   3.845  50.155  1.00  0.00     0.122 C 
BRANCH  15  16
HETATM   16  C4  UNL     1      21.197   3.553  49.410  1.00  0.00     0.126 C 
BRANCH  16  17
HETATM   17  N2  UNL     1      22.406   3.805  50.084  1.00  0.00    -0.409 N 
HETATM   18  C3  UNL     1      22.711   5.173  50.287  1.00  0.00     0.147 C 
HETATM   19  C2  UNL     1      24.035   5.390  50.986  1.00  0.00     0.291 C 
HETATM   20  N1  UNL     1      25.085   4.633  50.395  1.00  0.00     0.087 N 
HETATM   21  C1  UNL     1      25.646   5.155  49.190  1.00  0.00     0.310 C 
HETATM   22  C23 UNL     1      24.769   3.241  50.383  1.00  0.00     0.291 C 
HETATM   23  C22 UNL     1      23.461   2.957  49.656  1.00  0.00     0.147 C 
ENDBRANCH  16  17
ENDBRANCH  15  16
ENDBRANCH  12  15
ENDBRANCH   1  11
BRANCH   8  24
HETATM   24  N5  UNL     1      24.198   1.043  53.194  1.00  0.00    -0.341 N 
HETATM   25  H15 UNL     1      23.708   1.933  52.983  1.00  0.00     0.167 HD
BRANCH  24  26
HETATM   26  C14 UNL     1      25.476   0.421  53.199  1.00  0.00     0.035 A 
HETATM   27  C15 UNL     1      25.674  -0.841  52.721  1.00  0.00     0.029 A 
HETATM   28  C16 UNL     1      26.820  -1.591  52.643  1.00  0.00     0.004 A 
HETATM   29  C17 UNL     1      27.887  -0.874  53.152  1.00  0.00     0.019 A 
HETATM   30  C18 UNL     1      27.831   0.382  53.659  1.00  0.00     0.013 A 
HETATM   31 BR1  UNL     1      29.353   1.318  54.356  1.00  0.00    -0.051 Br
HETATM   32  C19 UNL     1      26.627   1.055  53.694  1.00  0.00     0.048 A 
ENDBRANCH  24  26
ENDBRANCH   8  24
TORSDOF 6
ENDMDL
MODEL 3
REMARK VINA RESULT:      -8.4      3.412      8.111
REMARK  6 active torsions:
REMARK  status: ('A' for Active; 'I' for Inactive)
REMARK    1  A    between atoms: N2_5  and  C4_6 
REMARK    2  A    between atoms: C4_6  and  C5_7 
REMARK    3  A    between atoms: C5_7  and  C6_8 
REMARK       I    between atoms: C6_8  and  N3_10 
REMARK    4  A    between atoms: N3_10  and  C7_11 
REMARK    5  A    between atoms: C13_18  and  N5_19 
REMARK    6  A    between atoms: N5_19  and  C14_20 
ROOT
HETATM    1  C7  UNL     1      26.113   3.686  49.857  1.00  0.00     0.027 A 
HETATM    2  C8  UNL     1      27.201   3.776  49.025  1.00  0.00     0.023 A 
HETATM    3  C9  UNL     1      27.358   5.118  48.668  1.00  0.00    -0.011 A 
HETATM    4  C10 UNL     1      26.591   6.179  49.055  1.00  0.00     0.033 A 
HETATM    5  C11 UNL     1      25.708   6.755  49.614  1.00  0.00     0.088 A 
HETATM    6  C12 UNL     1      24.969   7.213  50.088  1.00  0.00    -0.028 A 
HETATM    7  N4  UNL     1      24.026   7.766  50.699  1.00  0.00    -0.192 NA
HETATM    8  C13 UNL     1      23.666   6.246  51.318  1.00  0.00     0.134 A 
HETATM    9  C20 UNL     1      24.436   4.997  50.872  1.00  0.00     0.043 A 
HETATM   10  C21 UNL     1      25.675   5.083  49.938  1.00  0.00     0.060 A 
ENDROOT
BRANCH   1  11
HETATM   11  N3  UNL     1      25.777   2.407  50.334  1.00  0.00    -0.330 N 
HETATM   12  C6  UNL     1      26.599   1.977  51.392  1.00  0.00     0.223 C 
HETATM   13  O1  UNL     1      27.458   2.874  51.658  1.00  0.00    -0.273 OA
HETATM   14  H12 UNL     1      24.986   1.991  49.830  1.00  0.00     0.168 HD
BRANCH  12  15
HETATM   15  C5  UNL     1      26.251   0.602  51.914  1.00  0.00     0.122 C 
BRANCH  15  16
HETATM   16  C4  UNL     1      25.222   0.777  52.989  1.00  0.00     0.126 C 
BRANCH  16  17
HETATM   17  N2  UNL     1      23.984   0.136  52.797  1.00  0.00    -0.409 N 
HETATM   18  C3  UNL     1      22.994   0.913  52.147  1.00  0.00     0.147 C 
HETATM   19  C2  UNL     1      21.675   0.190  51.995  1.00  0.00     0.291 C 
HETATM   20  N1  UNL     1      21.248  -0.412  53.211  1.00  0.00     0.087 N 
HETATM   21  C1  UNL     1      20.650   0.456  54.175  1.00  0.00     0.310 C 
HETATM   22  C23 UNL     1      22.235  -1.312  53.712  1.00  0.00     0.291 C 
HETATM   23  C22 UNL     1      23.579  -0.628  53.923  1.00  0.00     0.147 C 
ENDBRANCH  16  17
ENDBRANCH  15  16
ENDBRANCH  12  15
ENDBRANCH   1  11
BRANCH   8  24
HETATM   24  N5  UNL     1      22.742   5.742  52.249  1.00  0.00    -0.341 N 
HETATM   25  H15 UNL     1      23.184   5.896  53.175  1.00  0.00     0.167 HD
BRANCH  24  26
HETATM   26  C14 UNL     1      21.585   5.213  51.615  1.00  0.00     0.035 A 
HETATM   27  C15 UNL     1      20.999   4.050  52.021  1.00  0.00     0.029 A 
HETATM   28  C16 UNL     1      19.892   3.398  51.539  1.00  0.00     0.004 A 
HETATM   29  C17 UNL     1      19.357   4.103  50.477  1.00  0.00     0.019 A 
HETATM   30  C18 UNL     1      19.838   5.265  49.971  1.00  0.00     0.013 A 
HETATM   31 BR1  UNL     1      19.047   6.188  48.488  1.00  0.00    -0.051 Br
HETATM   32  C19 UNL     1      20.960   5.843  50.527  1.00  0.00     0.048 A 
ENDBRANCH  24  26
ENDBRANCH   8  24
TORSDOF 6
ENDMDL
MODEL 4
REMARK VINA RESULT:      -8.3      2.609      4.624
REMARK  6 active torsions:
REMARK  status: ('A' for Active; 'I' for Inactive)
REMARK    1  A    between atoms: N2_5  and  C4_6 
REMARK    2  A    between atoms: C4_6  and  C5_7 
REMARK    3  A    between atoms: C5_7  and  C6_8 
REMARK       I    between atoms: C6_8  and  N3_10 
REMARK    4  A    between atoms: N3_10  and  C7_11 
REMARK    5  A    between atoms: C13_18  and  N5_19 
REMARK    6  A    between atoms: N5_19  and  C14_20 
ROOT
HETATM    1  C7  UNL     1      23.324   3.081  49.162  1.00  0.00     0.027 A 
HETATM    2  C8  UNL     1      22.741   3.148  47.921  1.00  0.00     0.023 A 
HETATM    3  C9  UNL     1      21.731   2.183  47.868  1.00  0.00    -0.011 A 
HETATM    4  C10 UNL     1      21.359   1.312  48.851  1.00  0.00     0.033 A 
HETATM    5  C11 UNL     1      21.380   0.781  49.920  1.00  0.00     0.088 A 
HETATM    6  C12 UNL     1      21.414   0.355  50.814  1.00  0.00    -0.028 A 
HETATM    7  N4  UNL     1      21.480  -0.165  51.950  1.00  0.00    -0.192 NA
HETATM    8  C13 UNL     1      22.694   0.949  52.281  1.00  0.00     0.134 A 
HETATM    9  C20 UNL     1      23.216   1.909  51.205  1.00  0.00     0.043 A 
HETATM   10  C21 UNL     1      22.560   2.003  49.799  1.00  0.00     0.060 A 
ENDROOT
BRANCH   1  11
HETATM   11  N3  UNL     1      24.376   3.975  49.422  1.00  0.00    -0.330 N 
HETATM   12  C6  UNL     1      23.943   5.194  49.976  1.00  0.00     0.223 C 
HETATM   13  O1  UNL     1      22.679   5.180  50.104  1.00  0.00    -0.273 OA
HETATM   14  H12 UNL     1      25.294   3.594  49.165  1.00  0.00     0.168 HD
BRANCH  12  15
HETATM   15  C5  UNL     1      25.063   6.167  50.260  1.00  0.00     0.122 C 
BRANCH  15  16
HETATM   16  C4  UNL     1      25.907   6.256  49.025  1.00  0.00     0.126 C 
BRANCH  16  17
HETATM   17  N2  UNL     1      26.714   7.399  48.885  1.00  0.00    -0.409 N 
HETATM   18  C3  UNL     1      26.680   8.301  49.977  1.00  0.00     0.147 C 
HETATM   19  C2  UNL     1      27.539   9.527  49.761  1.00  0.00     0.291 C 
HETATM   20  N1  UNL     1      27.310  10.129  48.493  1.00  0.00     0.087 N 
HETATM   21  C1  UNL     1      26.140  10.939  48.374  1.00  0.00     0.310 C 
HETATM   22  C23 UNL     1      27.530   9.195  47.436  1.00  0.00     0.291 C 
HETATM   23  C22 UNL     1      26.661   7.953  47.579  1.00  0.00     0.147 C 
ENDBRANCH  16  17
ENDBRANCH  15  16
ENDBRANCH  12  15
ENDBRANCH   1  11
BRANCH   8  24
HETATM   24  N5  UNL     1      23.455   1.288  53.414  1.00  0.00    -0.341 N 
HETATM   25  H15 UNL     1      22.804   1.815  54.026  1.00  0.00     0.167 HD
BRANCH  24  26
HETATM   26  C14 UNL     1      24.792   0.816  53.313  1.00  0.00     0.035 A 
HETATM   27  C15 UNL     1      25.087  -0.487  53.038  1.00  0.00     0.029 A 
HETATM   28  C16 UNL     1      26.300  -1.114  52.901  1.00  0.00     0.004 A 
HETATM   29  C17 UNL     1      27.323  -0.203  53.090  1.00  0.00     0.019 A 
HETATM   30  C18 UNL     1      27.173   1.114  53.370  1.00  0.00     0.013 A 
HETATM   31 BR1  UNL     1      28.641   2.322  53.626  1.00  0.00    -0.051 Br
HETATM   32  C19 UNL     1      25.908   1.651  53.488  1.00  0.00     0.048 A 
ENDBRANCH  24  26
ENDBRANCH   8  24
TORSDOF 6
ENDMDL
MODEL 5
REMARK VINA RESULT:      -8.3      2.453      7.163
REMARK  6 active torsions:
REMARK  status: ('A' for Active; 'I' for Inactive)
REMARK    1  A    between atoms: N2_5  and  C4_6 
REMARK    2  A    between atoms: C4_6  and  C5_7 
REMARK    3  A    between atoms: C5_7  and  C6_8 
REMARK       I    between atoms: C6_8  and  N3_10 
REMARK    4  A    between atoms: N3_10  and  C7_11 
REMARK    5  A    between atoms: C13_18  and  N5_19 
REMARK    6  A    between atoms: N5_19  and  C14_20 
ROOT
HETATM    1  C7  UNL     1      23.571   4.748  51.112  1.00  0.00     0.027 A 
HETATM    2  C8  UNL     1      23.676   6.105  51.291  1.00  0.00     0.023 A 
HETATM    3  C9  UNL     1      22.494   6.692  50.829  1.00  0.00    -0.011 A 
HETATM    4  C10 UNL     1      21.408   6.064  50.290  1.00  0.00     0.033 A 
HETATM    5  C11 UNL     1      20.738   5.154  49.906  1.00  0.00     0.088 A 
HETATM    6  C12 UNL     1      20.199   4.384  49.594  1.00  0.00    -0.028 A 
HETATM    7  N4  UNL     1      19.540   3.392  49.209  1.00  0.00    -0.192 NA
HETATM    8  C13 UNL     1      20.824   2.452  49.749  1.00  0.00     0.134 A 
HETATM    9  C20 UNL     1      22.107   3.088  50.297  1.00  0.00     0.043 A 
HETATM   10  C21 UNL     1      22.238   4.622  50.514  1.00  0.00     0.060 A 
ENDROOT
BRANCH   1  11
HETATM   11  N3  UNL     1      24.666   3.964  51.514  1.00  0.00    -0.330 N 
HETATM   12  C6  UNL     1      25.579   3.713  50.473  1.00  0.00     0.223 C 
HETATM   13  O1  UNL     1      25.175   4.271  49.406  1.00  0.00    -0.273 OA
HETATM   14  H12 UNL     1      24.622   3.700  52.504  1.00  0.00     0.168 HD
BRANCH  12  15
HETATM   15  C5  UNL     1      26.762   2.870  50.890  1.00  0.00     0.122 C 
BRANCH  15  16
HETATM   16  C4  UNL     1      26.251   1.803  51.809  1.00  0.00     0.126 C 
BRANCH  16  17
HETATM   17  N2  UNL     1      26.991   1.564  52.982  1.00  0.00    -0.409 N 
HETATM   18  C3  UNL     1      28.316   2.065  52.974  1.00  0.00     0.147 C 
HETATM   19  C2  UNL     1      29.077   1.752  54.243  1.00  0.00     0.291 C 
HETATM   20  N1  UNL     1      28.966   0.384  54.615  1.00  0.00     0.087 N 
HETATM   21  C1  UNL     1      29.793  -0.538  53.903  1.00  0.00     0.310 C 
HETATM   22  C23 UNL     1      27.599   0.003  54.767  1.00  0.00     0.291 C 
HETATM   23  C22 UNL     1      26.789   0.259  53.503  1.00  0.00     0.147 C 
ENDBRANCH  16  17
ENDBRANCH  15  16
ENDBRANCH  12  15
ENDBRANCH   1  11
BRANCH   8  24
HETATM   24  N5  UNL     1      21.076   1.073  49.853  1.00  0.00    -0.341 N 
HETATM   25  H15 UNL     1      21.608   0.833  48.996  1.00  0.00     0.167 HD
BRANCH  24  26
HETATM   26  C14 UNL     1      20.524   0.522  51.042  1.00  0.00     0.035 A 
HETATM   27  C15 UNL     1      19.183   0.327  51.200  1.00  0.00     0.029 A 
HETATM   28  C16 UNL     1      18.480  -0.188  52.260  1.00  0.00     0.004 A 
HETATM   29  C17 UNL     1      19.349  -0.534  53.277  1.00  0.00     0.019 A 
HETATM   30  C18 UNL     1      20.697  -0.393  53.254  1.00  0.00     0.013 A 
HETATM   31 BR1  UNL     1      21.846  -0.890  54.707  1.00  0.00    -0.051 Br
HETATM   32  C19 UNL     1      21.312   0.138  52.139  1.00  0.00     0.048 A 
ENDBRANCH  24  26
ENDBRANCH   8  24
TORSDOF 6
ENDMDL
MODEL 6
REMARK VINA RESULT:      -8.3      2.413      2.961
REMARK  6 active torsions:
REMARK  status: ('A' for Active; 'I' for Inactive)
REMARK    1  A    between atoms: N2_5  and  C4_6 
REMARK    2  A    between atoms: C4_6  and  C5_7 
REMARK    3  A    between atoms: C5_7  and  C6_8 
REMARK       I    between atoms: C6_8  and  N3_10 
REMARK    4  A    between atoms: N3_10  and  C7_11 
REMARK    5  A    between atoms: C13_18  and  N5_19 
REMARK    6  A    between atoms: N5_19  and  C14_20 
ROOT
HETATM    1  C7  UNL     1      21.011   0.479  51.047  1.00  0.00     0.027 A 
HETATM    2  C8  UNL     1      19.657   0.600  50.857  1.00  0.00     0.023 A 
HETATM    3  C9  UNL     1      19.018   0.128  52.007  1.00  0.00    -0.011 A 
HETATM    4  C10 UNL     1      19.599  -0.371  53.137  1.00  0.00     0.033 A 
HETATM    5  C11 UNL     1      20.481  -0.708  53.867  1.00  0.00     0.088 A 
HETATM    6  C12 UNL     1      21.229  -0.981  54.457  1.00  0.00    -0.028 A 
HETATM    7  N4  UNL     1      22.192  -1.317  55.181  1.00  0.00    -0.192 NA
HETATM    8  C13 UNL     1      23.187  -0.753  53.949  1.00  0.00     0.134 A 
HETATM    9  C20 UNL     1      22.609  -0.248  52.622  1.00  0.00     0.043 A 
HETATM   10  C21 UNL     1      21.079  -0.097  52.394  1.00  0.00     0.060 A 
ENDROOT
BRANCH   1  11
HETATM   11  N3  UNL     1      21.844   0.900  49.996  1.00  0.00    -0.330 N 
HETATM   12  C6  UNL     1      22.097   2.284  50.011  1.00  0.00     0.223 C 
HETATM   13  O1  UNL     1      21.496   2.818  50.994  1.00  0.00    -0.273 OA
HETATM   14  H12 UNL     1      22.132   0.128  49.384  1.00  0.00     0.168 HD
BRANCH  12  15
HETATM   15  C5  UNL     1      22.991   2.752  48.885  1.00  0.00     0.122 C 
BRANCH  15  16
HETATM   16  C4  UNL     1      22.641   4.180  48.597  1.00  0.00     0.126 C 
BRANCH  16  17
HETATM   17  N2  UNL     1      23.229   5.159  49.418  1.00  0.00    -0.409 N 
HETATM   18  C3  UNL     1      22.428   6.300  49.668  1.00  0.00     0.147 C 
HETATM   19  C2  UNL     1      23.120   7.335  50.528  1.00  0.00     0.291 C 
HETATM   20  N1  UNL     1      24.434   7.626  50.068  1.00  0.00     0.087 N 
HETATM   21  C1  UNL     1      24.535   8.504  48.946  1.00  0.00     0.310 C 
HETATM   22  C23 UNL     1      25.229   6.443  50.005  1.00  0.00     0.291 C 
HETATM   23  C22 UNL     1      24.600   5.376  49.119  1.00  0.00     0.147 C 
ENDBRANCH  16  17
ENDBRANCH  15  16
ENDBRANCH  12  15
ENDBRANCH   1  11
BRANCH   8  24
HETATM   24  N5  UNL     1      24.573  -0.594  53.780  1.00  0.00    -0.341 N 
HETATM   25  H15 UNL     1      24.995  -1.423  54.239  1.00  0.00     0.167 HD
BRANCH  24  26
HETATM   26  C14 UNL     1      24.888   0.603  53.081  1.00  0.00     0.035 A 
HETATM   27  C15 UNL     1      25.844   0.648  52.108  1.00  0.00     0.029 A 
HETATM   28  C16 UNL     1      26.275   1.697  51.335  1.00  0.00     0.004 A 
HETATM   29  C17 UNL     1      25.574   2.842  51.664  1.00  0.00     0.019 A 
HETATM   30  C18 UNL     1      24.605   2.938  52.607  1.00  0.00     0.013 A 
HETATM   31 BR1  UNL     1      23.676   4.565  53.017  1.00  0.00    -0.051 Br
HETATM   32  C19 UNL     1      24.243   1.824  53.334  1.00  0.00     0.048 A 
ENDBRANCH  24  26
ENDBRANCH   8  24
TORSDOF 6
ENDMDL
MODEL 7
REMARK VINA RESULT:      -8.1      2.356      5.505
REMARK  6 active torsions:
REMARK  status: ('A' for Active; 'I' for Inactive)
REMARK    1  A    between atoms: N2_5  and  C4_6 
REMARK    2  A    between atoms: C4_6  and  C5_7 
REMARK    3  A    between atoms: C5_7  and  C6_8 
REMARK       I    between atoms: C6_8  and  N3_10 
REMARK    4  A    between atoms: N3_10  and  C7_11 
REMARK    5  A    between atoms: C13_18  and  N5_19 
REMARK    6  A    between atoms: N5_19  and  C14_20 
ROOT
HETATM    1  C7  UNL     1      19.829  -0.900  52.901  1.00  0.00     0.027 A 
HETATM    2  C8  UNL     1      18.652  -1.329  53.460  1.00  0.00     0.023 A 
HETATM    3  C9  UNL     1      17.599  -0.760  52.736  1.00  0.00    -0.011 A 
HETATM    4  C10 UNL     1      17.686   0.076  51.660  1.00  0.00     0.033 A 
HETATM    5  C11 UNL     1      18.210   0.732  50.813  1.00  0.00     0.088 A 
HETATM    6  C12 UNL     1      18.667   1.269  50.117  1.00  0.00    -0.028 A 
HETATM    7  N4  UNL     1      19.270   1.939  49.249  1.00  0.00    -0.192 NA
HETATM    8  C13 UNL     1      20.692   1.337  49.912  1.00  0.00     0.134 A 
HETATM    9  C20 UNL     1      20.678   0.454  51.166  1.00  0.00     0.043 A 
HETATM   10  C21 UNL     1      19.353  -0.047  51.806  1.00  0.00     0.060 A 
ENDROOT
BRANCH   1  11
HETATM   11  N3  UNL     1      21.020  -1.360  53.488  1.00  0.00    -0.330 N 
HETATM   12  C6  UNL     1      21.474  -0.539  54.537  1.00  0.00     0.223 C 
HETATM   13  O1  UNL     1      20.674   0.435  54.694  1.00  0.00    -0.273 OA
HETATM   14  H12 UNL     1      21.368  -2.222  53.055  1.00  0.00     0.168 HD
BRANCH  12  15
HETATM   15  C5  UNL     1      22.755  -1.020  55.178  1.00  0.00     0.122 C 
BRANCH  15  16
HETATM   16  C4  UNL     1      23.829  -0.960  54.136  1.00  0.00     0.126 C 
BRANCH  16  17
HETATM   17  N2  UNL     1      24.571   0.232  54.054  1.00  0.00    -0.409 N 
HETATM   18  C3  UNL     1      24.102   1.174  53.105  1.00  0.00     0.147 C 
HETATM   19  C2  UNL     1      24.953   2.422  53.035  1.00  0.00     0.291 C 
HETATM   20  N1  UNL     1      26.340   2.122  52.931  1.00  0.00     0.087 N 
HETATM   21  C1  UNL     1      26.813   1.738  51.639  1.00  0.00     0.310 C 
HETATM   22  C23 UNL     1      26.771   1.306  54.020  1.00  0.00     0.291 C 
HETATM   23  C22 UNL     1      25.972   0.013  54.117  1.00  0.00     0.147 C 
ENDBRANCH  16  17
ENDBRANCH  15  16
ENDBRANCH  12  15
ENDBRANCH   1  11
BRANCH   8  24
HETATM   24  N5  UNL     1      22.058   1.427  49.595  1.00  0.00    -0.341 N 
HETATM   25  H15 UNL     1      22.293   0.514  49.162  1.00  0.00     0.167 HD
BRANCH  24  26
HETATM   26  C14 UNL     1      22.608   2.681  49.975  1.00  0.00     0.035 A 
HETATM   27  C15 UNL     1      21.951   3.545  50.802  1.00  0.00     0.029 A 
HETATM   28  C16 UNL     1      22.321   4.779  51.274  1.00  0.00     0.004 A 
HETATM   29  C17 UNL     1      23.569   5.115  50.780  1.00  0.00     0.019 A 
HETATM   30  C18 UNL     1      24.328   4.356  49.953  1.00  0.00     0.013 A 
HETATM   31 BR1  UNL     1      26.051   4.888  49.301  1.00  0.00    -0.051 Br
HETATM   32  C19 UNL     1      23.864   3.126  49.533  1.00  0.00     0.048 A 
ENDBRANCH  24  26
ENDBRANCH   8  24
TORSDOF 6
ENDMDL
MODEL 8
REMARK VINA RESULT:      -8.1      3.179      5.966
REMARK  6 active torsions:
REMARK  status: ('A' for Active; 'I' for Inactive)
REMARK    1  A    between atoms: N2_5  and  C4_6 
REMARK    2  A    between atoms: C4_6  and  C5_7 
REMARK    3  A    between atoms: C5_7  and  C6_8 
REMARK       I    between atoms: C6_8  and  N3_10 
REMARK    4  A    between atoms: N3_10  and  C7_11 
REMARK    5  A    between atoms: C13_18  and  N5_19 
REMARK    6  A    between atoms: N5_19  and  C14_20 
ROOT
HETATM    1  C7  UNL     1      26.412   1.982  52.160  1.00  0.00     0.027 A 
HETATM    2  C8  UNL     1      27.533   1.239  52.433  1.00  0.00     0.023 A 
HETATM    3  C9  UNL     1      27.124   0.056  53.056  1.00  0.00    -0.011 A 
HETATM    4  C10 UNL     1      25.849  -0.329  53.356  1.00  0.00     0.033 A 
HETATM    5  C11 UNL     1      24.659  -0.251  53.419  1.00  0.00     0.088 A 
HETATM    6  C12 UNL     1      23.673  -0.166  53.460  1.00  0.00    -0.028 A 
HETATM    7  N4  UNL     1      22.429  -0.032  53.498  1.00  0.00    -0.192 NA
HETATM    8  C13 UNL     1      22.660   1.421  52.687  1.00  0.00     0.134 A 
HETATM    9  C20 UNL     1      24.064   1.954  52.382  1.00  0.00     0.043 A 
HETATM   10  C21 UNL     1      25.343   1.121  52.677  1.00  0.00     0.060 A 
ENDROOT
BRANCH   1  11
HETATM   11  N3  UNL     1      26.607   3.223  51.530  1.00  0.00    -0.330 N 
HETATM   12  C6  UNL     1      26.601   3.137  50.125  1.00  0.00     0.223 C 
HETATM   13  O1  UNL     1      26.417   1.932  49.770  1.00  0.00    -0.273 OA
HETATM   14  H12 UNL     1      26.723   3.993  52.198  1.00  0.00     0.168 HD
BRANCH  12  15
HETATM   15  C5  UNL     1      26.811   4.465  49.433  1.00  0.00     0.122 C 
BRANCH  15  16
HETATM   16  C4  UNL     1      25.507   5.201  49.469  1.00  0.00     0.126 C 
BRANCH  16  17
HETATM   17  N2  UNL     1      25.546   6.581  49.200  1.00  0.00    -0.409 N 
HETATM   18  C3  UNL     1      26.439   6.972  48.172  1.00  0.00     0.147 C 
HETATM   19  C2  UNL     1      26.467   8.468  47.946  1.00  0.00     0.291 C 
HETATM   20  N1  UNL     1      26.613   9.193  49.161  1.00  0.00     0.087 N 
HETATM   21  C1  UNL     1      27.931   9.260  49.708  1.00  0.00     0.310 C 
HETATM   22  C23 UNL     1      25.573   8.865  50.082  1.00  0.00     0.291 C 
HETATM   23  C22 UNL     1      25.522   7.372  50.379  1.00  0.00     0.147 C 
ENDBRANCH  16  17
ENDBRANCH  15  16
ENDBRANCH  12  15
ENDBRANCH   1  11
BRANCH   8  24
HETATM   24  N5  UNL     1      21.815   2.403  52.140  1.00  0.00    -0.341 N 
HETATM   25  H15 UNL     1      21.412   2.896  52.959  1.00  0.00     0.167 HD
BRANCH  24  26
HETATM   26  C14 UNL     1      21.807   2.363  50.719  1.00  0.00     0.035 A 
HETATM   27  C15 UNL     1      21.590   1.209  50.024  1.00  0.00     0.029 A 
HETATM   28  C16 UNL     1      21.543   0.982  48.671  1.00  0.00     0.004 A 
HETATM   29  C17 UNL     1      21.761   2.165  47.989  1.00  0.00     0.019 A 
HETATM   30  C18 UNL     1      21.991   3.377  48.552  1.00  0.00     0.013 A 
HETATM   31 BR1  UNL     1      22.293   4.979  47.542  1.00  0.00    -0.051 Br
HETATM   32  C19 UNL     1      22.019   3.501  49.925  1.00  0.00     0.048 A 
ENDBRANCH  24  26
ENDBRANCH   8  24
TORSDOF 6
ENDMDL
MODEL 9
REMARK VINA RESULT:      -8.1      2.796      6.132
REMARK  6 active torsions:
REMARK  status: ('A' for Active; 'I' for Inactive)
REMARK    1  A    between atoms: N2_5  and  C4_6 
REMARK    2  A    between atoms: C4_6  and  C5_7 
REMARK    3  A    between atoms: C5_7  and  C6_8 
REMARK       I    between atoms: C6_8  and  N3_10 
REMARK    4  A    between atoms: N3_10  and  C7_11 
REMARK    5  A    between atoms: C13_18  and  N5_19 
REMARK    6  A    between atoms: N5_19  and  C14_20 
ROOT
HETATM    1  C7  UNL     1      23.006   0.238  52.614  1.00  0.00     0.027 A 
HETATM    2  C8  UNL     1      23.585  -0.309  53.732  1.00  0.00     0.023 A 
HETATM    3  C9  UNL     1      22.570  -0.877  54.508  1.00  0.00    -0.011 A 
HETATM    4  C10 UNL     1      21.232  -0.904  54.237  1.00  0.00     0.033 A 
HETATM    5  C11 UNL     1      20.225  -0.699  53.630  1.00  0.00     0.088 A 
HETATM    6  C12 UNL     1      19.402  -0.519  53.109  1.00  0.00    -0.028 A 
HETATM    7  N4  UNL     1      18.378  -0.277  52.430  1.00  0.00    -0.192 NA
HETATM    8  C13 UNL     1      19.411   0.419  51.302  1.00  0.00     0.134 A 
HETATM    9  C20 UNL     1      20.915   0.553  51.569  1.00  0.00     0.043 A 
HETATM   10  C21 UNL     1      21.587  -0.069  52.825  1.00  0.00     0.060 A 
ENDROOT
BRANCH   1  11
HETATM   11  N3  UNL     1      23.862   0.868  51.695  1.00  0.00    -0.330 N 
HETATM   12  C6  UNL     1      24.374   2.092  52.164  1.00  0.00     0.223 C 
HETATM   13  O1  UNL     1      23.924   2.326  53.329  1.00  0.00    -0.273 OA
HETATM   14  H12 UNL     1      23.974   0.333  50.827  1.00  0.00     0.168 HD
BRANCH  12  15
HETATM   15  C5  UNL     1      25.295   2.783  51.186  1.00  0.00     0.122 C 
BRANCH  15  16
HETATM   16  C4  UNL     1      26.583   2.018  51.165  1.00  0.00     0.126 C 
BRANCH  16  17
HETATM   17  N2  UNL     1      26.967   1.382  52.359  1.00  0.00    -0.409 N 
HETATM   18  C3  UNL     1      28.006   2.021  53.078  1.00  0.00     0.147 C 
HETATM   19  C2  UNL     1      28.402   1.280  54.336  1.00  0.00     0.291 C 
HETATM   20  N1  UNL     1      28.615  -0.106  54.099  1.00  0.00     0.087 N 
HETATM   21  C1  UNL     1      29.863  -0.466  53.505  1.00  0.00     0.310 C 
HETATM   22  C23 UNL     1      27.457  -0.713  53.528  1.00  0.00     0.291 C 
HETATM   23  C22 UNL     1      27.033  -0.030  52.234  1.00  0.00     0.147 C 
ENDBRANCH  16  17
ENDBRANCH  15  16
ENDBRANCH  12  15
ENDBRANCH   1  11
BRANCH   8  24
HETATM   24  N5  UNL     1      19.258   0.978  50.022  1.00  0.00    -0.341 N 
HETATM   25  H15 UNL     1      18.335   0.640  49.690  1.00  0.00     0.167 HD
BRANCH  24  26
HETATM   26  C14 UNL     1      20.382   1.766  49.650  1.00  0.00     0.035 A 
HETATM   27  C15 UNL     1      21.280   1.356  48.708  1.00  0.00     0.029 A 
HETATM   28  C16 UNL     1      22.405   1.974  48.225  1.00  0.00     0.004 A 
HETATM   29  C17 UNL     1      22.574   3.196  48.849  1.00  0.00     0.019 A 
HETATM   30  C18 UNL     1      21.764   3.722  49.800  1.00  0.00     0.013 A 
HETATM   31 BR1  UNL     1      22.062   5.425  50.630  1.00  0.00    -0.051 Br
HETATM   32  C19 UNL     1      20.653   3.020  50.220  1.00  0.00     0.048 A 
ENDBRANCH  24  26
ENDBRANCH   8  24
TORSDOF 6
ENDMDL
