MODEL 1
REMARK VINA RESULT:      -8.1      0.000      0.000
REMARK  7 active torsions:
REMARK  status: ('A' for Active; 'I' for Inactive)
REMARK    1  A    between atoms: C2_2  and  C3_3 
REMARK    2  A    between atoms: C2_2  and  N1_5 
REMARK    3  A    between atoms: N1_5  and  C4_6 
REMARK    4  A    between atoms: C9_11  and  O2_12 
REMARK    5  A    between atoms: C12_17  and  N4_18 
REMARK    6  A    between atoms: N4_18  and  C13_19 
REMARK    7  A    between atoms: C13_19  and  C14_20 
ROOT
HETATM    1  C4  UNL     1      26.097   0.239  52.909  1.00  0.00     0.063 A 
HETATM    2  C5  UNL     1      25.238   1.389  52.443  1.00  0.00     0.048 A 
HETATM    3  C6  UNL     1      23.823   1.615  52.505  1.00  0.00     0.019 A 
HETATM    4  C7  UNL     1      23.126   0.577  53.110  1.00  0.00     0.073 A 
HETATM    5  C8  UNL     1      23.767  -0.540  53.586  1.00  0.00     0.071 A 
HETATM    6  C9  UNL     1      25.078  -0.420  53.363  1.00  0.00     0.094 A 
HETATM    7  N2  UNL     1      21.868   0.364  53.410  1.00  0.00    -0.242 NA
HETATM    8  C10 UNL     1      20.753   1.258  53.160  1.00  0.00     0.227 A 
HETATM    9  N3  UNL     1      20.897   2.375  52.566  1.00  0.00    -0.277 NA
HETATM   10  C11 UNL     1      21.853   3.205  51.961  1.00  0.00     0.207 A 
HETATM   11  C12 UNL     1      23.240   2.709  52.033  1.00  0.00     0.038 A 
ENDROOT
BRANCH  11  12
HETATM   12  N4  UNL     1      24.249   3.532  51.457  1.00  0.00    -0.387 N 
HETATM   13  H13 UNL     1      24.934   3.541  52.268  1.00  0.00     0.159 HD
BRANCH  12  14
HETATM   14  C13 UNL     1      23.925   3.998  50.096  1.00  0.00     0.158 C 
BRANCH  14  15
HETATM   15  C14 UNL     1      25.158   4.618  49.508  1.00  0.00    -0.041 A 
HETATM   16  C15 UNL     1      25.029   5.948  49.063  1.00  0.00     0.009 A 
HETATM   17  C16 UNL     1      26.224   6.440  48.545  1.00  0.00     0.001 A 
HETATM   18  C17 UNL     1      27.404   5.719  48.469  1.00  0.00     0.000 A 
HETATM   19  C18 UNL     1      27.392   4.436  48.934  1.00  0.00     0.001 A 
HETATM   20  C19 UNL     1      26.276   3.832  49.471  1.00  0.00     0.009 A 
ENDBRANCH  14  15
ENDBRANCH  12  14
ENDBRANCH  11  12
BRANCH   1  21
HETATM   21  N1  UNL     1      27.198   0.965  52.412  1.00  0.00    -0.377 N 
HETATM   22  H6  UNL     1      27.719   1.397  51.677  1.00  0.00     0.160 HD
BRANCH  21  23
HETATM   23  C2  UNL     1      27.927   1.196  53.665  1.00  0.00     0.139 C 
HETATM   24  C1  UNL     1      28.662   2.529  53.630  1.00  0.00     0.039 C 
BRANCH  23  25
HETATM   25  C3  UNL     1      28.897   0.115  53.968  1.00  0.00     0.255 C 
HETATM   26  O1  UNL     1      29.068  -1.087  54.166  1.00  0.00    -0.305 OA
ENDBRANCH  23  25
ENDBRANCH  21  23
ENDBRANCH   1  21
BRANCH   6  27
HETATM   27  O2  UNL     1      25.996  -1.451  53.756  1.00  0.00    -0.358 OA
HETATM   28  H9  UNL     1      26.225  -1.373  54.757  1.00  0.00     0.217 HD
ENDBRANCH   6  27
TORSDOF 7
ENDMDL
MODEL 2
REMARK VINA RESULT:      -7.9      2.040      4.914
REMARK  7 active torsions:
REMARK  status: ('A' for Active; 'I' for Inactive)
REMARK    1  A    between atoms: C2_2  and  C3_3 
REMARK    2  A    between atoms: C2_2  and  N1_5 
REMARK    3  A    between atoms: N1_5  and  C4_6 
REMARK    4  A    between atoms: C9_11  and  O2_12 
REMARK    5  A    between atoms: C12_17  and  N4_18 
REMARK    6  A    between atoms: N4_18  and  C13_19 
REMARK    7  A    between atoms: C13_19  and  C14_20 
ROOT
HETATM    1  C4  UNL     1      23.187   0.376  53.356  1.00  0.00     0.063 A 
HETATM    2  C5  UNL     1      24.388   1.223  53.013  1.00  0.00     0.048 A 
HETATM    3  C6  UNL     1      25.770   1.120  53.384  1.00  0.00     0.019 A 
HETATM    4  C7  UNL     1      26.039   0.035  54.209  1.00  0.00     0.073 A 
HETATM    5  C8  UNL     1      25.051  -0.828  54.608  1.00  0.00     0.071 A 
HETATM    6  C9  UNL     1      23.887  -0.437  54.081  1.00  0.00     0.094 A 
HETATM    7  N2  UNL     1      27.124  -0.462  54.751  1.00  0.00    -0.242 NA
HETATM    8  C10 UNL     1      28.475   0.049  54.615  1.00  0.00     0.227 A 
HETATM    9  N3  UNL     1      28.740   1.102  53.950  1.00  0.00    -0.277 NA
HETATM   10  C11 UNL     1      28.151   2.119  53.184  1.00  0.00     0.207 A 
HETATM   11  C12 UNL     1      26.697   1.977  52.977  1.00  0.00     0.038 A 
ENDROOT
BRANCH  11  12
HETATM   12  N4  UNL     1      26.060   2.971  52.181  1.00  0.00    -0.387 N 
HETATM   13  H13 UNL     1      25.413   3.378  52.918  1.00  0.00     0.159 HD
BRANCH  12  14
HETATM   14  C13 UNL     1      26.521   2.992  50.781  1.00  0.00     0.158 C 
BRANCH  14  15
HETATM   15  C14 UNL     1      25.519   3.759  49.970  1.00  0.00    -0.041 A 
HETATM   16  C15 UNL     1      25.937   5.022  49.506  1.00  0.00     0.009 A 
HETATM   17  C16 UNL     1      24.948   5.652  48.756  1.00  0.00     0.001 A 
HETATM   18  C17 UNL     1      23.699   5.114  48.491  1.00  0.00     0.000 A 
HETATM   19  C18 UNL     1      23.420   3.880  49.003  1.00  0.00     0.001 A 
HETATM   20  C19 UNL     1      24.313   3.152  49.761  1.00  0.00     0.009 A 
ENDBRANCH  14  15
ENDBRANCH  12  14
ENDBRANCH  11  12
BRANCH   1  21
HETATM   21  N1  UNL     1      22.434   1.266  52.563  1.00  0.00    -0.377 N 
HETATM   22  H6  UNL     1      22.169   2.181  52.262  1.00  0.00     0.160 HD
BRANCH  21  23
HETATM   23  C2  UNL     1      21.657   0.300  51.776  1.00  0.00     0.139 C 
HETATM   24  C1  UNL     1      21.471   0.786  50.346  1.00  0.00     0.039 C 
BRANCH  23  25
HETATM   25  C3  UNL     1      20.327   0.020  52.371  1.00  0.00     0.255 C 
HETATM   26  O1  UNL     1      19.704  -0.472  53.312  1.00  0.00    -0.305 OA
ENDBRANCH  23  25
ENDBRANCH  21  23
ENDBRANCH   1  21
BRANCH   6  27
HETATM   27  O2  UNL     1      22.675  -1.158  54.339  1.00  0.00    -0.358 OA
HETATM   28  H9  UNL     1      22.856  -2.170  54.395  1.00  0.00     0.217 HD
ENDBRANCH   6  27
TORSDOF 7
ENDMDL
MODEL 3
REMARK VINA RESULT:      -7.7      2.727      6.639
REMARK  7 active torsions:
REMARK  status: ('A' for Active; 'I' for Inactive)
REMARK    1  A    between atoms: C2_2  and  C3_3 
REMARK    2  A    between atoms: C2_2  and  N1_5 
REMARK    3  A    between atoms: N1_5  and  C4_6 
REMARK    4  A    between atoms: C9_11  and  O2_12 
REMARK    5  A    between atoms: C12_17  and  N4_18 
REMARK    6  A    between atoms: N4_18  and  C13_19 
REMARK    7  A    between atoms: C13_19  and  C14_20 
ROOT
HETATM    1  C4  UNL     1      25.527   2.858  50.735  1.00  0.00     0.063 A 
HETATM    2  C5  UNL     1      24.909   1.813  51.632  1.00  0.00     0.048 A 
HETATM    3  C6  UNL     1      25.438   1.061  52.733  1.00  0.00     0.019 A 
HETATM    4  C7  UNL     1      26.764   1.362  53.018  1.00  0.00     0.073 A 
HETATM    5  C8  UNL     1      27.464   2.293  52.292  1.00  0.00     0.071 A 
HETATM    6  C9  UNL     1      26.669   2.797  51.344  1.00  0.00     0.094 A 
HETATM    7  N2  UNL     1      27.623   0.967  53.926  1.00  0.00    -0.242 NA
HETATM    8  C10 UNL     1      27.385   0.006  54.986  1.00  0.00     0.227 A 
HETATM    9  N3  UNL     1      26.272  -0.599  55.118  1.00  0.00    -0.277 NA
HETATM   10  C11 UNL     1      24.994  -0.725  54.554  1.00  0.00     0.207 A 
HETATM   11  C12 UNL     1      24.729   0.169  53.411  1.00  0.00     0.038 A 
ENDROOT
BRANCH  11  12
HETATM   12  N4  UNL     1      23.434   0.097  52.823  1.00  0.00    -0.387 N 
HETATM   13  H13 UNL     1      23.645   0.583  51.904  1.00  0.00     0.159 HD
BRANCH  12  14
HETATM   14  C13 UNL     1      22.430  -0.553  53.686  1.00  0.00     0.158 C 
BRANCH  14  15
HETATM   15  C14 UNL     1      21.086  -0.400  53.037  1.00  0.00    -0.041 A 
HETATM   16  C15 UNL     1      19.993  -0.935  53.746  1.00  0.00     0.009 A 
HETATM   17  C16 UNL     1      18.791  -0.736  53.073  1.00  0.00     0.001 A 
HETATM   18  C17 UNL     1      18.670  -0.091  51.853  1.00  0.00     0.000 A 
HETATM   19  C18 UNL     1      19.811   0.380  51.270  1.00  0.00     0.001 A 
HETATM   20  C19 UNL     1      21.062   0.248  51.834  1.00  0.00     0.009 A 
ENDBRANCH  14  15
ENDBRANCH  12  14
ENDBRANCH  11  12
BRANCH   1  21
HETATM   21  N1  UNL     1      24.280   2.918  50.081  1.00  0.00    -0.377 N 
HETATM   22  H6  UNL     1      23.623   2.617  49.390  1.00  0.00     0.160 HD
BRANCH  21  23
HETATM   23  C2  UNL     1      23.641   3.984  50.862  1.00  0.00     0.139 C 
HETATM   24  C1  UNL     1      22.126   3.924  50.730  1.00  0.00     0.039 C 
BRANCH  23  25
HETATM   25  C3  UNL     1      24.109   5.337  50.470  1.00  0.00     0.255 C 
HETATM   26  O1  UNL     1      25.007   6.174  50.541  1.00  0.00    -0.305 OA
ENDBRANCH  23  25
ENDBRANCH  21  23
ENDBRANCH   1  21
BRANCH   6  27
HETATM   27  O2  UNL     1      27.144   3.793  50.428  1.00  0.00    -0.358 OA
HETATM   28  H9  UNL     1      27.832   4.410  50.883  1.00  0.00     0.217 HD
ENDBRANCH   6  27
TORSDOF 7
ENDMDL
MODEL 4
REMARK VINA RESULT:      -7.6      2.890      5.632
REMARK  7 active torsions:
REMARK  status: ('A' for Active; 'I' for Inactive)
REMARK    1  A    between atoms: C2_2  and  C3_3 
REMARK    2  A    between atoms: C2_2  and  N1_5 
REMARK    3  A    between atoms: N1_5  and  C4_6 
REMARK    4  A    between atoms: C9_11  and  O2_12 
REMARK    5  A    between atoms: C12_17  and  N4_18 
REMARK    6  A    between atoms: N4_18  and  C13_19 
REMARK    7  A    between atoms: C13_19  and  C14_20 
ROOT
HETATM    1  C4  UNL     1      23.309   3.794  51.848  1.00  0.00     0.063 A 
HETATM    2  C5  UNL     1      23.729   2.476  52.453  1.00  0.00     0.048 A 
HETATM    3  C6  UNL     1      22.970   1.363  52.945  1.00  0.00     0.019 A 
HETATM    4  C7  UNL     1      21.596   1.542  52.836  1.00  0.00     0.073 A 
HETATM    5  C8  UNL     1      21.059   2.688  52.306  1.00  0.00     0.071 A 
HETATM    6  C9  UNL     1      22.049   3.512  51.951  1.00  0.00     0.094 A 
HETATM    7  N2  UNL     1      20.548   0.806  53.111  1.00  0.00    -0.242 NA
HETATM    8  C10 UNL     1      20.549  -0.535  53.664  1.00  0.00     0.227 A 
HETATM    9  N3  UNL     1      21.625  -1.139  53.980  1.00  0.00    -0.277 NA
HETATM   10  C11 UNL     1      23.019  -0.995  54.013  1.00  0.00     0.207 A 
HETATM   11  C12 UNL     1      23.527   0.271  53.452  1.00  0.00     0.038 A 
ENDROOT
BRANCH  11  12
HETATM   12  N4  UNL     1      24.939   0.450  53.438  1.00  0.00    -0.387 N 
HETATM   13  H13 UNL     1      24.972   1.496  53.614  1.00  0.00     0.159 HD
BRANCH  12  14
HETATM   14  C13 UNL     1      25.689  -0.794  53.185  1.00  0.00     0.158 C 
BRANCH  14  15
HETATM   15  C14 UNL     1      27.152  -0.498  53.340  1.00  0.00    -0.041 A 
HETATM   16  C15 UNL     1      28.025  -1.589  53.161  1.00  0.00     0.009 A 
HETATM   17  C16 UNL     1      29.358  -1.216  53.314  1.00  0.00     0.001 A 
HETATM   18  C17 UNL     1      29.787   0.068  53.606  1.00  0.00     0.000 A 
HETATM   19  C18 UNL     1      28.835   1.034  53.757  1.00  0.00     0.001 A 
HETATM   20  C19 UNL     1      27.483   0.796  53.631  1.00  0.00     0.009 A 
ENDBRANCH  14  15
ENDBRANCH  12  14
ENDBRANCH  11  12
BRANCH   1  21
HETATM   21  N1  UNL     1      24.683   4.089  51.740  1.00  0.00    -0.377 N 
HETATM   22  H6  UNL     1      25.534   4.494  52.073  1.00  0.00     0.160 HD
BRANCH  21  23
HETATM   23  C2  UNL     1      24.978   3.431  50.462  1.00  0.00     0.139 C 
HETATM   24  C1  UNL     1      26.457   3.086  50.354  1.00  0.00     0.039 C 
BRANCH  23  25
HETATM   25  C3  UNL     1      24.585   4.255  49.291  1.00  0.00     0.255 C 
HETATM   26  O1  UNL     1      24.299   5.376  48.873  1.00  0.00    -0.305 OA
ENDBRANCH  23  25
ENDBRANCH  21  23
ENDBRANCH   1  21
BRANCH   6  27
HETATM   27  O2  UNL     1      21.776   4.795  51.370  1.00  0.00    -0.358 OA
HETATM   28  H9  UNL     1      21.071   5.304  51.923  1.00  0.00     0.217 HD
ENDBRANCH   6  27
TORSDOF 7
ENDMDL
MODEL 5
REMARK VINA RESULT:      -7.5      1.649      2.082
REMARK  7 active torsions:
REMARK  status: ('A' for Active; 'I' for Inactive)
REMARK    1  A    between atoms: C2_2  and  C3_3 
REMARK    2  A    between atoms: C2_2  and  N1_5 
REMARK    3  A    between atoms: N1_5  and  C4_6 
REMARK    4  A    between atoms: C9_11  and  O2_12 
REMARK    5  A    between atoms: C12_17  and  N4_18 
REMARK    6  A    between atoms: N4_18  and  C13_19 
REMARK    7  A    between atoms: C13_19  and  C14_20 
ROOT
HETATM    1  C4  UNL     1      25.115  -0.313  54.226  1.00  0.00     0.063 A 
HETATM    2  C5  UNL     1      24.224   0.248  53.145  1.00  0.00     0.048 A 
HETATM    3  C6  UNL     1      22.810   0.158  52.926  1.00  0.00     0.019 A 
HETATM    4  C7  UNL     1      22.149  -0.585  53.897  1.00  0.00     0.073 A 
HETATM    5  C8  UNL     1      22.822  -1.160  54.946  1.00  0.00     0.071 A 
HETATM    6  C9  UNL     1      24.123  -0.876  54.839  1.00  0.00     0.094 A 
HETATM    7  N2  UNL     1      20.896  -0.897  54.123  1.00  0.00    -0.242 NA
HETATM    8  C10 UNL     1      19.748  -0.505  53.329  1.00  0.00     0.227 A 
HETATM    9  N3  UNL     1      19.860   0.186  52.265  1.00  0.00    -0.277 NA
HETATM   10  C11 UNL     1      20.799   0.808  51.430  1.00  0.00     0.207 A 
HETATM   11  C12 UNL     1      22.196   0.728  51.898  1.00  0.00     0.038 A 
ENDROOT
BRANCH  11  12
HETATM   12  N4  UNL     1      23.182   1.371  51.097  1.00  0.00    -0.387 N 
HETATM   13  H13 UNL     1      23.808   0.535  50.910  1.00  0.00     0.159 HD
BRANCH  12  14
HETATM   14  C13 UNL     1      22.938   2.812  50.904  1.00  0.00     0.158 C 
BRANCH  14  15
HETATM   15  C14 UNL     1      24.180   3.423  50.326  1.00  0.00    -0.041 A 
HETATM   16  C15 UNL     1      23.994   4.580  49.544  1.00  0.00     0.009 A 
HETATM   17  C16 UNL     1      25.201   5.080  49.063  1.00  0.00     0.001 A 
HETATM   18  C17 UNL     1      26.441   4.517  49.314  1.00  0.00     0.000 A 
HETATM   19  C18 UNL     1      26.482   3.393  50.087  1.00  0.00     0.001 A 
HETATM   20  C19 UNL     1      25.360   2.800  50.625  1.00  0.00     0.009 A 
ENDBRANCH  14  15
ENDBRANCH  12  14
ENDBRANCH  11  12
BRANCH   1  21
HETATM   21  N1  UNL     1      26.187   0.306  53.552  1.00  0.00    -0.377 N 
HETATM   22  H6  UNL     1      26.600   1.060  53.042  1.00  0.00     0.160 HD
BRANCH  21  23
HETATM   23  C2  UNL     1      27.217  -0.726  53.725  1.00  0.00     0.139 C 
HETATM   24  C1  UNL     1      28.612  -0.125  53.638  1.00  0.00     0.039 C 
BRANCH  23  25
HETATM   25  C3  UNL     1      27.098  -1.821  52.730  1.00  0.00     0.255 C 
HETATM   26  O1  UNL     1      27.513  -2.915  52.351  1.00  0.00    -0.305 OA
ENDBRANCH  23  25
ENDBRANCH  21  23
ENDBRANCH   1  21
BRANCH   6  27
HETATM   27  O2  UNL     1      25.069  -1.358  55.804  1.00  0.00    -0.358 OA
HETATM   28  H9  UNL     1      25.775  -1.960  55.355  1.00  0.00     0.217 HD
ENDBRANCH   6  27
TORSDOF 7
ENDMDL
MODEL 6
REMARK VINA RESULT:      -7.3      2.580      5.098
REMARK  7 active torsions:
REMARK  status: ('A' for Active; 'I' for Inactive)
REMARK    1  A    between atoms: C2_2  and  C3_3 
REMARK    2  A    between atoms: C2_2  and  N1_5 
REMARK    3  A    between atoms: N1_5  and  C4_6 
REMARK    4  A    between atoms: C9_11  and  O2_12 
REMARK    5  A    between atoms: C12_17  and  N4_18 
REMARK    6  A    between atoms: N4_18  and  C13_19 
REMARK    7  A    between atoms: C13_19  and  C14_20 
ROOT
HETATM    1  C4  UNL     1      21.960   2.550  52.323  1.00  0.00     0.063 A 
HETATM    2  C5  UNL     1      23.430   2.561  51.980  1.00  0.00     0.048 A 
HETATM    3  C6  UNL     1      24.480   1.618  52.233  1.00  0.00     0.019 A 
HETATM    4  C7  UNL     1      24.053   0.489  52.919  1.00  0.00     0.073 A 
HETATM    5  C8  UNL     1      22.744   0.331  53.301  1.00  0.00     0.071 A 
HETATM    6  C9  UNL     1      22.041   1.396  52.906  1.00  0.00     0.094 A 
HETATM    7  N2  UNL     1      24.630  -0.616  53.323  1.00  0.00    -0.242 NA
HETATM    8  C10 UNL     1      26.020  -0.987  53.140  1.00  0.00     0.227 A 
HETATM    9  N3  UNL     1      26.859  -0.218  52.568  1.00  0.00    -0.277 NA
HETATM   10  C11 UNL     1      26.989   1.037  51.957  1.00  0.00     0.207 A 
HETATM   11  C12 UNL     1      25.735   1.807  51.846  1.00  0.00     0.038 A 
ENDROOT
BRANCH  11  12
HETATM   12  N4  UNL     1      25.813   3.077  51.208  1.00  0.00    -0.387 N 
HETATM   13  H13 UNL     1      25.276   3.651  51.921  1.00  0.00     0.159 HD
BRANCH  12  14
HETATM   14  C13 UNL     1      26.531   3.048  49.921  1.00  0.00     0.158 C 
BRANCH  14  15
HETATM   15  C14 UNL     1      26.438   4.410  49.300  1.00  0.00    -0.041 A 
HETATM   16  C15 UNL     1      25.164   5.011  49.317  1.00  0.00     0.009 A 
HETATM   17  C16 UNL     1      25.178   6.274  48.732  1.00  0.00     0.001 A 
HETATM   18  C17 UNL     1      26.302   6.878  48.193  1.00  0.00     0.000 A 
HETATM   19  C18 UNL     1      27.477   6.184  48.239  1.00  0.00     0.001 A 
HETATM   20  C19 UNL     1      27.596   4.927  48.792  1.00  0.00     0.009 A 
ENDBRANCH  14  15
ENDBRANCH  12  14
ENDBRANCH  11  12
BRANCH   1  21
HETATM   21  N1  UNL     1      21.884   3.804  51.685  1.00  0.00    -0.377 N 
HETATM   22  H6  UNL     1      22.146   4.762  51.572  1.00  0.00     0.160 HD
BRANCH  21  23
HETATM   23  C2  UNL     1      20.905   3.489  50.637  1.00  0.00     0.139 C 
HETATM   24  C1  UNL     1      21.187   4.284  49.370  1.00  0.00     0.039 C 
BRANCH  23  25
HETATM   25  C3  UNL     1      19.507   3.744  51.068  1.00  0.00     0.255 C 
HETATM   26  O1  UNL     1      18.678   3.653  51.971  1.00  0.00    -0.305 OA
ENDBRANCH  23  25
ENDBRANCH  21  23
ENDBRANCH   1  21
BRANCH   6  27
HETATM   27  O2  UNL     1      20.637   1.502  53.179  1.00  0.00    -0.358 OA
HETATM   28  H9  UNL     1      20.473   1.727  54.171  1.00  0.00     0.217 HD
ENDBRANCH   6  27
TORSDOF 7
ENDMDL
MODEL 7
REMARK VINA RESULT:      -7.3      2.754      5.529
REMARK  7 active torsions:
REMARK  status: ('A' for Active; 'I' for Inactive)
REMARK    1  A    between atoms: C2_2  and  C3_3 
REMARK    2  A    between atoms: C2_2  and  N1_5 
REMARK    3  A    between atoms: N1_5  and  C4_6 
REMARK    4  A    between atoms: C9_11  and  O2_12 
REMARK    5  A    between atoms: C12_17  and  N4_18 
REMARK    6  A    between atoms: N4_18  and  C13_19 
REMARK    7  A    between atoms: C13_19  and  C14_20 
ROOT
HETATM    1  C4  UNL     1      21.276   0.198  53.740  1.00  0.00     0.063 A 
HETATM    2  C5  UNL     1      22.333   0.878  52.905  1.00  0.00     0.048 A 
HETATM    3  C6  UNL     1      23.754   0.696  52.823  1.00  0.00     0.019 A 
HETATM    4  C7  UNL     1      24.232  -0.295  53.671  1.00  0.00     0.073 A 
HETATM    5  C8  UNL     1      23.393  -1.004  54.494  1.00  0.00     0.071 A 
HETATM    6  C9  UNL     1      22.140  -0.577  54.316  1.00  0.00     0.094 A 
HETATM    7  N2  UNL     1      25.411  -0.818  53.904  1.00  0.00    -0.242 NA
HETATM    8  C10 UNL     1      26.662  -0.456  53.266  1.00  0.00     0.227 A 
HETATM    9  N3  UNL     1      26.739   0.474  52.399  1.00  0.00    -0.277 NA
HETATM   10  C11 UNL     1      25.977   1.434  51.718  1.00  0.00     0.207 A 
HETATM   11  C12 UNL     1      24.531   1.403  52.014  1.00  0.00     0.038 A 
ENDROOT
BRANCH  11  12
HETATM   12  N4  UNL     1      23.712   2.342  51.324  1.00  0.00    -0.387 N 
HETATM   13  H13 UNL     1      22.790   2.138  51.808  1.00  0.00     0.159 HD
BRANCH  12  14
HETATM   14  C13 UNL     1      24.437   3.118  50.302  1.00  0.00     0.158 C 
BRANCH  14  15
HETATM   15  C14 UNL     1      23.500   3.376  49.159  1.00  0.00    -0.041 A 
HETATM   16  C15 UNL     1      22.728   2.278  48.732  1.00  0.00     0.009 A 
HETATM   17  C16 UNL     1      21.883   2.616  47.679  1.00  0.00     0.001 A 
HETATM   18  C17 UNL     1      21.803   3.876  47.108  1.00  0.00     0.000 A 
HETATM   19  C18 UNL     1      22.610   4.853  47.616  1.00  0.00     0.001 A 
HETATM   20  C19 UNL     1      23.489   4.648  48.658  1.00  0.00     0.009 A 
ENDBRANCH  14  15
ENDBRANCH  12  14
ENDBRANCH  11  12
BRANCH   1  21
HETATM   21  N1  UNL     1      20.345   1.045  53.106  1.00  0.00    -0.377 N 
HETATM   22  H6  UNL     1      19.878   1.920  52.986  1.00  0.00     0.160 HD
BRANCH  21  23
HETATM   23  C2  UNL     1      19.818   0.121  52.096  1.00  0.00     0.139 C 
HETATM   24  C1  UNL     1      19.487   0.855  50.804  1.00  0.00     0.039 C 
BRANCH  23  25
HETATM   25  C3  UNL     1      18.611  -0.607  52.563  1.00  0.00     0.255 C 
HETATM   26  O1  UNL     1      17.829  -0.812  53.490  1.00  0.00    -0.305 OA
ENDBRANCH  23  25
ENDBRANCH  21  23
ENDBRANCH   1  21
BRANCH   6  27
HETATM   27  O2  UNL     1      21.050  -1.143  55.057  1.00  0.00    -0.358 OA
HETATM   28  H9  UNL     1      21.033  -2.168  54.957  1.00  0.00     0.217 HD
ENDBRANCH   6  27
TORSDOF 7
ENDMDL
MODEL 8
REMARK VINA RESULT:      -7.1      3.195      5.616
REMARK  7 active torsions:
REMARK  status: ('A' for Active; 'I' for Inactive)
REMARK    1  A    between atoms: C2_2  and  C3_3 
REMARK    2  A    between atoms: C2_2  and  N1_5 
REMARK    3  A    between atoms: N1_5  and  C4_6 
REMARK    4  A    between atoms: C9_11  and  O2_12 
REMARK    5  A    between atoms: C12_17  and  N4_18 
REMARK    6  A    between atoms: N4_18  and  C13_19 
REMARK    7  A    between atoms: C13_19  and  C14_20 
ROOT
HETATM    1  C4  UNL     1      22.234   1.870  50.453  1.00  0.00     0.063 A 
HETATM    2  C5  UNL     1      22.929   1.211  51.619  1.00  0.00     0.048 A 
HETATM    3  C6  UNL     1      22.454   0.327  52.643  1.00  0.00     0.019 A 
HETATM    4  C7  UNL     1      21.102   0.028  52.528  1.00  0.00     0.073 A 
HETATM    5  C8  UNL     1      20.332   0.551  51.519  1.00  0.00     0.071 A 
HETATM    6  C9  UNL     1      21.093   1.332  50.747  1.00  0.00     0.094 A 
HETATM    7  N2  UNL     1      20.269  -0.737  53.190  1.00  0.00    -0.242 NA
HETATM    8  C10 UNL     1      20.576  -1.561  54.343  1.00  0.00     0.227 A 
HETATM    9  N3  UNL     1      21.737  -1.593  54.866  1.00  0.00    -0.277 NA
HETATM   10  C11 UNL     1      23.029  -1.061  54.752  1.00  0.00     0.207 A 
HETATM   11  C12 UNL     1      23.230  -0.157  53.603  1.00  0.00     0.038 A 
ENDROOT
BRANCH  11  12
HETATM   12  N4  UNL     1      24.535   0.385  53.430  1.00  0.00    -0.387 N 
HETATM   13  H13 UNL     1      24.317   1.093  52.671  1.00  0.00     0.159 HD
BRANCH  12  14
HETATM   14  C13 UNL     1      25.553  -0.237  54.297  1.00  0.00     0.158 C 
BRANCH  14  15
HETATM   15  C14 UNL     1      26.823   0.551  54.169  1.00  0.00    -0.041 A 
HETATM   16  C15 UNL     1      26.730   1.761  53.454  1.00  0.00     0.009 A 
HETATM   17  C16 UNL     1      27.952   2.425  53.397  1.00  0.00     0.001 A 
HETATM   18  C17 UNL     1      29.125   1.962  53.969  1.00  0.00     0.000 A 
HETATM   19  C18 UNL     1      29.079   0.771  54.633  1.00  0.00     0.001 A 
HETATM   20  C19 UNL     1      27.932   0.017  54.762  1.00  0.00     0.009 A 
ENDBRANCH  14  15
ENDBRANCH  12  14
ENDBRANCH  11  12
BRANCH   1  21
HETATM   21  N1  UNL     1      23.480   2.450  50.141  1.00  0.00    -0.377 N 
HETATM   22  H6  UNL     1      24.459   2.401  49.944  1.00  0.00     0.160 HD
BRANCH  21  23
HETATM   23  C2  UNL     1      23.084   3.861  50.063  1.00  0.00     0.139 C 
HETATM   24  C1  UNL     1      23.187   4.378  48.635  1.00  0.00     0.039 C 
BRANCH  23  25
HETATM   25  C3  UNL     1      23.894   4.730  50.953  1.00  0.00     0.255 C 
HETATM   26  O1  UNL     1      23.953   5.785  51.582  1.00  0.00    -0.305 OA
ENDBRANCH  23  25
ENDBRANCH  21  23
ENDBRANCH   1  21
BRANCH   6  27
HETATM   27  O2  UNL     1      20.544   2.016  49.612  1.00  0.00    -0.358 OA
HETATM   28  H9  UNL     1      20.284   2.982  49.859  1.00  0.00     0.217 HD
ENDBRANCH   6  27
TORSDOF 7
ENDMDL
MODEL 9
REMARK VINA RESULT:      -7.1      2.762      6.849
REMARK  7 active torsions:
REMARK  status: ('A' for Active; 'I' for Inactive)
REMARK    1  A    between atoms: C2_2  and  C3_3 
REMARK    2  A    between atoms: C2_2  and  N1_5 
REMARK    3  A    between atoms: N1_5  and  C4_6 
REMARK    4  A    between atoms: C9_11  and  O2_12 
REMARK    5  A    between atoms: C12_17  and  N4_18 
REMARK    6  A    between atoms: N4_18  and  C13_19 
REMARK    7  A    between atoms: C13_19  and  C14_20 
ROOT
HETATM    1  C4  UNL     1      24.659   3.206  50.479  1.00  0.00     0.063 A 
HETATM    2  C5  UNL     1      24.158   2.209  51.496  1.00  0.00     0.048 A 
HETATM    3  C6  UNL     1      24.843   1.259  52.324  1.00  0.00     0.019 A 
HETATM    4  C7  UNL     1      26.222   1.271  52.151  1.00  0.00     0.073 A 
HETATM    5  C8  UNL     1      26.828   2.122  51.262  1.00  0.00     0.071 A 
HETATM    6  C9  UNL     1      25.895   2.864  50.660  1.00  0.00     0.094 A 
HETATM    7  N2  UNL     1      27.224   0.627  52.698  1.00  0.00    -0.242 NA
HETATM    8  C10 UNL     1      27.144  -0.377  53.741  1.00  0.00     0.227 A 
HETATM    9  N3  UNL     1      26.033  -0.770  54.224  1.00  0.00    -0.277 NA
HETATM   10  C11 UNL     1      24.645  -0.590  54.126  1.00  0.00     0.207 A 
HETATM   11  C12 UNL     1      24.220   0.452  53.172  1.00  0.00     0.038 A 
ENDROOT
BRANCH  11  12
HETATM   12  N4  UNL     1      22.821   0.690  53.059  1.00  0.00    -0.387 N 
HETATM   13  H13 UNL     1      22.855   1.660  52.631  1.00  0.00     0.159 HD
BRANCH  12  14
HETATM   14  C13 UNL     1      21.991  -0.419  53.566  1.00  0.00     0.158 C 
BRANCH  14  15
HETATM   15  C14 UNL     1      20.646  -0.336  52.907  1.00  0.00    -0.041 A 
HETATM   16  C15 UNL     1      20.599   0.362  51.684  1.00  0.00     0.009 A 
HETATM   17  C16 UNL     1      19.316   0.376  51.144  1.00  0.00     0.001 A 
HETATM   18  C17 UNL     1      18.210  -0.220  51.729  1.00  0.00     0.000 A 
HETATM   19  C18 UNL     1      18.393  -0.864  52.918  1.00  0.00     0.001 A 
HETATM   20  C19 UNL     1      19.612  -0.950  53.556  1.00  0.00     0.009 A 
ENDBRANCH  14  15
ENDBRANCH  12  14
ENDBRANCH  11  12
BRANCH   1  21
HETATM   21  N1  UNL     1      23.310   3.570  50.291  1.00  0.00    -0.377 N 
HETATM   22  H6  UNL     1      22.424   3.897  50.618  1.00  0.00     0.160 HD
BRANCH  21  23
HETATM   23  C2  UNL     1      23.194   3.352  48.844  1.00  0.00     0.139 C 
HETATM   24  C1  UNL     1      22.942   4.663  48.113  1.00  0.00     0.039 C 
BRANCH  23  25
HETATM   25  C3  UNL     1      22.119   2.388  48.498  1.00  0.00     0.255 C 
HETATM   26  O1  UNL     1      21.770   1.210  48.454  1.00  0.00    -0.305 OA
ENDBRANCH  23  25
ENDBRANCH  21  23
ENDBRANCH   1  21
BRANCH   6  27
HETATM   27  O2  UNL     1      26.248   3.843  49.672  1.00  0.00    -0.358 OA
HETATM   28  H9  UNL     1      26.374   3.402  48.750  1.00  0.00     0.217 HD
ENDBRANCH   6  27
TORSDOF 7
ENDMDL
