MODEL 1
REMARK VINA RESULT:      -8.6      0.000      0.000
REMARK  3 active torsions:
REMARK  status: ('A' for Active; 'I' for Inactive)
REMARK    1  A    between atoms: O1_2  and  C2_3 
REMARK    2  A    between atoms: C12_16  and  N4_17 
REMARK    3  A    between atoms: N4_17  and  C13_18 
ROOT
HETATM    1  C2  UNL     1      26.359   0.086  54.238  1.00  0.00     0.068 A 
HETATM    2  C3  UNL     1      25.487  -0.896  53.786  1.00  0.00     0.037 A 
HETATM    3  C4  UNL     1      24.347  -0.414  53.188  1.00  0.00     0.011 A 
HETATM    4  C5  UNL     1      23.984   0.899  52.993  1.00  0.00    -0.044 A 
HETATM    5  C6  UNL     1      24.881   1.836  53.458  1.00  0.00    -0.031 A 
HETATM    6  C7  UNL     1      26.065   1.436  54.079  1.00  0.00     0.046 A 
HETATM    7  C8  UNL     1      24.826   3.299  53.424  1.00  0.00     0.159 C 
HETATM    8  N1  UNL     1      24.277   3.815  52.184  1.00  0.00    -0.381 N 
HETATM    9  C9  UNL     1      23.639   3.123  51.119  1.00  0.00     0.100 A 
HETATM   10  C10 UNL     1      22.939   1.937  51.134  1.00  0.00     0.070 A 
HETATM   11  N2  UNL     1      22.437   1.522  49.959  1.00  0.00    -0.244 NA
HETATM   12  C11 UNL     1      22.604   2.220  48.821  1.00  0.00     0.235 A 
HETATM   13  N3  UNL     1      23.293   3.374  48.839  1.00  0.00    -0.222 NA
HETATM   14  C12 UNL     1      23.825   3.858  49.968  1.00  0.00     0.158 A 
HETATM   15  C18 UNL     1      22.679   1.068  52.310  1.00  0.00     0.101 C 
HETATM   16  H9  UNL     1      24.352   4.842  52.041  1.00  0.00     0.160 HD
ENDROOT
BRANCH  14  17
HETATM   17  N4  UNL     1      24.532   5.082  49.843  1.00  0.00    -0.339 N 
HETATM   18  H11 UNL     1      24.398   6.093  50.035  1.00  0.00     0.167 HD
BRANCH  17  19
HETATM   19  C13 UNL     1      25.870   5.154  49.301  1.00  0.00     0.029 A 
HETATM   20  C14 UNL     1      26.175   6.365  48.804  1.00  0.00     0.006 A 
HETATM   21  C15 UNL     1      27.569   6.378  48.261  1.00  0.00     0.056 A 
HETATM   22  C16 UNL     1      27.991   4.980  48.535  1.00  0.00    -0.021 A 
HETATM   23  C17 UNL     1      27.015   4.294  49.127  1.00  0.00     0.025 A 
ENDBRANCH  17  19
ENDBRANCH  14  17
BRANCH   1  24
HETATM   24  O1  UNL     1      27.545  -0.281  54.859  1.00  0.00    -0.356 OA
HETATM   25  C1  UNL     1      28.702   0.477  54.562  1.00  0.00     0.210 C 
ENDBRANCH   1  24
TORSDOF 3
ENDMDL
MODEL 2
REMARK VINA RESULT:      -8.1      3.828      6.390
REMARK  3 active torsions:
REMARK  status: ('A' for Active; 'I' for Inactive)
REMARK    1  A    between atoms: O1_2  and  C2_3 
REMARK    2  A    between atoms: C12_16  and  N4_17 
REMARK    3  A    between atoms: N4_17  and  C13_18 
ROOT
HETATM    1  C2  UNL     1      20.992   3.226  51.916  1.00  0.00     0.068 A 
HETATM    2  C3  UNL     1      20.145   2.285  52.489  1.00  0.00     0.037 A 
HETATM    3  C4  UNL     1      20.735   1.071  52.750  1.00  0.00     0.011 A 
HETATM    4  C5  UNL     1      22.038   0.695  52.513  1.00  0.00    -0.044 A 
HETATM    5  C6  UNL     1      22.838   1.662  51.944  1.00  0.00    -0.031 A 
HETATM    6  C7  UNL     1      22.322   2.923  51.645  1.00  0.00     0.046 A 
HETATM    7  C8  UNL     1      24.250   1.615  51.559  1.00  0.00     0.159 C 
HETATM    8  N1  UNL     1      25.071   0.887  52.508  1.00  0.00    -0.381 N 
HETATM    9  C9  UNL     1      24.681   0.087  53.615  1.00  0.00     0.100 A 
HETATM   10  C10 UNL     1      23.515  -0.613  53.828  1.00  0.00     0.070 A 
HETATM   11  N2  UNL     1      23.427  -1.293  54.984  1.00  0.00    -0.244 NA
HETATM   12  C11 UNL     1      24.418  -1.297  55.892  1.00  0.00     0.235 A 
HETATM   13  N3  UNL     1      25.545  -0.602  55.655  1.00  0.00    -0.222 NA
HETATM   14  C12 UNL     1      25.714   0.102  54.529  1.00  0.00     0.158 A 
HETATM   15  C18 UNL     1      22.344  -0.697  52.917  1.00  0.00     0.101 C 
HETATM   16  H9  UNL     1      26.100   0.949  52.367  1.00  0.00     0.160 HD
ENDROOT
BRANCH  14  17
HETATM   17  N4  UNL     1      26.948   0.792  54.411  1.00  0.00    -0.339 N 
HETATM   18  H11 UNL     1      27.330   1.750  54.527  1.00  0.00     0.167 HD
BRANCH  17  19
HETATM   19  C13 UNL     1      28.172   0.130  54.020  1.00  0.00     0.029 A 
HETATM   20  C14 UNL     1      27.972  -1.102  53.521  1.00  0.00     0.006 A 
HETATM   21  C15 UNL     1      29.271  -1.734  53.134  1.00  0.00     0.056 A 
HETATM   22  C16 UNL     1      30.227  -0.657  53.498  1.00  0.00    -0.021 A 
HETATM   23  C17 UNL     1      29.590   0.398  54.001  1.00  0.00     0.025 A 
ENDBRANCH  17  19
ENDBRANCH  14  17
BRANCH   1  24
HETATM   24  O1  UNL     1      20.507   4.489  51.608  1.00  0.00    -0.356 OA
HETATM   25  C1  UNL     1      21.429   5.442  51.116  1.00  0.00     0.210 C 
ENDBRANCH   1  24
TORSDOF 3
ENDMDL
MODEL 3
REMARK VINA RESULT:      -7.7      3.224      6.578
REMARK  3 active torsions:
REMARK  status: ('A' for Active; 'I' for Inactive)
REMARK    1  A    between atoms: O1_2  and  C2_3 
REMARK    2  A    between atoms: C12_16  and  N4_17 
REMARK    3  A    between atoms: N4_17  and  C13_18 
ROOT
HETATM    1  C2  UNL     1      26.787   0.835  54.163  1.00  0.00     0.068 A 
HETATM    2  C3  UNL     1      26.856   2.005  53.418  1.00  0.00     0.037 A 
HETATM    3  C4  UNL     1      25.824   2.176  52.527  1.00  0.00     0.011 A 
HETATM    4  C5  UNL     1      24.758   1.337  52.296  1.00  0.00    -0.044 A 
HETATM    5  C6  UNL     1      24.732   0.190  53.059  1.00  0.00    -0.031 A 
HETATM    6  C7  UNL     1      25.740  -0.065  53.989  1.00  0.00     0.046 A 
HETATM    7  C8  UNL     1      23.766  -0.910  53.082  1.00  0.00     0.159 C 
HETATM    8  N1  UNL     1      22.394  -0.460  52.944  1.00  0.00    -0.381 N 
HETATM    9  C9  UNL     1      21.892   0.828  52.617  1.00  0.00     0.100 A 
HETATM   10  C10 UNL     1      22.476   1.842  51.890  1.00  0.00     0.070 A 
HETATM   11  N2  UNL     1      21.752   2.963  51.738  1.00  0.00    -0.244 NA
HETATM   12  C11 UNL     1      20.521   3.101  52.262  1.00  0.00     0.235 A 
HETATM   13  N3  UNL     1      19.979   2.092  52.967  1.00  0.00    -0.222 NA
HETATM   14  C12 UNL     1      20.632   0.941  53.166  1.00  0.00     0.158 A 
HETATM   15  C18 UNL     1      23.820   1.828  51.259  1.00  0.00     0.101 C 
HETATM   16  H9  UNL     1      21.657  -1.177  53.105  1.00  0.00     0.160 HD
ENDROOT
BRANCH  14  17
HETATM   17  N4  UNL     1      19.945  -0.035  53.932  1.00  0.00    -0.339 N 
HETATM   18  H11 UNL     1      19.984  -0.470  54.873  1.00  0.00     0.167 HD
BRANCH  17  19
HETATM   19  C13 UNL     1      18.806  -0.762  53.420  1.00  0.00     0.029 A 
HETATM   20  C14 UNL     1      18.715  -2.014  53.904  1.00  0.00     0.006 A 
HETATM   21  C15 UNL     1      17.519  -2.714  53.340  1.00  0.00     0.056 A 
HETATM   22  C16 UNL     1      16.959  -1.653  52.464  1.00  0.00    -0.021 A 
HETATM   23  C17 UNL     1      17.699  -0.548  52.519  1.00  0.00     0.025 A 
ENDBRANCH  17  19
ENDBRANCH  14  17
BRANCH   1  24
HETATM   24  O1  UNL     1      27.775   0.554  55.096  1.00  0.00    -0.356 OA
HETATM   25  C1  UNL     1      29.029   0.116  54.611  1.00  0.00     0.210 C 
ENDBRANCH   1  24
TORSDOF 3
ENDMDL
MODEL 4
REMARK VINA RESULT:      -7.7      2.875      6.411
REMARK  3 active torsions:
REMARK  status: ('A' for Active; 'I' for Inactive)
REMARK    1  A    between atoms: O1_2  and  C2_3 
REMARK    2  A    between atoms: C12_16  and  N4_17 
REMARK    3  A    between atoms: N4_17  and  C13_18 
ROOT
HETATM    1  C2  UNL     1      25.030   6.825  48.690  1.00  0.00     0.068 A 
HETATM    2  C3  UNL     1      23.676   6.516  48.678  1.00  0.00     0.037 A 
HETATM    3  C4  UNL     1      23.388   5.204  48.971  1.00  0.00     0.011 A 
HETATM    4  C5  UNL     1      24.269   4.190  49.267  1.00  0.00    -0.044 A 
HETATM    5  C6  UNL     1      25.601   4.545  49.267  1.00  0.00    -0.031 A 
HETATM    6  C7  UNL     1      25.985   5.855  48.980  1.00  0.00     0.046 A 
HETATM    7  C8  UNL     1      26.795   3.740  49.533  1.00  0.00     0.159 C 
HETATM    8  N1  UNL     1      26.608   2.791  50.614  1.00  0.00    -0.381 N 
HETATM    9  C9  UNL     1      25.419   2.420  51.297  1.00  0.00     0.100 A 
HETATM   10  C10 UNL     1      24.111   2.445  50.866  1.00  0.00     0.070 A 
HETATM   11  N2  UNL     1      23.183   2.026  51.742  1.00  0.00    -0.244 NA
HETATM   12  C11 UNL     1      23.502   1.602  52.978  1.00  0.00     0.235 A 
HETATM   13  N3  UNL     1      24.788   1.590  53.369  1.00  0.00    -0.222 NA
HETATM   14  C12 UNL     1      25.775   1.991  52.558  1.00  0.00     0.158 A 
HETATM   15  C18 UNL     1      23.618   2.886  49.536  1.00  0.00     0.101 C 
HETATM   16  H9  UNL     1      27.463   2.300  50.947  1.00  0.00     0.160 HD
ENDROOT
BRANCH  14  17
HETATM   17  N4  UNL     1      27.084   1.931  53.101  1.00  0.00    -0.339 N 
HETATM   18  H11 UNL     1      27.794   2.563  53.519  1.00  0.00     0.167 HD
BRANCH  17  19
HETATM   19  C13 UNL     1      27.831   0.697  53.192  1.00  0.00     0.029 A 
HETATM   20  C14 UNL     1      29.092   0.873  53.623  1.00  0.00     0.006 A 
HETATM   21  C15 UNL     1      29.813  -0.437  53.697  1.00  0.00     0.056 A 
HETATM   22  C16 UNL     1      28.752  -1.368  53.238  1.00  0.00    -0.021 A 
HETATM   23  C17 UNL     1      27.629  -0.711  52.954  1.00  0.00     0.025 A 
ENDBRANCH  17  19
ENDBRANCH  14  17
BRANCH   1  24
HETATM   24  O1  UNL     1      25.443   8.120  48.409  1.00  0.00    -0.356 OA
HETATM   25  C1  UNL     1      26.642   8.570  49.009  1.00  0.00     0.210 C 
ENDBRANCH   1  24
TORSDOF 3
ENDMDL
MODEL 5
REMARK VINA RESULT:      -7.5      3.099      6.169
REMARK  3 active torsions:
REMARK  status: ('A' for Active; 'I' for Inactive)
REMARK    1  A    between atoms: O1_2  and  C2_3 
REMARK    2  A    between atoms: C12_16  and  N4_17 
REMARK    3  A    between atoms: N4_17  and  C13_18 
ROOT
HETATM    1  C2  UNL     1      22.592   5.671  50.842  1.00  0.00     0.068 A 
HETATM    2  C3  UNL     1      21.405   4.957  50.946  1.00  0.00     0.037 A 
HETATM    3  C4  UNL     1      21.559   3.591  50.934  1.00  0.00     0.011 A 
HETATM    4  C5  UNL     1      22.728   2.872  50.832  1.00  0.00    -0.044 A 
HETATM    5  C6  UNL     1      23.878   3.624  50.732  1.00  0.00    -0.031 A 
HETATM    6  C7  UNL     1      23.815   5.018  50.736  1.00  0.00     0.046 A 
HETATM    7  C8  UNL     1      25.276   3.205  50.610  1.00  0.00     0.159 C 
HETATM    8  N1  UNL     1      25.593   2.050  51.429  1.00  0.00    -0.381 N 
HETATM    9  C9  UNL     1      24.727   1.192  52.158  1.00  0.00     0.100 A 
HETATM   10  C10 UNL     1      23.402   0.885  51.939  1.00  0.00     0.070 A 
HETATM   11  N2  UNL     1      22.835   0.027  52.803  1.00  0.00    -0.244 NA
HETATM   12  C11 UNL     1      23.515  -0.511  53.831  1.00  0.00     0.235 A 
HETATM   13  N3  UNL     1      24.807  -0.191  54.018  1.00  0.00    -0.222 NA
HETATM   14  C12 UNL     1      25.448   0.656  53.203  1.00  0.00     0.158 A 
HETATM   15  C18 UNL     1      22.533   1.403  50.850  1.00  0.00     0.101 C 
HETATM   16  H9  UNL     1      26.600   1.801  51.500  1.00  0.00     0.160 HD
ENDROOT
BRANCH  14  17
HETATM   17  N4  UNL     1      26.808   0.909  53.520  1.00  0.00    -0.339 N 
HETATM   18  H11 UNL     1      27.410   1.690  53.843  1.00  0.00     0.167 HD
BRANCH  17  19
HETATM   19  C13 UNL     1      27.827  -0.111  53.431  1.00  0.00     0.029 A 
HETATM   20  C14 UNL     1      29.048   0.329  53.784  1.00  0.00     0.006 A 
HETATM   21  C15 UNL     1      30.059  -0.769  53.672  1.00  0.00     0.056 A 
HETATM   22  C16 UNL     1      29.206  -1.890  53.201  1.00  0.00    -0.021 A 
HETATM   23  C17 UNL     1      27.939  -1.503  53.067  1.00  0.00     0.025 A 
ENDBRANCH  17  19
ENDBRANCH  14  17
BRANCH   1  24
HETATM   24  O1  UNL     1      22.561   7.058  50.844  1.00  0.00    -0.356 OA
HETATM   25  C1  UNL     1      23.800   7.741  50.830  1.00  0.00     0.210 C 
ENDBRANCH   1  24
TORSDOF 3
ENDMDL
MODEL 6
REMARK VINA RESULT:      -7.5      3.225      6.198
REMARK  3 active torsions:
REMARK  status: ('A' for Active; 'I' for Inactive)
REMARK    1  A    between atoms: O1_2  and  C2_3 
REMARK    2  A    between atoms: C12_16  and  N4_17 
REMARK    3  A    between atoms: N4_17  and  C13_18 
ROOT
HETATM    1  C2  UNL     1      19.479   0.621  51.485  1.00  0.00     0.068 A 
HETATM    2  C3  UNL     1      19.535   1.902  50.951  1.00  0.00     0.037 A 
HETATM    3  C4  UNL     1      20.638   2.631  51.330  1.00  0.00     0.011 A 
HETATM    4  C5  UNL     1      21.665   2.241  52.159  1.00  0.00    -0.044 A 
HETATM    5  C6  UNL     1      21.565   0.963  52.663  1.00  0.00    -0.031 A 
HETATM    6  C7  UNL     1      20.479   0.152  52.331  1.00  0.00     0.046 A 
HETATM    7  C8  UNL     1      22.459   0.226  53.560  1.00  0.00     0.159 C 
HETATM    8  N1  UNL     1      23.862   0.466  53.281  1.00  0.00    -0.381 N 
HETATM    9  C9  UNL     1      24.464   1.420  52.417  1.00  0.00     0.100 A 
HETATM   10  C10 UNL     1      23.997   2.645  51.997  1.00  0.00     0.070 A 
HETATM   11  N2  UNL     1      24.796   3.340  51.171  1.00  0.00    -0.244 NA
HETATM   12  C11 UNL     1      25.992   2.875  50.769  1.00  0.00     0.235 A 
HETATM   13  N3  UNL     1      26.420   1.674  51.197  1.00  0.00    -0.222 NA
HETATM   14  C12 UNL     1      25.685   0.917  52.021  1.00  0.00     0.158 A 
HETATM   15  C18 UNL     1      22.703   3.280  52.359  1.00  0.00     0.101 C 
HETATM   16  H9  UNL     1      24.540  -0.142  53.784  1.00  0.00     0.160 HD
ENDROOT
BRANCH  14  17
HETATM   17  N4  UNL     1      26.255  -0.329  52.389  1.00  0.00    -0.339 N 
HETATM   18  H11 UNL     1      26.064  -1.344  52.287  1.00  0.00     0.167 HD
BRANCH  17  19
HETATM   19  C13 UNL     1      27.485  -0.428  53.141  1.00  0.00     0.029 A 
HETATM   20  C14 UNL     1      27.529   0.406  54.195  1.00  0.00     0.006 A 
HETATM   21  C15 UNL     1      28.822   0.258  54.933  1.00  0.00     0.056 A 
HETATM   22  C16 UNL     1      29.491  -0.791  54.122  1.00  0.00    -0.021 A 
HETATM   23  C17 UNL     1      28.720  -1.172  53.105  1.00  0.00     0.025 A 
ENDBRANCH  17  19
ENDBRANCH  14  17
BRANCH   1  24
HETATM   24  O1  UNL     1      18.412  -0.208  51.172  1.00  0.00    -0.356 OA
HETATM   25  C1  UNL     1      17.564   0.187  50.110  1.00  0.00     0.210 C 
ENDBRANCH   1  24
TORSDOF 3
ENDMDL
MODEL 7
REMARK VINA RESULT:      -7.3      2.772      6.716
REMARK  3 active torsions:
REMARK  status: ('A' for Active; 'I' for Inactive)
REMARK    1  A    between atoms: O1_2  and  C2_3 
REMARK    2  A    between atoms: C12_16  and  N4_17 
REMARK    3  A    between atoms: N4_17  and  C13_18 
ROOT
HETATM    1  C2  UNL     1      28.312   6.685  48.185  1.00  0.00     0.068 A 
HETATM    2  C3  UNL     1      27.278   7.565  47.896  1.00  0.00     0.037 A 
HETATM    3  C4  UNL     1      26.019   7.054  48.106  1.00  0.00     0.011 A 
HETATM    4  C5  UNL     1      25.680   5.800  48.560  1.00  0.00    -0.044 A 
HETATM    5  C6  UNL     1      26.740   4.964  48.834  1.00  0.00    -0.031 A 
HETATM    6  C7  UNL     1      28.052   5.399  48.649  1.00  0.00     0.046 A 
HETATM    7  C8  UNL     1      26.754   3.584  49.325  1.00  0.00     0.159 C 
HETATM    8  N1  UNL     1      25.742   3.332  50.333  1.00  0.00    -0.381 N 
HETATM    9  C9  UNL     1      24.662   4.152  50.756  1.00  0.00     0.100 A 
HETATM   10  C10 UNL     1      23.977   5.130  50.069  1.00  0.00     0.070 A 
HETATM   11  N2  UNL     1      22.985   5.746  50.733  1.00  0.00    -0.244 NA
HETATM   12  C11 UNL     1      22.667   5.432  52.002  1.00  0.00     0.235 A 
HETATM   13  N3  UNL     1      23.355   4.472  52.646  1.00  0.00    -0.222 NA
HETATM   14  C12 UNL     1      24.358   3.810  52.057  1.00  0.00     0.158 A 
HETATM   15  C18 UNL     1      24.219   5.577  48.673  1.00  0.00     0.101 C 
HETATM   16  H9  UNL     1      25.802   2.417  50.825  1.00  0.00     0.160 HD
ENDROOT
BRANCH  14  17
HETATM   17  N4  UNL     1      25.001   2.827  52.853  1.00  0.00    -0.339 N 
HETATM   18  H11 UNL     1      25.869   2.707  53.408  1.00  0.00     0.167 HD
BRANCH  17  19
HETATM   19  C13 UNL     1      24.428   1.521  53.085  1.00  0.00     0.029 A 
HETATM   20  C14 UNL     1      25.250   0.694  53.755  1.00  0.00     0.006 A 
HETATM   21  C15 UNL     1      24.604  -0.638  53.966  1.00  0.00     0.056 A 
HETATM   22  C16 UNL     1      23.291  -0.422  53.307  1.00  0.00    -0.021 A 
HETATM   23  C17 UNL     1      23.203   0.811  52.810  1.00  0.00     0.025 A 
ENDBRANCH  17  19
ENDBRANCH  14  17
BRANCH   1  24
HETATM   24  O1  UNL     1      29.628   7.089  48.012  1.00  0.00    -0.356 OA
HETATM   25  C1  UNL     1      30.600   6.084  47.797  1.00  0.00     0.210 C 
ENDBRANCH   1  24
TORSDOF 3
ENDMDL
MODEL 8
REMARK VINA RESULT:      -7.1      5.040      8.263
REMARK  3 active torsions:
REMARK  status: ('A' for Active; 'I' for Inactive)
REMARK    1  A    between atoms: O1_2  and  C2_3 
REMARK    2  A    between atoms: C12_16  and  N4_17 
REMARK    3  A    between atoms: N4_17  and  C13_18 
ROOT
HETATM    1  C2  UNL     1      32.189   5.962  48.049  1.00  0.00     0.068 A 
HETATM    2  C3  UNL     1      32.350   7.120  47.299  1.00  0.00     0.037 A 
HETATM    3  C4  UNL     1      31.173   7.726  46.926  1.00  0.00     0.011 A 
HETATM    4  C5  UNL     1      29.888   7.322  47.207  1.00  0.00    -0.044 A 
HETATM    5  C6  UNL     1      29.780   6.169  47.954  1.00  0.00    -0.031 A 
HETATM    6  C7  UNL     1      30.923   5.488  48.375  1.00  0.00     0.046 A 
HETATM    7  C8  UNL     1      28.592   5.458  48.432  1.00  0.00     0.159 C 
HETATM    8  N1  UNL     1      27.539   6.353  48.875  1.00  0.00    -0.381 N 
HETATM    9  C9  UNL     1      27.432   7.763  48.740  1.00  0.00     0.100 A 
HETATM   10  C10 UNL     1      27.978   8.601  47.793  1.00  0.00     0.070 A 
HETATM   11  N2  UNL     1      27.699   9.908  47.917  1.00  0.00    -0.244 NA
HETATM   12  C11 UNL     1      26.928  10.387  48.911  1.00  0.00     0.235 A 
HETATM   13  N3  UNL     1      26.410   9.543  49.820  1.00  0.00    -0.222 NA
HETATM   14  C12 UNL     1      26.639   8.225  49.768  1.00  0.00     0.158 A 
HETATM   15  C18 UNL     1      28.843   8.212  46.649  1.00  0.00     0.101 C 
HETATM   16  H9  UNL     1      26.735   5.908  49.363  1.00  0.00     0.160 HD
ENDROOT
BRANCH  14  17
HETATM   17  N4  UNL     1      26.035   7.452  50.794  1.00  0.00    -0.339 N 
HETATM   18  H11 UNL     1      26.293   6.982  51.682  1.00  0.00     0.167 HD
BRANCH  17  19
HETATM   19  C13 UNL     1      24.633   7.105  50.780  1.00  0.00     0.029 A 
HETATM   20  C14 UNL     1      24.416   5.778  50.771  1.00  0.00     0.006 A 
HETATM   21  C15 UNL     1      22.949   5.482  50.758  1.00  0.00     0.056 A 
HETATM   22  C16 UNL     1      22.384   6.855  50.761  1.00  0.00    -0.021 A 
HETATM   23  C17 UNL     1      23.352   7.770  50.774  1.00  0.00     0.025 A 
ENDBRANCH  17  19
ENDBRANCH  14  17
BRANCH   1  24
HETATM   24  O1  UNL     1      33.307   5.264  48.483  1.00  0.00    -0.356 OA
HETATM   25  C1  UNL     1      34.515   5.986  48.630  1.00  0.00     0.210 C 
ENDBRANCH   1  24
TORSDOF 3
ENDMDL
MODEL 9
REMARK VINA RESULT:      -6.6      5.630      8.396
REMARK  3 active torsions:
REMARK  status: ('A' for Active; 'I' for Inactive)
REMARK    1  A    between atoms: O1_2  and  C2_3 
REMARK    2  A    between atoms: C12_16  and  N4_17 
REMARK    3  A    between atoms: N4_17  and  C13_18 
ROOT
HETATM    1  C2  UNL     1      25.089   6.455  49.259  1.00  0.00     0.068 A 
HETATM    2  C3  UNL     1      25.548   5.192  49.610  1.00  0.00     0.037 A 
HETATM    3  C4  UNL     1      26.808   4.895  49.148  1.00  0.00     0.011 A 
HETATM    4  C5  UNL     1      27.642   5.689  48.395  1.00  0.00    -0.044 A 
HETATM    5  C6  UNL     1      27.143   6.932  48.073  1.00  0.00    -0.031 A 
HETATM    6  C7  UNL     1      25.873   7.318  48.500  1.00  0.00     0.046 A 
HETATM    7  C8  UNL     1      27.743   8.022  47.299  1.00  0.00     0.159 C 
HETATM    8  N1  UNL     1      29.160   8.187  47.560  1.00  0.00    -0.381 N 
HETATM    9  C9  UNL     1      30.049   7.354  48.291  1.00  0.00     0.100 A 
HETATM   10  C10 UNL     1      29.990   5.999  48.530  1.00  0.00     0.070 A 
HETATM   11  N2  UNL     1      30.988   5.475  49.261  1.00  0.00    -0.244 NA
HETATM   12  C11 UNL     1      31.997   6.224  49.740  1.00  0.00     0.235 A 
HETATM   13  N3  UNL     1      32.026   7.545  49.489  1.00  0.00    -0.222 NA
HETATM   14  C12 UNL     1      31.071   8.146  48.769  1.00  0.00     0.158 A 
HETATM   15  C18 UNL     1      28.941   5.055  48.066  1.00  0.00     0.101 C 
HETATM   16  H9  UNL     1      29.605   9.036  47.156  1.00  0.00     0.160 HD
ENDROOT
BRANCH  14  17
HETATM   17  N4  UNL     1      31.223   9.545  48.586  1.00  0.00    -0.339 N 
HETATM   18  H11 UNL     1      30.904  10.435  49.013  1.00  0.00     0.167 HD
BRANCH  17  19
HETATM   19  C13 UNL     1      32.038  10.105  47.532  1.00  0.00     0.029 A 
HETATM   20  C14 UNL     1      31.557  11.266  47.052  1.00  0.00     0.006 A 
HETATM   21  C15 UNL     1      32.441  11.797  45.968  1.00  0.00     0.056 A 
HETATM   22  C16 UNL     1      33.490  10.746  45.921  1.00  0.00    -0.021 A 
HETATM   23  C17 UNL     1      33.249   9.790  46.815  1.00  0.00     0.025 A 
ENDBRANCH  17  19
ENDBRANCH  14  17
BRANCH   1  24
HETATM   24  O1  UNL     1      23.829   6.867  49.671  1.00  0.00    -0.356 OA
HETATM   25  C1  UNL     1      23.285   6.258  50.826  1.00  0.00     0.210 C 
ENDBRANCH   1  24
TORSDOF 3
ENDMDL
