MODEL 1
REMARK VINA RESULT:      -9.1      0.000      0.000
REMARK  6 active torsions:
REMARK  status: ('A' for Active; 'I' for Inactive)
REMARK       I    between atoms: N1_2  and  C2_3 
REMARK    1  A    between atoms: C2_3  and  C3_5 
REMARK    2  A    between atoms: C4_6  and  N2_7 
REMARK    3  A    between atoms: N2_7  and  C5_8 
REMARK    4  A    between atoms: C12_16  and  C13_17 
REMARK    5  A    between atoms: C14_18  and  C15_19 
REMARK    6  A    between atoms: C15_19  and  N3_20 
ROOT
HETATM    1  C3  UNL     1      24.159   2.463  51.058  1.00  0.00     0.100 C 
HETATM    2  C4  UNL     1      25.450   2.735  51.194  1.00  0.00     0.033 C 
HETATM    3  C11 UNL     1      26.456   3.316  50.283  1.00  0.00     0.096 C 
HETATM    4  C12 UNL     1      25.854   4.260  49.342  1.00  0.00    -0.056 C 
HETATM    5  C21 UNL     1      24.681   4.474  48.799  1.00  0.00    -0.012 C 
HETATM    6  C22 UNL     1      23.388   3.809  48.919  1.00  0.00     0.112 C 
HETATM    7  C23 UNL     1      23.368   2.684  49.855  1.00  0.00     0.170 C 
HETATM    8  O2  UNL     1      22.546   1.732  49.615  1.00  0.00    -0.292 OA
ENDROOT
BRANCH   4   9
HETATM    9  C13 UNL     1      26.868   5.239  48.889  1.00  0.00     0.005 C 
HETATM   10  C14 UNL     1      28.154   5.182  48.526  1.00  0.00     0.004 C 
BRANCH  10  11
HETATM   11  C15 UNL     1      29.115   6.202  48.083  1.00  0.00     0.300 C 
BRANCH  11  12
HETATM   12  N3  UNL     1      30.418   5.967  48.604  1.00  0.00     0.095 N 
HETATM   13  C16 UNL     1      31.221   5.224  47.628  1.00  0.00     0.303 C 
HETATM   14  C17 UNL     1      32.336   6.027  47.041  1.00  0.00     0.302 C 
HETATM   15  N4  UNL     1      32.020   7.395  46.764  1.00  0.00     0.087 N 
HETATM   16  C18 UNL     1      31.429   7.602  45.475  1.00  0.00     0.310 C 
HETATM   17  C19 UNL     1      31.343   8.054  47.844  1.00  0.00     0.302 C 
HETATM   18  C20 UNL     1      31.136   7.134  49.031  1.00  0.00     0.303 C 
ENDBRANCH  11  12
ENDBRANCH  10  11
ENDBRANCH   4   9
BRANCH   2  19
HETATM   19  N2  UNL     1      26.077   2.440  52.443  1.00  0.00    -0.358 N 
HETATM   20  H5  UNL     1      25.705   3.103  53.187  1.00  0.00     0.166 HD
BRANCH  19  21
HETATM   21  C5  UNL     1      27.053   1.447  52.782  1.00  0.00     0.034 A 
HETATM   22  C6  UNL     1      28.260   1.868  53.332  1.00  0.00     0.029 A 
HETATM   23  C7  UNL     1      29.152   0.861  53.634  1.00  0.00     0.004 A 
HETATM   24  C8  UNL     1      28.902  -0.479  53.421  1.00  0.00     0.024 A 
HETATM   25  C9  UNL     1      27.690  -0.781  52.879  1.00  0.00     0.036 A 
HETATM   26 CL1  UNL     1      27.356  -2.493  52.601  1.00  0.00    -0.084 Cl
HETATM   27  C10 UNL     1      26.720   0.132  52.536  1.00  0.00     0.053 A 
ENDBRANCH  19  21
ENDBRANCH   2  19
BRANCH   1  28
HETATM   28  C2  UNL     1      23.501   1.881  52.219  1.00  0.00     0.256 C 
HETATM   29  N1  UNL     1      22.967   0.602  52.429  1.00  0.00    -0.361 N 
HETATM   30  C1  UNL     1      22.359   0.275  53.711  1.00  0.00     0.149 C 
HETATM   31  H4  UNL     1      23.041  -0.040  51.622  1.00  0.00     0.162 HD
HETATM   32  O1  UNL     1      23.351   2.594  53.262  1.00  0.00    -0.267 OA
ENDBRANCH   1  28
TORSDOF 6
ENDMDL
MODEL 2
REMARK VINA RESULT:      -8.9      1.039      1.553
REMARK  6 active torsions:
REMARK  status: ('A' for Active; 'I' for Inactive)
REMARK       I    between atoms: N1_2  and  C2_3 
REMARK    1  A    between atoms: C2_3  and  C3_5 
REMARK    2  A    between atoms: C4_6  and  N2_7 
REMARK    3  A    between atoms: N2_7  and  C5_8 
REMARK    4  A    between atoms: C12_16  and  C13_17 
REMARK    5  A    between atoms: C14_18  and  C15_19 
REMARK    6  A    between atoms: C15_19  and  N3_20 
ROOT
HETATM    1  C3  UNL     1      24.132   2.472  51.066  1.00  0.00     0.100 C 
HETATM    2  C4  UNL     1      25.423   2.740  51.205  1.00  0.00     0.033 C 
HETATM    3  C11 UNL     1      26.433   3.321  50.299  1.00  0.00     0.096 C 
HETATM    4  C12 UNL     1      25.835   4.270  49.359  1.00  0.00    -0.056 C 
HETATM    5  C21 UNL     1      24.664   4.490  48.815  1.00  0.00    -0.012 C 
HETATM    6  C22 UNL     1      23.369   3.827  48.929  1.00  0.00     0.112 C 
HETATM    7  C23 UNL     1      23.343   2.699  49.861  1.00  0.00     0.170 C 
HETATM    8  O2  UNL     1      22.520   1.751  49.617  1.00  0.00    -0.292 OA
ENDROOT
BRANCH   4   9
HETATM    9  C13 UNL     1      26.853   5.247  48.912  1.00  0.00     0.005 C 
HETATM   10  C14 UNL     1      28.130   5.183  48.518  1.00  0.00     0.004 C 
BRANCH  10  11
HETATM   11  C15 UNL     1      29.095   6.202  48.082  1.00  0.00     0.300 C 
BRANCH  11  12
HETATM   12  N3  UNL     1      28.471   7.461  47.853  1.00  0.00     0.095 N 
HETATM   13  C16 UNL     1      28.944   8.441  48.833  1.00  0.00     0.303 C 
HETATM   14  C17 UNL     1      29.794   9.516  48.238  1.00  0.00     0.302 C 
HETATM   15  N4  UNL     1      30.699   9.081  47.219  1.00  0.00     0.087 N 
HETATM   16  C18 UNL     1      31.956   8.611  47.722  1.00  0.00     0.310 C 
HETATM   17  C19 UNL     1      30.089   8.223  46.244  1.00  0.00     0.302 C 
HETATM   18  C20 UNL     1      28.618   7.994  46.528  1.00  0.00     0.303 C 
ENDBRANCH  11  12
ENDBRANCH  10  11
ENDBRANCH   4   9
BRANCH   2  19
HETATM   19  N2  UNL     1      26.047   2.439  52.454  1.00  0.00    -0.358 N 
HETATM   20  H5  UNL     1      25.667   3.093  53.202  1.00  0.00     0.166 HD
BRANCH  19  21
HETATM   21  C5  UNL     1      27.027   1.450  52.790  1.00  0.00     0.034 A 
HETATM   22  C6  UNL     1      28.230   1.873  53.348  1.00  0.00     0.029 A 
HETATM   23  C7  UNL     1      29.127   0.870  53.646  1.00  0.00     0.004 A 
HETATM   24  C8  UNL     1      28.887  -0.470  53.422  1.00  0.00     0.024 A 
HETATM   25  C9  UNL     1      27.679  -0.776  52.872  1.00  0.00     0.036 A 
HETATM   26 CL1  UNL     1      27.357  -2.487  52.579  1.00  0.00    -0.084 Cl
HETATM   27  C10 UNL     1      26.704   0.134  52.531  1.00  0.00     0.053 A 
ENDBRANCH  19  21
ENDBRANCH   2  19
BRANCH   1  28
HETATM   28  C2  UNL     1      23.469   1.888  52.223  1.00  0.00     0.256 C 
HETATM   29  N1  UNL     1      22.979   0.594  52.447  1.00  0.00    -0.361 N 
HETATM   30  C1  UNL     1      22.354   0.269  53.721  1.00  0.00     0.149 C 
HETATM   31  H4  UNL     1      23.096  -0.060  51.655  1.00  0.00     0.162 HD
HETATM   32  O1  UNL     1      23.269   2.615  53.248  1.00  0.00    -0.267 OA
ENDBRANCH   1  28
TORSDOF 6
ENDMDL
MODEL 3
REMARK VINA RESULT:      -8.9      1.749      2.416
REMARK  6 active torsions:
REMARK  status: ('A' for Active; 'I' for Inactive)
REMARK       I    between atoms: N1_2  and  C2_3 
REMARK    1  A    between atoms: C2_3  and  C3_5 
REMARK    2  A    between atoms: C4_6  and  N2_7 
REMARK    3  A    between atoms: N2_7  and  C5_8 
REMARK    4  A    between atoms: C12_16  and  C13_17 
REMARK    5  A    between atoms: C14_18  and  C15_19 
REMARK    6  A    between atoms: C15_19  and  N3_20 
ROOT
HETATM    1  C3  UNL     1      24.141   2.182  51.192  1.00  0.00     0.100 C 
HETATM    2  C4  UNL     1      25.450   2.289  51.376  1.00  0.00     0.033 C 
HETATM    3  C11 UNL     1      26.554   2.736  50.504  1.00  0.00     0.096 C 
HETATM    4  C12 UNL     1      26.111   3.747  49.543  1.00  0.00    -0.056 C 
HETATM    5  C21 UNL     1      24.995   4.106  48.959  1.00  0.00    -0.012 C 
HETATM    6  C22 UNL     1      23.625   3.610  49.029  1.00  0.00     0.112 C 
HETATM    7  C23 UNL     1      23.428   2.499  49.961  1.00  0.00     0.170 C 
HETATM    8  O2  UNL     1      22.502   1.658  49.690  1.00  0.00    -0.292 OA
ENDROOT
BRANCH   4   9
HETATM    9  C13 UNL     1      27.257   4.588  49.130  1.00  0.00     0.005 C 
HETATM   10  C14 UNL     1      27.407   5.726  48.443  1.00  0.00     0.004 C 
BRANCH  10  11
HETATM   11  C15 UNL     1      28.586   6.517  48.063  1.00  0.00     0.300 C 
BRANCH  11  12
HETATM   12  N3  UNL     1      28.252   7.568  47.163  1.00  0.00     0.095 N 
HETATM   13  C16 UNL     1      26.854   7.963  47.350  1.00  0.00     0.303 C 
HETATM   14  C17 UNL     1      26.693   9.326  47.938  1.00  0.00     0.302 C 
HETATM   15  N4  UNL     1      27.638   9.664  48.959  1.00  0.00     0.087 N 
HETATM   16  C18 UNL     1      27.245   9.245  50.272  1.00  0.00     0.310 C 
HETATM   17  C19 UNL     1      28.992   9.343  48.610  1.00  0.00     0.302 C 
HETATM   18  C20 UNL     1      29.094   8.730  47.227  1.00  0.00     0.303 C 
ENDBRANCH  11  12
ENDBRANCH  10  11
ENDBRANCH   4   9
BRANCH   2  19
HETATM   19  N2  UNL     1      25.988   1.920  52.646  1.00  0.00    -0.358 N 
HETATM   20  H5  UNL     1      25.415   2.377  53.416  1.00  0.00     0.166 HD
BRANCH  19  21
HETATM   21  C5  UNL     1      27.102   1.081  52.975  1.00  0.00     0.034 A 
HETATM   22  C6  UNL     1      28.238   1.673  53.520  1.00  0.00     0.029 A 
HETATM   23  C7  UNL     1      29.271   0.809  53.813  1.00  0.00     0.004 A 
HETATM   24  C8  UNL     1      29.220  -0.553  53.596  1.00  0.00     0.024 A 
HETATM   25  C9  UNL     1      28.063  -1.030  53.061  1.00  0.00     0.036 A 
HETATM   26 CL1  UNL     1      27.983  -2.771  52.778  1.00  0.00    -0.084 Cl
HETATM   27  C10 UNL     1      26.965  -0.269  52.726  1.00  0.00     0.053 A 
ENDBRANCH  19  21
ENDBRANCH   2  19
BRANCH   1  28
HETATM   28  C2  UNL     1      23.372   1.690  52.327  1.00  0.00     0.256 C 
HETATM   29  N1  UNL     1      22.760   0.451  52.556  1.00  0.00    -0.361 N 
HETATM   30  C1  UNL     1      22.045   0.217  53.802  1.00  0.00     0.149 C 
HETATM   31  H4  UNL     1      22.859  -0.233  51.787  1.00  0.00     0.162 HD
HETATM   32  O1  UNL     1      23.184   2.461  53.321  1.00  0.00    -0.267 OA
ENDBRANCH   1  28
TORSDOF 6
ENDMDL
MODEL 4
REMARK VINA RESULT:      -8.5      4.801      8.484
REMARK  6 active torsions:
REMARK  status: ('A' for Active; 'I' for Inactive)
REMARK       I    between atoms: N1_2  and  C2_3 
REMARK    1  A    between atoms: C2_3  and  C3_5 
REMARK    2  A    between atoms: C4_6  and  N2_7 
REMARK    3  A    between atoms: N2_7  and  C5_8 
REMARK    4  A    between atoms: C12_16  and  C13_17 
REMARK    5  A    between atoms: C14_18  and  C15_19 
REMARK    6  A    between atoms: C15_19  and  N3_20 
ROOT
HETATM    1  C3  UNL     1      24.850  -0.047  54.100  1.00  0.00     0.100 C 
HETATM    2  C4  UNL     1      24.296   0.515  53.034  1.00  0.00     0.033 C 
HETATM    3  C11 UNL     1      22.971   0.376  52.398  1.00  0.00     0.096 C 
HETATM    4  C12 UNL     1      21.932   0.053  53.377  1.00  0.00    -0.056 C 
HETATM    5  C21 UNL     1      21.851  -0.516  54.554  1.00  0.00    -0.012 C 
HETATM    6  C22 UNL     1      22.841  -1.108  55.448  1.00  0.00     0.112 C 
HETATM    7  C23 UNL     1      24.219  -1.039  54.961  1.00  0.00     0.170 C 
HETATM    8  O2  UNL     1      25.020  -1.969  55.322  1.00  0.00    -0.292 OA
ENDROOT
BRANCH   4   9
HETATM    9  C13 UNL     1      20.613   0.504  52.880  1.00  0.00     0.005 C 
HETATM   10  C14 UNL     1      20.186   1.308  51.899  1.00  0.00     0.004 C 
BRANCH  10  11
HETATM   11  C15 UNL     1      18.847   1.719  51.455  1.00  0.00     0.300 C 
BRANCH  11  12
HETATM   12  N3  UNL     1      18.633   3.115  51.635  1.00  0.00     0.095 N 
HETATM   13  C16 UNL     1      19.917   3.819  51.668  1.00  0.00     0.303 C 
HETATM   14  C17 UNL     1      20.146   4.694  50.479  1.00  0.00     0.302 C 
HETATM   15  N4  UNL     1      19.696   4.157  49.232  1.00  0.00     0.087 N 
HETATM   16  C18 UNL     1      20.660   3.321  48.580  1.00  0.00     0.310 C 
HETATM   17  C19 UNL     1      18.372   3.605  49.294  1.00  0.00     0.302 C 
HETATM   18  C20 UNL     1      17.765   3.738  50.677  1.00  0.00     0.303 C 
ENDBRANCH  11  12
ENDBRANCH  10  11
ENDBRANCH   4   9
BRANCH   2  19
HETATM   19  N2  UNL     1      25.065   1.461  52.290  1.00  0.00    -0.358 N 
HETATM   20  H5  UNL     1      26.008   1.033  52.047  1.00  0.00     0.166 HD
BRANCH  19  21
HETATM   21  C5  UNL     1      24.746   2.793  51.867  1.00  0.00     0.034 A 
HETATM   22  C6  UNL     1      23.815   3.516  52.607  1.00  0.00     0.029 A 
HETATM   23  C7  UNL     1      23.555   4.788  52.144  1.00  0.00     0.004 A 
HETATM   24  C8  UNL     1      24.155   5.341  51.031  1.00  0.00     0.024 A 
HETATM   25  C9  UNL     1      25.051   4.548  50.381  1.00  0.00     0.036 A 
HETATM   26 CL1  UNL     1      25.827   5.241  48.954  1.00  0.00    -0.084 Cl
HETATM   27  C10 UNL     1      25.393   3.265  50.744  1.00  0.00     0.053 A 
ENDBRANCH  19  21
ENDBRANCH   2  19
BRANCH   1  28
HETATM   28  C2  UNL     1      26.212   0.367  54.409  1.00  0.00     0.256 C 
HETATM   29  N1  UNL     1      27.414  -0.354  54.413  1.00  0.00    -0.361 N 
HETATM   30  C1  UNL     1      28.657   0.318  54.761  1.00  0.00     0.149 C 
HETATM   31  H4  UNL     1      27.324  -1.353  54.165  1.00  0.00     0.162 HD
HETATM   32  O1  UNL     1      26.427   1.577  54.736  1.00  0.00    -0.267 OA
ENDBRANCH   1  28
TORSDOF 6
ENDMDL
MODEL 5
REMARK VINA RESULT:      -8.4      4.740      9.031
REMARK  6 active torsions:
REMARK  status: ('A' for Active; 'I' for Inactive)
REMARK       I    between atoms: N1_2  and  C2_3 
REMARK    1  A    between atoms: C2_3  and  C3_5 
REMARK    2  A    between atoms: C4_6  and  N2_7 
REMARK    3  A    between atoms: N2_7  and  C5_8 
REMARK    4  A    between atoms: C12_16  and  C13_17 
REMARK    5  A    between atoms: C14_18  and  C15_19 
REMARK    6  A    between atoms: C15_19  and  N3_20 
ROOT
HETATM    1  C3  UNL     1      24.879  -0.057  54.062  1.00  0.00     0.100 C 
HETATM    2  C4  UNL     1      24.351   0.454  52.957  1.00  0.00     0.033 C 
HETATM    3  C11 UNL     1      23.047   0.272  52.290  1.00  0.00     0.096 C 
HETATM    4  C12 UNL     1      21.983  -0.021  53.251  1.00  0.00    -0.056 C 
HETATM    5  C21 UNL     1      21.873  -0.541  54.448  1.00  0.00    -0.012 C 
HETATM    6  C22 UNL     1      22.842  -1.084  55.394  1.00  0.00     0.112 C 
HETATM    7  C23 UNL     1      24.233  -1.019  54.945  1.00  0.00     0.170 C 
HETATM    8  O2  UNL     1      25.033  -1.924  55.368  1.00  0.00    -0.292 OA
ENDROOT
BRANCH   4   9
HETATM    9  C13 UNL     1      20.674   0.393  52.697  1.00  0.00     0.005 C 
HETATM   10  C14 UNL     1      20.124   0.439  51.478  1.00  0.00     0.004 C 
BRANCH  10  11
HETATM   11  C15 UNL     1      18.805   0.867  50.991  1.00  0.00     0.300 C 
BRANCH  11  12
HETATM   12  N3  UNL     1      18.910   1.742  49.874  1.00  0.00     0.095 N 
HETATM   13  C16 UNL     1      17.578   2.028  49.335  1.00  0.00     0.303 C 
HETATM   14  C17 UNL     1      17.142   3.442  49.544  1.00  0.00     0.302 C 
HETATM   15  N4  UNL     1      17.501   4.008  50.808  1.00  0.00     0.087 N 
HETATM   16  C18 UNL     1      16.551   3.748  51.850  1.00  0.00     0.310 C 
HETATM   17  C19 UNL     1      18.867   3.768  51.173  1.00  0.00     0.302 C 
HETATM   18  C20 UNL     1      19.607   2.974  50.114  1.00  0.00     0.303 C 
ENDBRANCH  11  12
ENDBRANCH  10  11
ENDBRANCH   4   9
BRANCH   2  19
HETATM   19  N2  UNL     1      25.131   1.376  52.197  1.00  0.00    -0.358 N 
HETATM   20  H5  UNL     1      26.059   0.923  51.941  1.00  0.00     0.166 HD
BRANCH  19  21
HETATM   21  C5  UNL     1      24.838   2.713  51.771  1.00  0.00     0.034 A 
HETATM   22  C6  UNL     1      23.883   3.438  52.478  1.00  0.00     0.029 A 
HETATM   23  C7  UNL     1      23.651   4.715  52.015  1.00  0.00     0.004 A 
HETATM   24  C8  UNL     1      24.299   5.271  50.931  1.00  0.00     0.024 A 
HETATM   25  C9  UNL     1      25.215   4.476  50.311  1.00  0.00     0.036 A 
HETATM   26 CL1  UNL     1      26.052   5.175  48.921  1.00  0.00    -0.084 Cl
HETATM   27  C10 UNL     1      25.533   3.189  50.679  1.00  0.00     0.053 A 
ENDBRANCH  19  21
ENDBRANCH   2  19
BRANCH   1  28
HETATM   28  C2  UNL     1      26.226   0.385  54.392  1.00  0.00     0.256 C 
HETATM   29  N1  UNL     1      27.436  -0.319  54.457  1.00  0.00    -0.361 N 
HETATM   30  C1  UNL     1      28.662   0.381  54.814  1.00  0.00     0.149 C 
HETATM   31  H4  UNL     1      27.365  -1.328  54.245  1.00  0.00     0.162 HD
HETATM   32  O1  UNL     1      26.418   1.610  54.679  1.00  0.00    -0.267 OA
ENDBRANCH   1  28
TORSDOF 6
ENDMDL
MODEL 6
REMARK VINA RESULT:      -8.4      4.489     10.151
REMARK  6 active torsions:
REMARK  status: ('A' for Active; 'I' for Inactive)
REMARK       I    between atoms: N1_2  and  C2_3 
REMARK    1  A    between atoms: C2_3  and  C3_5 
REMARK    2  A    between atoms: C4_6  and  N2_7 
REMARK    3  A    between atoms: N2_7  and  C5_8 
REMARK    4  A    between atoms: C12_16  and  C13_17 
REMARK    5  A    between atoms: C14_18  and  C15_19 
REMARK    6  A    between atoms: C15_19  and  N3_20 
ROOT
HETATM    1  C3  UNL     1      25.017  -0.084  53.995  1.00  0.00     0.100 C 
HETATM    2  C4  UNL     1      24.603   0.286  52.790  1.00  0.00     0.033 C 
HETATM    3  C11 UNL     1      23.352   0.051  52.041  1.00  0.00     0.096 C 
HETATM    4  C12 UNL     1      22.202  -0.080  52.935  1.00  0.00    -0.056 C 
HETATM    5  C21 UNL     1      21.972  -0.429  54.177  1.00  0.00    -0.012 C 
HETATM    6  C22 UNL     1      22.837  -0.865  55.268  1.00  0.00     0.112 C 
HETATM    7  C23 UNL     1      24.263  -0.899  54.938  1.00  0.00     0.170 C 
HETATM    8  O2  UNL     1      24.989  -1.760  55.546  1.00  0.00    -0.292 OA
ENDROOT
BRANCH   4   9
HETATM    9  C13 UNL     1      20.960   0.290  52.219  1.00  0.00     0.005 C 
HETATM   10  C14 UNL     1      19.659   0.339  52.527  1.00  0.00     0.004 C 
BRANCH  10  11
HETATM   11  C15 UNL     1      18.464   0.719  51.760  1.00  0.00     0.300 C 
BRANCH  11  12
HETATM   12  N3  UNL     1      17.782  -0.417  51.241  1.00  0.00     0.095 N 
HETATM   13  C16 UNL     1      17.000  -1.060  52.301  1.00  0.00     0.303 C 
HETATM   14  C17 UNL     1      15.524  -0.931  52.114  1.00  0.00     0.302 C 
HETATM   15  N4  UNL     1      15.082   0.335  51.614  1.00  0.00     0.087 N 
HETATM   16  C18 UNL     1      14.859   1.314  52.636  1.00  0.00     0.310 C 
HETATM   17  C19 UNL     1      15.848   0.805  50.495  1.00  0.00     0.302 C 
HETATM   18  C20 UNL     1      16.941  -0.170  50.104  1.00  0.00     0.303 C 
ENDBRANCH  11  12
ENDBRANCH  10  11
ENDBRANCH   4   9
BRANCH   2  19
HETATM   19  N2  UNL     1      25.478   1.075  51.985  1.00  0.00    -0.358 N 
HETATM   20  H5  UNL     1      26.374   0.531  51.804  1.00  0.00     0.166 HD
BRANCH  19  21
HETATM   21  C5  UNL     1      25.308   2.389  51.437  1.00  0.00     0.034 A 
HETATM   22  C6  UNL     1      24.233   3.155  51.878  1.00  0.00     0.029 A 
HETATM   23  C7  UNL     1      24.129   4.406  51.310  1.00  0.00     0.004 A 
HETATM   24  C8  UNL     1      25.009   4.900  50.369  1.00  0.00     0.024 A 
HETATM   25  C9  UNL     1      26.026   4.069  50.008  1.00  0.00     0.036 A 
HETATM   26 CL1  UNL     1      27.160   4.688  48.803  1.00  0.00    -0.084 Cl
HETATM   27  C10 UNL     1      26.234   2.802  50.502  1.00  0.00     0.053 A 
ENDBRANCH  19  21
ENDBRANCH   2  19
BRANCH   1  28
HETATM   28  C2  UNL     1      26.348   0.362  54.380  1.00  0.00     0.256 C 
HETATM   29  N1  UNL     1      27.558  -0.336  54.485  1.00  0.00    -0.361 N 
HETATM   30  C1  UNL     1      28.765   0.367  54.894  1.00  0.00     0.149 C 
HETATM   31  H4  UNL     1      27.501  -1.344  54.262  1.00  0.00     0.162 HD
HETATM   32  O1  UNL     1      26.522   1.585  54.684  1.00  0.00    -0.267 OA
ENDBRANCH   1  28
TORSDOF 6
ENDMDL
MODEL 7
REMARK VINA RESULT:      -8.2      3.362      4.805
REMARK  6 active torsions:
REMARK  status: ('A' for Active; 'I' for Inactive)
REMARK       I    between atoms: N1_2  and  C2_3 
REMARK    1  A    between atoms: C2_3  and  C3_5 
REMARK    2  A    between atoms: C4_6  and  N2_7 
REMARK    3  A    between atoms: N2_7  and  C5_8 
REMARK    4  A    between atoms: C12_16  and  C13_17 
REMARK    5  A    between atoms: C14_18  and  C15_19 
REMARK    6  A    between atoms: C15_19  and  N3_20 
ROOT
HETATM    1  C3  UNL     1      24.827   6.689  49.152  1.00  0.00     0.100 C 
HETATM    2  C4  UNL     1      25.522   5.641  49.573  1.00  0.00     0.033 C 
HETATM    3  C11 UNL     1      26.720   4.954  49.050  1.00  0.00     0.096 C 
HETATM    4  C12 UNL     1      27.606   5.876  48.339  1.00  0.00    -0.056 C 
HETATM    5  C21 UNL     1      27.510   7.013  47.696  1.00  0.00    -0.012 C 
HETATM    6  C22 UNL     1      26.391   7.902  47.401  1.00  0.00     0.112 C 
HETATM    7  C23 UNL     1      25.107   7.467  47.951  1.00  0.00     0.170 C 
HETATM    8  O2  UNL     1      24.048   7.797  47.313  1.00  0.00    -0.292 OA
ENDROOT
BRANCH   4   9
HETATM    9  C13 UNL     1      28.995   5.363  48.365  1.00  0.00     0.005 C 
HETATM   10  C14 UNL     1      30.176   5.783  47.898  1.00  0.00     0.004 C 
BRANCH  10  11
HETATM   11  C15 UNL     1      31.533   5.220  47.958  1.00  0.00     0.300 C 
BRANCH  11  12
HETATM   12  N3  UNL     1      32.531   6.222  47.799  1.00  0.00     0.095 N 
HETATM   13  C16 UNL     1      33.558   6.075  48.834  1.00  0.00     0.303 C 
HETATM   14  C17 UNL     1      34.880   5.629  48.301  1.00  0.00     0.302 C 
HETATM   15  N4  UNL     1      34.817   4.649  47.260  1.00  0.00     0.087 N 
HETATM   16  C18 UNL     1      34.755   3.300  47.738  1.00  0.00     0.310 C 
HETATM   17  C19 UNL     1      33.862   4.965  46.237  1.00  0.00     0.302 C 
HETATM   18  C20 UNL     1      33.153   6.278  46.507  1.00  0.00     0.303 C 
ENDBRANCH  11  12
ENDBRANCH  10  11
ENDBRANCH   4   9
BRANCH   2  19
HETATM   19  N2  UNL     1      25.099   4.982  50.766  1.00  0.00    -0.358 N 
HETATM   20  H5  UNL     1      25.405   5.554  51.610  1.00  0.00     0.166 HD
BRANCH  19  21
HETATM   21  C5  UNL     1      24.375   3.759  50.947  1.00  0.00     0.034 A 
HETATM   22  C6  UNL     1      24.479   3.103  52.170  1.00  0.00     0.029 A 
HETATM   23  C7  UNL     1      23.757   1.934  52.275  1.00  0.00     0.004 A 
HETATM   24  C8  UNL     1      22.975   1.417  51.262  1.00  0.00     0.024 A 
HETATM   25  C9  UNL     1      22.942   2.138  50.107  1.00  0.00     0.036 A 
HETATM   26 CL1  UNL     1      21.945   1.490  48.801  1.00  0.00    -0.084 Cl
HETATM   27  C10 UNL     1      23.618   3.316  49.882  1.00  0.00     0.053 A 
ENDBRANCH  19  21
ENDBRANCH   2  19
BRANCH   1  28
HETATM   28  C2  UNL     1      23.681   7.067  49.967  1.00  0.00     0.256 C 
HETATM   29  N1  UNL     1      22.307   6.875  49.768  1.00  0.00    -0.361 N 
HETATM   30  C1  UNL     1      21.360   7.357  50.763  1.00  0.00     0.149 C 
HETATM   31  H4  UNL     1      22.057   6.391  48.890  1.00  0.00     0.162 HD
HETATM   32  O1  UNL     1      23.883   7.678  51.064  1.00  0.00    -0.267 OA
ENDBRANCH   1  28
TORSDOF 6
ENDMDL
MODEL 8
REMARK VINA RESULT:      -8.2      3.083      5.466
REMARK  6 active torsions:
REMARK  status: ('A' for Active; 'I' for Inactive)
REMARK       I    between atoms: N1_2  and  C2_3 
REMARK    1  A    between atoms: C2_3  and  C3_5 
REMARK    2  A    between atoms: C4_6  and  N2_7 
REMARK    3  A    between atoms: N2_7  and  C5_8 
REMARK    4  A    between atoms: C12_16  and  C13_17 
REMARK    5  A    between atoms: C14_18  and  C15_19 
REMARK    6  A    between atoms: C15_19  and  N3_20 
ROOT
HETATM    1  C3  UNL     1      24.325   0.308  53.072  1.00  0.00     0.100 C 
HETATM    2  C4  UNL     1      24.033   1.559  52.739  1.00  0.00     0.033 C 
HETATM    3  C11 UNL     1      24.855   2.691  52.266  1.00  0.00     0.096 C 
HETATM    4  C12 UNL     1      26.011   2.235  51.493  1.00  0.00    -0.056 C 
HETATM    5  C21 UNL     1      26.755   1.161  51.401  1.00  0.00    -0.012 C 
HETATM    6  C22 UNL     1      26.737  -0.128  52.085  1.00  0.00     0.112 C 
HETATM    7  C23 UNL     1      25.656  -0.285  53.059  1.00  0.00     0.170 C 
HETATM    8  O2  UNL     1      25.872  -1.049  54.062  1.00  0.00    -0.292 OA
ENDROOT
BRANCH   4   9
HETATM    9  C13 UNL     1      26.444   3.299  50.559  1.00  0.00     0.005 C 
HETATM   10  C14 UNL     1      25.848   4.317  49.929  1.00  0.00     0.004 C 
BRANCH  10  11
HETATM   11  C15 UNL     1      26.341   5.347  49.004  1.00  0.00     0.300 C 
BRANCH  11  12
HETATM   12  N3  UNL     1      25.549   6.529  49.053  1.00  0.00     0.095 N 
HETATM   13  C16 UNL     1      26.017   7.401  50.133  1.00  0.00     0.303 C 
HETATM   14  C17 UNL     1      26.655   8.661  49.647  1.00  0.00     0.302 C 
HETATM   15  N4  UNL     1      27.477   8.516  48.484  1.00  0.00     0.087 N 
HETATM   16  C18 UNL     1      28.832   8.151  48.774  1.00  0.00     0.310 C 
HETATM   17  C19 UNL     1      26.860   7.745  47.443  1.00  0.00     0.302 C 
HETATM   18  C20 UNL     1      25.471   7.275  47.830  1.00  0.00     0.303 C 
ENDBRANCH  11  12
ENDBRANCH  10  11
ENDBRANCH   4   9
BRANCH   2  19
HETATM   19  N2  UNL     1      22.673   1.983  52.824  1.00  0.00    -0.358 N 
HETATM   20  H5  UNL     1      22.310   1.803  53.808  1.00  0.00     0.166 HD
BRANCH  19  21
HETATM   21  C5  UNL     1      21.819   2.573  51.836  1.00  0.00     0.034 A 
HETATM   22  C6  UNL     1      21.000   3.632  52.218  1.00  0.00     0.029 A 
HETATM   23  C7  UNL     1      20.205   4.152  51.219  1.00  0.00     0.004 A 
HETATM   24  C8  UNL     1      20.193   3.682  49.921  1.00  0.00     0.024 A 
HETATM   25  C9  UNL     1      21.033   2.643  49.655  1.00  0.00     0.036 A 
HETATM   26 CL1  UNL     1      21.028   2.032  47.998  1.00  0.00    -0.084 Cl
HETATM   27  C10 UNL     1      21.871   2.041  50.565  1.00  0.00     0.053 A 
ENDBRANCH  19  21
ENDBRANCH   2  19
BRANCH   1  28
HETATM   28  C2  UNL     1      23.205  -0.520  53.497  1.00  0.00     0.256 C 
HETATM   29  N1  UNL     1      22.876  -1.047  54.753  1.00  0.00    -0.361 N 
HETATM   30  C1  UNL     1      21.673  -1.853  54.905  1.00  0.00     0.149 C 
HETATM   31  H4  UNL     1      23.543  -0.823  55.509  1.00  0.00     0.162 HD
HETATM   32  O1  UNL     1      22.332  -0.861  52.637  1.00  0.00    -0.267 OA
ENDBRANCH   1  28
TORSDOF 6
ENDMDL
MODEL 9
REMARK VINA RESULT:      -8.1      1.578      2.118
REMARK  6 active torsions:
REMARK  status: ('A' for Active; 'I' for Inactive)
REMARK       I    between atoms: N1_2  and  C2_3 
REMARK    1  A    between atoms: C2_3  and  C3_5 
REMARK    2  A    between atoms: C4_6  and  N2_7 
REMARK    3  A    between atoms: N2_7  and  C5_8 
REMARK    4  A    between atoms: C12_16  and  C13_17 
REMARK    5  A    between atoms: C14_18  and  C15_19 
REMARK    6  A    between atoms: C15_19  and  N3_20 
ROOT
HETATM    1  C3  UNL     1      24.128   3.891  50.387  1.00  0.00     0.100 C 
HETATM    2  C4  UNL     1      25.229   3.167  50.236  1.00  0.00     0.033 C 
HETATM    3  C11 UNL     1      26.407   3.301  49.356  1.00  0.00     0.096 C 
HETATM    4  C12 UNL     1      26.696   4.702  49.048  1.00  0.00    -0.056 C 
HETATM    5  C21 UNL     1      26.044   5.836  48.987  1.00  0.00    -0.012 C 
HETATM    6  C22 UNL     1      24.651   6.202  49.219  1.00  0.00     0.112 C 
HETATM    7  C23 UNL     1      23.792   5.093  49.635  1.00  0.00     0.170 C 
HETATM    8  O2  UNL     1      22.556   5.149  49.308  1.00  0.00    -0.292 OA
ENDROOT
BRANCH   4   9
HETATM    9  C13 UNL     1      28.130   4.860  48.718  1.00  0.00     0.005 C 
HETATM   10  C14 UNL     1      28.901   5.855  48.264  1.00  0.00     0.004 C 
BRANCH  10  11
HETATM   11  C15 UNL     1      30.335   5.948  47.953  1.00  0.00     0.300 C 
BRANCH  11  12
HETATM   12  N3  UNL     1      30.584   6.810  46.848  1.00  0.00     0.095 N 
HETATM   13  C16 UNL     1      29.462   7.737  46.673  1.00  0.00     0.303 C 
HETATM   14  C17 UNL     1      29.806   9.155  46.990  1.00  0.00     0.302 C 
HETATM   15  N4  UNL     1      30.667   9.334  48.120  1.00  0.00     0.087 N 
HETATM   16  C18 UNL     1      29.972   9.408  49.371  1.00  0.00     0.310 C 
HETATM   17  C19 UNL     1      31.800   8.454  48.118  1.00  0.00     0.302 C 
HETATM   18  C20 UNL     1      31.814   7.548  46.902  1.00  0.00     0.303 C 
ENDBRANCH  11  12
ENDBRANCH  10  11
ENDBRANCH   4   9
BRANCH   2  19
HETATM   19  N2  UNL     1      25.392   2.004  51.048  1.00  0.00    -0.358 N 
HETATM   20  H5  UNL     1      24.533   1.384  50.950  1.00  0.00     0.166 HD
BRANCH  19  21
HETATM   21  C5  UNL     1      26.477   1.607  51.897  1.00  0.00     0.034 A 
HETATM   22  C6  UNL     1      27.215   2.600  52.535  1.00  0.00     0.029 A 
HETATM   23  C7  UNL     1      28.242   2.147  53.334  1.00  0.00     0.004 A 
HETATM   24  C8  UNL     1      28.549   0.814  53.515  1.00  0.00     0.024 A 
HETATM   25  C9  UNL     1      27.764  -0.074  52.844  1.00  0.00     0.036 A 
HETATM   26 CL1  UNL     1      28.145  -1.785  53.065  1.00  0.00    -0.084 Cl
HETATM   27  C10 UNL     1      26.713   0.254  52.019  1.00  0.00     0.053 A 
ENDBRANCH  19  21
ENDBRANCH   2  19
BRANCH   1  28
HETATM   28  C2  UNL     1      23.181   3.417  51.387  1.00  0.00     0.256 C 
HETATM   29  N1  UNL     1      21.939   2.782  51.250  1.00  0.00    -0.361 N 
HETATM   30  C1  UNL     1      21.187   2.402  52.438  1.00  0.00     0.149 C 
HETATM   31  H4  UNL     1      21.632   2.630  50.275  1.00  0.00     0.162 HD
HETATM   32  O1  UNL     1      23.462   3.567  52.619  1.00  0.00    -0.267 OA
ENDBRANCH   1  28
TORSDOF 6
ENDMDL
