MODEL 1
REMARK VINA RESULT:      -7.2      0.000      0.000
REMARK  5 active torsions:
REMARK  status: ('A' for Active; 'I' for Inactive)
REMARK    1  A    between atoms: C3_3  and  N1_4 
REMARK    2  A    between atoms: N1_4  and  C4_5 
REMARK    3  A    between atoms: C11_15  and  C12_16 
REMARK    4  A    between atoms: C12_16  and  C13_17 
REMARK    5  A    between atoms: C14_18  and  N4_19 
REMARK       I    between atoms: N4_19  and  C15_20 
ROOT
HETATM    1  C1  UNL     1      24.367   3.343  53.207  1.00  0.00     0.030 C 
HETATM    2  C2  UNL     1      23.703   2.775  52.227  1.00  0.00     0.029 A 
HETATM    3  C3  UNL     1      23.500   3.446  51.054  1.00  0.00     0.141 A 
HETATM    4  N2  UNL     1      22.833   2.872  50.063  1.00  0.00    -0.224 NA
HETATM    5  C10 UNL     1      22.314   1.634  50.103  1.00  0.00     0.236 A 
HETATM    6  N3  UNL     1      22.536   0.992  51.289  1.00  0.00    -0.241 NA
HETATM    7  C11 UNL     1      23.196   1.521  52.312  1.00  0.00     0.071 A 
ENDROOT
BRANCH   3   8
HETATM    8  N1  UNL     1      23.936   4.744  50.777  1.00  0.00    -0.340 N 
HETATM    9  H3  UNL     1      23.383   5.564  51.121  1.00  0.00     0.167 HD
BRANCH   8  10
HETATM   10  C4  UNL     1      25.134   4.982  50.033  1.00  0.00     0.035 A 
HETATM   11  C5  UNL     1      26.007   3.946  49.781  1.00  0.00     0.029 A 
HETATM   12  C6  UNL     1      27.167   4.097  49.085  1.00  0.00     0.004 A 
HETATM   13  C7  UNL     1      27.529   5.348  48.582  1.00  0.00     0.019 A 
HETATM   14  C8  UNL     1      26.647   6.379  48.840  1.00  0.00     0.013 A 
HETATM   15 BR1  UNL     1      27.117   8.111  48.165  1.00  0.00    -0.051 Br
HETATM   16  C9  UNL     1      25.473   6.220  49.545  1.00  0.00     0.048 A 
ENDBRANCH   8  10
ENDBRANCH   3   8
BRANCH   7  17
HETATM   17  C12 UNL     1      23.319   0.767  53.399  1.00  0.00     0.034 C 
BRANCH  17  18
HETATM   18  C13 UNL     1      24.001  -0.518  53.384  1.00  0.00     0.019 C 
HETATM   19  C14 UNL     1      25.219  -0.756  53.836  1.00  0.00     0.091 C 
BRANCH  19  20
HETATM   20  N4  UNL     1      25.991   0.303  54.403  1.00  0.00    -0.338 N 
HETATM   21  C15 UNL     1      27.347  -0.122  54.228  1.00  0.00     0.217 C 
HETATM   22  C16 UNL     1      28.674   0.491  54.581  1.00  0.00     0.117 C 
HETATM   23  O1  UNL     1      27.552  -1.248  53.659  1.00  0.00    -0.274 OA
HETATM   24  H12 UNL     1      25.989   1.229  54.876  1.00  0.00     0.168 HD
ENDBRANCH  19  20
ENDBRANCH  17  18
ENDBRANCH   7  17
TORSDOF 5
ENDMDL
MODEL 2
REMARK VINA RESULT:      -7.2      1.763      2.301
REMARK  5 active torsions:
REMARK  status: ('A' for Active; 'I' for Inactive)
REMARK    1  A    between atoms: C3_3  and  N1_4 
REMARK    2  A    between atoms: N1_4  and  C4_5 
REMARK    3  A    between atoms: C11_15  and  C12_16 
REMARK    4  A    between atoms: C12_16  and  C13_17 
REMARK    5  A    between atoms: C14_18  and  N4_19 
REMARK       I    between atoms: N4_19  and  C15_20 
ROOT
HETATM    1  C1  UNL     1      26.727   2.194  51.305  1.00  0.00     0.030 C 
HETATM    2  C2  UNL     1      25.563   2.745  51.560  1.00  0.00     0.029 A 
HETATM    3  C3  UNL     1      24.902   3.439  50.585  1.00  0.00     0.141 A 
HETATM    4  N2  UNL     1      23.726   3.992  50.841  1.00  0.00    -0.224 NA
HETATM    5  C10 UNL     1      23.090   3.933  52.023  1.00  0.00     0.236 A 
HETATM    6  N3  UNL     1      23.778   3.232  52.973  1.00  0.00    -0.241 NA
HETATM    7  C11 UNL     1      24.958   2.660  52.770  1.00  0.00     0.071 A 
ENDROOT
BRANCH   3   8
HETATM    8  N1  UNL     1      25.363   3.644  49.283  1.00  0.00    -0.340 N 
HETATM    9  H3  UNL     1      25.126   2.954  48.531  1.00  0.00     0.167 HD
BRANCH   8  10
HETATM   10  C4  UNL     1      26.158   4.785  48.947  1.00  0.00     0.035 A 
HETATM   11  C5  UNL     1      25.571   6.028  48.846  1.00  0.00     0.029 A 
HETATM   12  C6  UNL     1      26.261   7.157  48.525  1.00  0.00     0.004 A 
HETATM   13  C7  UNL     1      27.634   7.097  48.280  1.00  0.00     0.019 A 
HETATM   14  C8  UNL     1      28.211   5.848  48.384  1.00  0.00     0.013 A 
HETATM   15 BR1  UNL     1      30.095   5.733  48.049  1.00  0.00    -0.051 Br
HETATM   16  C9  UNL     1      27.508   4.708  48.709  1.00  0.00     0.048 A 
ENDBRANCH   8  10
ENDBRANCH   3   8
BRANCH   7  17
HETATM   17  C12 UNL     1      25.498   2.020  53.801  1.00  0.00     0.034 C 
BRANCH  17  18
HETATM   18  C13 UNL     1      25.401   0.577  53.962  1.00  0.00     0.019 C 
HETATM   19  C14 UNL     1      26.404  -0.245  54.215  1.00  0.00     0.091 C 
BRANCH  19  20
HETATM   20  N4  UNL     1      27.730   0.266  54.354  1.00  0.00    -0.338 N 
HETATM   21  C15 UNL     1      28.556  -0.746  53.769  1.00  0.00     0.217 C 
HETATM   22  C16 UNL     1      30.041  -0.877  53.568  1.00  0.00     0.117 C 
HETATM   23  O1  UNL     1      27.983  -1.787  53.297  1.00  0.00    -0.274 OA
HETATM   24  H12 UNL     1      28.336   1.041  54.689  1.00  0.00     0.168 HD
ENDBRANCH  19  20
ENDBRANCH  17  18
ENDBRANCH   7  17
TORSDOF 5
ENDMDL
MODEL 3
REMARK VINA RESULT:      -7.1      4.124      7.103
REMARK  5 active torsions:
REMARK  status: ('A' for Active; 'I' for Inactive)
REMARK    1  A    between atoms: C3_3  and  N1_4 
REMARK    2  A    between atoms: N1_4  and  C4_5 
REMARK    3  A    between atoms: C11_15  and  C12_16 
REMARK    4  A    between atoms: C12_16  and  C13_17 
REMARK    5  A    between atoms: C14_18  and  N4_19 
REMARK       I    between atoms: N4_19  and  C15_20 
ROOT
HETATM    1  C1  UNL     1      26.328   3.369  49.667  1.00  0.00     0.030 C 
HETATM    2  C2  UNL     1      25.430   3.677  50.575  1.00  0.00     0.029 A 
HETATM    3  C3  UNL     1      25.081   2.767  51.534  1.00  0.00     0.141 A 
HETATM    4  N2  UNL     1      24.177   3.077  52.451  1.00  0.00    -0.224 NA
HETATM    5  C10 UNL     1      23.541   4.258  52.534  1.00  0.00     0.236 A 
HETATM    6  N3  UNL     1      23.914   5.142  51.561  1.00  0.00    -0.241 NA
HETATM    7  C11 UNL     1      24.812   4.882  50.619  1.00  0.00     0.071 A 
ENDROOT
BRANCH   3   8
HETATM    8  N1  UNL     1      25.597   1.475  51.649  1.00  0.00    -0.340 N 
HETATM    9  H3  UNL     1      25.105   0.673  51.189  1.00  0.00     0.167 HD
BRANCH   8  10
HETATM   10  C4  UNL     1      26.797   1.217  52.385  1.00  0.00     0.035 A 
HETATM   11  C5  UNL     1      27.450   2.250  53.022  1.00  0.00     0.029 A 
HETATM   12  C6  UNL     1      28.598   2.083  53.735  1.00  0.00     0.004 A 
HETATM   13  C7  UNL     1      29.174   0.817  53.855  1.00  0.00     0.019 A 
HETATM   14  C8  UNL     1      28.510  -0.210  53.215  1.00  0.00     0.013 A 
HETATM   15 BR1  UNL     1      29.279  -1.961  53.358  1.00  0.00    -0.051 Br
HETATM   16  C9  UNL     1      27.349  -0.035  52.493  1.00  0.00     0.048 A 
ENDBRANCH   8  10
ENDBRANCH   3   8
BRANCH   7  17
HETATM   17  C12 UNL     1      25.057   5.849  49.742  1.00  0.00     0.034 C 
BRANCH  17  18
HETATM   18  C13 UNL     1      24.877   7.257  50.062  1.00  0.00     0.019 C 
HETATM   19  C14 UNL     1      25.824   8.177  50.075  1.00  0.00     0.091 C 
BRANCH  19  20
HETATM   20  N4  UNL     1      27.171   7.823  49.758  1.00  0.00    -0.338 N 
HETATM   21  C15 UNL     1      27.859   9.077  49.707  1.00  0.00     0.217 C 
HETATM   22  C16 UNL     1      29.287   9.460  49.430  1.00  0.00     0.117 C 
HETATM   23  O1  UNL     1      27.184  10.139  49.932  1.00  0.00    -0.274 OA
HETATM   24  H12 UNL     1      27.848   7.061  49.554  1.00  0.00     0.168 HD
ENDBRANCH  19  20
ENDBRANCH  17  18
ENDBRANCH   7  17
TORSDOF 5
ENDMDL
MODEL 4
REMARK VINA RESULT:      -7.0      3.941      7.212
REMARK  5 active torsions:
REMARK  status: ('A' for Active; 'I' for Inactive)
REMARK    1  A    between atoms: C3_3  and  N1_4 
REMARK    2  A    between atoms: N1_4  and  C4_5 
REMARK    3  A    between atoms: C11_15  and  C12_16 
REMARK    4  A    between atoms: C12_16  and  C13_17 
REMARK    5  A    between atoms: C14_18  and  N4_19 
REMARK       I    between atoms: N4_19  and  C15_20 
ROOT
HETATM    1  C1  UNL     1      26.253   3.518  49.630  1.00  0.00     0.030 C 
HETATM    2  C2  UNL     1      25.290   3.973  50.397  1.00  0.00     0.029 A 
HETATM    3  C3  UNL     1      24.562   3.113  51.172  1.00  0.00     0.141 A 
HETATM    4  N2  UNL     1      23.592   3.572  51.949  1.00  0.00    -0.224 NA
HETATM    5  C10 UNL     1      23.238   4.864  52.054  1.00  0.00     0.236 A 
HETATM    6  N3  UNL     1      23.985   5.694  51.266  1.00  0.00    -0.241 NA
HETATM    7  C11 UNL     1      24.966   5.287  50.471  1.00  0.00     0.071 A 
ENDROOT
BRANCH   3   8
HETATM    8  N1  UNL     1      24.738   1.729  51.228  1.00  0.00    -0.340 N 
HETATM    9  H3  UNL     1      24.391   1.127  50.445  1.00  0.00     0.167 HD
BRANCH   8  10
HETATM   10  C4  UNL     1      25.390   1.107  52.339  1.00  0.00     0.035 A 
HETATM   11  C5  UNL     1      24.682   0.266  53.171  1.00  0.00     0.029 A 
HETATM   12  C6  UNL     1      25.232  -0.357  54.250  1.00  0.00     0.004 A 
HETATM   13  C7  UNL     1      26.579  -0.163  54.563  1.00  0.00     0.019 A 
HETATM   14  C8  UNL     1      27.278   0.680  53.723  1.00  0.00     0.013 A 
HETATM   15 BR1  UNL     1      29.129   0.970  54.130  1.00  0.00    -0.051 Br
HETATM   16  C9  UNL     1      26.716   1.309  52.633  1.00  0.00     0.048 A 
ENDBRANCH   8  10
ENDBRANCH   3   8
BRANCH   7  17
HETATM   17  C12 UNL     1      25.592   6.222  49.765  1.00  0.00     0.034 C 
BRANCH  17  18
HETATM   18  C13 UNL     1      25.457   7.642  50.056  1.00  0.00     0.019 C 
HETATM   19  C14 UNL     1      26.432   8.533  50.042  1.00  0.00     0.091 C 
BRANCH  19  20
HETATM   20  N4  UNL     1      27.764   8.131  49.720  1.00  0.00    -0.338 N 
HETATM   21  C15 UNL     1      28.466   9.365  49.541  1.00  0.00     0.217 C 
HETATM   22  C16 UNL     1      29.891   9.701  49.194  1.00  0.00     0.117 C 
HETATM   23  O1  UNL     1      27.812  10.453  49.692  1.00  0.00    -0.274 OA
HETATM   24  H12 UNL     1      28.425   7.344  49.566  1.00  0.00     0.168 HD
ENDBRANCH  19  20
ENDBRANCH  17  18
ENDBRANCH   7  17
TORSDOF 5
ENDMDL
MODEL 5
REMARK VINA RESULT:      -7.0      4.305      7.490
REMARK  5 active torsions:
REMARK  status: ('A' for Active; 'I' for Inactive)
REMARK    1  A    between atoms: C3_3  and  N1_4 
REMARK    2  A    between atoms: N1_4  and  C4_5 
REMARK    3  A    between atoms: C11_15  and  C12_16 
REMARK    4  A    between atoms: C12_16  and  C13_17 
REMARK    5  A    between atoms: C14_18  and  N4_19 
REMARK       I    between atoms: N4_19  and  C15_20 
ROOT
HETATM    1  C1  UNL     1      25.789   3.668  49.627  1.00  0.00     0.030 C 
HETATM    2  C2  UNL     1      24.792   4.229  50.270  1.00  0.00     0.029 A 
HETATM    3  C3  UNL     1      23.784   3.461  50.783  1.00  0.00     0.141 A 
HETATM    4  N2  UNL     1      22.779   4.026  51.435  1.00  0.00    -0.224 NA
HETATM    5  C10 UNL     1      22.649   5.346  51.652  1.00  0.00     0.236 A 
HETATM    6  N3  UNL     1      23.673   6.083  51.126  1.00  0.00    -0.241 NA
HETATM    7  C11 UNL     1      24.702   5.568  50.464  1.00  0.00     0.071 A 
ENDROOT
BRANCH   3   8
HETATM    8  N1  UNL     1      23.693   2.071  50.680  1.00  0.00    -0.340 N 
HETATM    9  H3  UNL     1      23.422   1.632  49.769  1.00  0.00     0.167 HD
BRANCH   8  10
HETATM   10  C4  UNL     1      23.968   1.224  51.799  1.00  0.00     0.035 A 
HETATM   11  C5  UNL     1      25.269   1.021  52.207  1.00  0.00     0.029 A 
HETATM   12  C6  UNL     1      25.608   0.225  53.258  1.00  0.00     0.004 A 
HETATM   13  C7  UNL     1      24.619  -0.437  53.988  1.00  0.00     0.019 A 
HETATM   14  C8  UNL     1      23.320  -0.227  53.571  1.00  0.00     0.013 A 
HETATM   15 BR1  UNL     1      21.939  -1.125  54.551  1.00  0.00    -0.051 Br
HETATM   16  C9  UNL     1      22.982   0.580  52.506  1.00  0.00     0.048 A 
ENDBRANCH   8  10
ENDBRANCH   3   8
BRANCH   7  17
HETATM   17  C12 UNL     1      25.611   6.423  50.011  1.00  0.00     0.034 C 
BRANCH  17  18
HETATM   18  C13 UNL     1      25.482   7.863  50.179  1.00  0.00     0.019 C 
HETATM   19  C14 UNL     1      26.459   8.746  50.080  1.00  0.00     0.091 C 
BRANCH  19  20
HETATM   20  N4  UNL     1      27.787   8.314  49.784  1.00  0.00    -0.338 N 
HETATM   21  C15 UNL     1      28.489   9.525  49.484  1.00  0.00     0.217 C 
HETATM   22  C16 UNL     1      29.910   9.825  49.093  1.00  0.00     0.117 C 
HETATM   23  O1  UNL     1      27.837  10.624  49.539  1.00  0.00    -0.274 OA
HETATM   24  H12 UNL     1      28.446   7.515  49.696  1.00  0.00     0.168 HD
ENDBRANCH  19  20
ENDBRANCH  17  18
ENDBRANCH   7  17
TORSDOF 5
ENDMDL
MODEL 6
REMARK VINA RESULT:      -6.8      1.736      2.373
REMARK  5 active torsions:
REMARK  status: ('A' for Active; 'I' for Inactive)
REMARK    1  A    between atoms: C3_3  and  N1_4 
REMARK    2  A    between atoms: N1_4  and  C4_5 
REMARK    3  A    between atoms: C11_15  and  C12_16 
REMARK    4  A    between atoms: C12_16  and  C13_17 
REMARK    5  A    between atoms: C14_18  and  N4_19 
REMARK       I    between atoms: N4_19  and  C15_20 
ROOT
HETATM    1  C1  UNL     1      24.925   3.051  52.291  1.00  0.00     0.030 C 
HETATM    2  C2  UNL     1      23.626   3.235  52.244  1.00  0.00     0.029 A 
HETATM    3  C3  UNL     1      23.109   4.501  52.277  1.00  0.00     0.141 A 
HETATM    4  N2  UNL     1      21.798   4.687  52.227  1.00  0.00    -0.224 NA
HETATM    5  C10 UNL     1      20.885   3.705  52.141  1.00  0.00     0.236 A 
HETATM    6  N3  UNL     1      21.437   2.455  52.110  1.00  0.00    -0.241 NA
HETATM    7  C11 UNL     1      22.741   2.213  52.159  1.00  0.00     0.071 A 
ENDROOT
BRANCH   3   8
HETATM    8  N1  UNL     1      23.854   5.677  52.371  1.00  0.00    -0.340 N 
HETATM    9  H3  UNL     1      24.222   5.989  53.301  1.00  0.00     0.167 HD
BRANCH   8  10
HETATM   10  C4  UNL     1      24.134   6.475  51.217  1.00  0.00     0.035 A 
HETATM   11  C5  UNL     1      23.275   7.490  50.856  1.00  0.00     0.029 A 
HETATM   12  C6  UNL     1      23.471   8.286  49.769  1.00  0.00     0.004 A 
HETATM   13  C7  UNL     1      24.588   8.099  48.952  1.00  0.00     0.019 A 
HETATM   14  C8  UNL     1      25.442   7.080  49.324  1.00  0.00     0.013 A 
HETATM   15 BR1  UNL     1      26.984   6.796  48.220  1.00  0.00    -0.051 Br
HETATM   16  C9  UNL     1      25.238   6.277  50.425  1.00  0.00     0.048 A 
ENDBRANCH   8  10
ENDBRANCH   3   8
BRANCH   7  17
HETATM   17  C12 UNL     1      23.115   0.939  52.126  1.00  0.00     0.034 C 
BRANCH  17  18
HETATM   18  C13 UNL     1      23.242   0.130  53.329  1.00  0.00     0.019 C 
HETATM   19  C14 UNL     1      24.332  -0.500  53.728  1.00  0.00     0.091 C 
BRANCH  19  20
HETATM   20  N4  UNL     1      25.529  -0.422  52.952  1.00  0.00    -0.338 N 
HETATM   21  C15 UNL     1      26.573  -0.356  53.929  1.00  0.00     0.217 C 
HETATM   22  C16 UNL     1      28.071  -0.262  53.832  1.00  0.00     0.117 C 
HETATM   23  O1  UNL     1      26.241  -0.378  55.163  1.00  0.00    -0.274 OA
HETATM   24  H12 UNL     1      25.954  -0.395  52.004  1.00  0.00     0.168 HD
ENDBRANCH  19  20
ENDBRANCH  17  18
ENDBRANCH   7  17
TORSDOF 5
ENDMDL
MODEL 7
REMARK VINA RESULT:      -6.7      4.478      7.931
REMARK  5 active torsions:
REMARK  status: ('A' for Active; 'I' for Inactive)
REMARK    1  A    between atoms: C3_3  and  N1_4 
REMARK    2  A    between atoms: N1_4  and  C4_5 
REMARK    3  A    between atoms: C11_15  and  C12_16 
REMARK    4  A    between atoms: C12_16  and  C13_17 
REMARK    5  A    between atoms: C14_18  and  N4_19 
REMARK       I    between atoms: N4_19  and  C15_20 
ROOT
HETATM    1  C1  UNL     1      28.741   6.653  47.566  1.00  0.00     0.030 C 
HETATM    2  C2  UNL     1      28.291   7.519  48.444  1.00  0.00     0.029 A 
HETATM    3  C3  UNL     1      27.013   7.415  48.920  1.00  0.00     0.141 A 
HETATM    4  N2  UNL     1      26.559   8.286  49.809  1.00  0.00    -0.224 NA
HETATM    5  C10 UNL     1      27.267   9.312  50.310  1.00  0.00     0.236 A 
HETATM    6  N3  UNL     1      28.538   9.386  49.812  1.00  0.00    -0.241 NA
HETATM    7  C11 UNL     1      29.042   8.541  48.922  1.00  0.00     0.071 A 
ENDROOT
BRANCH   3   8
HETATM    8  N1  UNL     1      26.087   6.440  48.545  1.00  0.00    -0.340 N 
HETATM    9  H3  UNL     1      25.551   6.547  47.651  1.00  0.00     0.167 HD
BRANCH   8  10
HETATM   10  C4  UNL     1      25.850   5.287  49.357  1.00  0.00     0.035 A 
HETATM   11  C5  UNL     1      26.688   4.196  49.266  1.00  0.00     0.029 A 
HETATM   12  C6  UNL     1      26.524   3.063  50.002  1.00  0.00     0.004 A 
HETATM   13  C7  UNL     1      25.467   2.958  50.907  1.00  0.00     0.019 A 
HETATM   14  C8  UNL     1      24.634   4.057  50.991  1.00  0.00     0.013 A 
HETATM   15 BR1  UNL     1      23.170   3.943  52.224  1.00  0.00    -0.051 Br
HETATM   16  C9  UNL     1      24.805   5.202  50.243  1.00  0.00     0.048 A 
ENDBRANCH   8  10
ENDBRANCH   3   8
BRANCH   7  17
HETATM   17  C12 UNL     1      30.294   8.756  48.535  1.00  0.00     0.034 C 
BRANCH  17  18
HETATM   18  C13 UNL     1      31.439   8.389  49.355  1.00  0.00     0.019 C 
HETATM   19  C14 UNL     1      32.380   7.522  49.030  1.00  0.00     0.091 C 
BRANCH  19  20
HETATM   20  N4  UNL     1      32.328   6.846  47.772  1.00  0.00    -0.338 N 
HETATM   21  C15 UNL     1      32.030   5.490  48.118  1.00  0.00     0.217 C 
HETATM   22  C16 UNL     1      31.829   4.239  47.307  1.00  0.00     0.117 C 
HETATM   23  O1  UNL     1      31.891   5.204  49.356  1.00  0.00    -0.274 OA
HETATM   24  H12 UNL     1      32.410   6.918  46.738  1.00  0.00     0.168 HD
ENDBRANCH  19  20
ENDBRANCH  17  18
ENDBRANCH   7  17
TORSDOF 5
ENDMDL
MODEL 8
REMARK VINA RESULT:      -6.7      2.966      3.628
REMARK  5 active torsions:
REMARK  status: ('A' for Active; 'I' for Inactive)
REMARK    1  A    between atoms: C3_3  and  N1_4 
REMARK    2  A    between atoms: N1_4  and  C4_5 
REMARK    3  A    between atoms: C11_15  and  C12_16 
REMARK    4  A    between atoms: C12_16  and  C13_17 
REMARK    5  A    between atoms: C14_18  and  N4_19 
REMARK       I    between atoms: N4_19  and  C15_20 
ROOT
HETATM    1  C1  UNL     1      24.337   1.806  52.229  1.00  0.00     0.030 C 
HETATM    2  C2  UNL     1      23.363   1.032  52.648  1.00  0.00     0.029 A 
HETATM    3  C3  UNL     1      22.062   1.359  52.382  1.00  0.00     0.141 A 
HETATM    4  N2  UNL     1      21.078   0.577  52.801  1.00  0.00    -0.224 NA
HETATM    5  C10 UNL     1      21.244  -0.561  53.496  1.00  0.00     0.236 A 
HETATM    6  N3  UNL     1      22.555  -0.856  53.743  1.00  0.00    -0.241 NA
HETATM    7  C11 UNL     1      23.578  -0.108  53.348  1.00  0.00     0.071 A 
ENDROOT
BRANCH   3   8
HETATM    8  N1  UNL     1      21.639   2.493  51.685  1.00  0.00    -0.340 N 
HETATM    9  H3  UNL     1      21.187   3.284  52.202  1.00  0.00     0.167 HD
BRANCH   8  10
HETATM   10  C4  UNL     1      21.812   2.603  50.269  1.00  0.00     0.035 A 
HETATM   11  C5  UNL     1      21.729   1.479  49.475  1.00  0.00     0.029 A 
HETATM   12  C6  UNL     1      21.888   1.505  48.123  1.00  0.00     0.004 A 
HETATM   13  C7  UNL     1      22.148   2.710  47.468  1.00  0.00     0.019 A 
HETATM   14  C8  UNL     1      22.228   3.829  48.273  1.00  0.00     0.013 A 
HETATM   15 BR1  UNL     1      22.588   5.499  47.402  1.00  0.00    -0.051 Br
HETATM   16  C9  UNL     1      22.067   3.797  49.641  1.00  0.00     0.048 A 
ENDBRANCH   8  10
ENDBRANCH   3   8
BRANCH   7  17
HETATM   17  C12 UNL     1      24.793  -0.532  53.676  1.00  0.00     0.034 C 
BRANCH  17  18
HETATM   18  C13 UNL     1      25.483  -0.076  54.872  1.00  0.00     0.019 C 
HETATM   19  C14 UNL     1      26.777  -0.189  55.112  1.00  0.00     0.091 C 
BRANCH  19  20
HETATM   20  N4  UNL     1      27.632  -0.807  54.150  1.00  0.00    -0.338 N 
HETATM   21  C15 UNL     1      28.842  -0.045  54.219  1.00  0.00     0.217 C 
HETATM   22  C16 UNL     1      30.159  -0.132  53.497  1.00  0.00     0.117 C 
HETATM   23  O1  UNL     1      28.890   0.929  55.046  1.00  0.00    -0.274 OA
HETATM   24  H12 UNL     1      27.749  -1.556  53.439  1.00  0.00     0.168 HD
ENDBRANCH  19  20
ENDBRANCH  17  18
ENDBRANCH   7  17
TORSDOF 5
ENDMDL
MODEL 9
REMARK VINA RESULT:      -6.7      4.192      7.319
REMARK  5 active torsions:
REMARK  status: ('A' for Active; 'I' for Inactive)
REMARK    1  A    between atoms: C3_3  and  N1_4 
REMARK    2  A    between atoms: N1_4  and  C4_5 
REMARK    3  A    between atoms: C11_15  and  C12_16 
REMARK    4  A    between atoms: C12_16  and  C13_17 
REMARK    5  A    between atoms: C14_18  and  N4_19 
REMARK       I    between atoms: N4_19  and  C15_20 
ROOT
HETATM    1  C1  UNL     1      26.415   3.148  49.579  1.00  0.00     0.030 C 
HETATM    2  C2  UNL     1      25.599   4.035  50.101  1.00  0.00     0.029 A 
HETATM    3  C3  UNL     1      24.802   3.697  51.159  1.00  0.00     0.141 A 
HETATM    4  N2  UNL     1      23.981   4.591  51.688  1.00  0.00    -0.224 NA
HETATM    5  C10 UNL     1      23.851   5.860  51.265  1.00  0.00     0.236 A 
HETATM    6  N3  UNL     1      24.663   6.163  50.208  1.00  0.00    -0.241 NA
HETATM    7  C11 UNL     1      25.501   5.305  49.640  1.00  0.00     0.071 A 
ENDROOT
BRANCH   3   8
HETATM    8  N1  UNL     1      24.753   2.441  51.766  1.00  0.00    -0.340 N 
HETATM    9  H3  UNL     1      25.610   2.049  52.223  1.00  0.00     0.167 HD
BRANCH   8  10
HETATM   10  C4  UNL     1      23.548   1.669  51.783  1.00  0.00     0.035 A 
HETATM   11  C5  UNL     1      22.774   1.576  50.647  1.00  0.00     0.029 A 
HETATM   12  C6  UNL     1      21.613   0.866  50.588  1.00  0.00     0.004 A 
HETATM   13  C7  UNL     1      21.149   0.182  51.713  1.00  0.00     0.019 A 
HETATM   14  C8  UNL     1      21.933   0.281  52.845  1.00  0.00     0.013 A 
HETATM   15 BR1  UNL     1      21.320  -0.645  54.408  1.00  0.00    -0.051 Br
HETATM   16  C9  UNL     1      23.107   1.002  52.899  1.00  0.00     0.048 A 
ENDBRANCH   8  10
ENDBRANCH   3   8
BRANCH   7  17
HETATM   17  C12 UNL     1      26.216   5.756  48.616  1.00  0.00     0.034 C 
BRANCH  17  18
HETATM   18  C13 UNL     1      26.827   7.077  48.611  1.00  0.00     0.019 C 
HETATM   19  C14 UNL     1      28.121   7.333  48.678  1.00  0.00     0.091 C 
BRANCH  19  20
HETATM   20  N4  UNL     1      29.060   6.260  48.766  1.00  0.00    -0.338 N 
HETATM   21  C15 UNL     1      30.066   6.598  47.806  1.00  0.00     0.217 C 
HETATM   22  C16 UNL     1      31.341   5.930  47.368  1.00  0.00     0.117 C 
HETATM   23  O1  UNL     1      29.920   7.680  47.141  1.00  0.00    -0.274 OA
HETATM   24  H12 UNL     1      29.318   5.361  49.219  1.00  0.00     0.168 HD
ENDBRANCH  19  20
ENDBRANCH  17  18
ENDBRANCH   7  17
TORSDOF 5
ENDMDL
