MODEL 1
REMARK VINA RESULT:      -7.5      0.000      0.000
REMARK  8 active torsions:
REMARK  status: ('A' for Active; 'I' for Inactive)
REMARK    1  A    between atoms: C3_3  and  N1_4 
REMARK       I    between atoms: N1_4  and  C4_5 
REMARK    2  A    between atoms: C4_5  and  C5_7 
REMARK    3  A    between atoms: C6_8  and  C7_9 
REMARK    4  A    between atoms: C7_9  and  N2_10 
REMARK    5  A    between atoms: N2_10  and  C8_11 
REMARK    6  A    between atoms: N2_10  and  C11_14 
REMARK    7  A    between atoms: C8_11  and  C9_12 
REMARK    8  A    between atoms: C11_14  and  C12_15 
ROOT
HETATM    1  C1  UNL     1      23.634   4.520  50.501  1.00  0.00     0.026 C 
HETATM    2  C2  UNL     1      24.157   3.465  51.103  1.00  0.00     0.017 C 
HETATM    3  C3  UNL     1      25.629   3.388  50.937  1.00  0.00     0.045 C 
HETATM    4  C14 UNL     1      26.524   2.410  51.171  1.00  0.00     0.031 C 
HETATM    5  C15 UNL     1      26.352   1.045  51.690  1.00  0.00     0.021 C 
HETATM    6  C16 UNL     1      25.490   0.536  52.589  1.00  0.00     0.116 C 
HETATM    7  N3  UNL     1      24.459   1.180  53.332  1.00  0.00    -0.272 NA
HETATM    8  C17 UNL     1      23.513   2.024  53.020  1.00  0.00     0.151 C 
HETATM    9  C18 UNL     1      23.110   2.670  51.754  1.00  0.00     0.208 C 
HETATM   10  N4  UNL     1      21.996   3.558  52.070  1.00  0.00    -0.258 NA
HETATM   11  C19 UNL     1      20.707   3.487  52.136  1.00  0.00     0.115 C 
HETATM   12  C20 UNL     1      19.703   2.468  51.925  1.00  0.00     0.034 C 
HETATM   13  C21 UNL     1      19.667   1.167  51.707  1.00  0.00    -0.005 C 
HETATM   14 BR1  UNL     1      17.957   0.395  51.507  1.00  0.00    -0.055 Br
HETATM   15  C22 UNL     1      20.761   0.149  51.585  1.00  0.00     0.093 C 
HETATM   16  C23 UNL     1      21.808   0.757  50.689  1.00  0.00     0.092 C 
HETATM   17  N5  UNL     1      22.662   1.693  50.789  1.00  0.00    -0.261 NA
ENDROOT
BRANCH   3  18
HETATM   18  N1  UNL     1      26.102   4.633  50.421  1.00  0.00    -0.316 N 
HETATM   19  C4  UNL     1      26.989   4.369  49.312  1.00  0.00     0.301 C 
HETATM   20  O1  UNL     1      27.300   3.218  48.847  1.00  0.00    -0.258 OA
HETATM   21  H3  UNL     1      25.967   5.638  50.639  1.00  0.00     0.170 HD
BRANCH  19  22
HETATM   22  C5  UNL     1      27.647   5.426  48.583  1.00  0.00    -0.004 C 
HETATM   23  C6  UNL     1      28.220   6.309  47.973  1.00  0.00    -0.077 C 
BRANCH  23  24
HETATM   24  C7  UNL     1      28.915   7.382  47.203  1.00  0.00     0.212 C 
BRANCH  24  25
HETATM   25  N2  UNL     1      29.376   8.334  48.128  1.00  0.00    -0.403 N 
BRANCH  25  26
HETATM   26  C8  UNL     1      28.614   9.436  48.501  1.00  0.00     0.117 C 
BRANCH  26  27
HETATM   27  C9  UNL     1      28.085   9.404  49.891  1.00  0.00     0.015 C 
HETATM   28  C10 UNL     1      26.758   8.803  50.142  1.00  0.00     0.006 C 
ENDBRANCH  26  27
ENDBRANCH  25  26
BRANCH  25  29
HETATM   29  C11 UNL     1      30.799   8.450  48.231  1.00  0.00     0.117 C 
BRANCH  29  30
HETATM   30  C12 UNL     1      31.433   7.893  49.458  1.00  0.00     0.015 C 
HETATM   31  C13 UNL     1      31.740   6.428  49.409  1.00  0.00     0.006 C 
ENDBRANCH  29  30
ENDBRANCH  25  29
ENDBRANCH  24  25
ENDBRANCH  23  24
ENDBRANCH  19  22
ENDBRANCH   3  18
TORSDOF 8
ENDMDL
MODEL 2
REMARK VINA RESULT:      -7.5      1.049      1.796
REMARK  8 active torsions:
REMARK  status: ('A' for Active; 'I' for Inactive)
REMARK    1  A    between atoms: C3_3  and  N1_4 
REMARK       I    between atoms: N1_4  and  C4_5 
REMARK    2  A    between atoms: C4_5  and  C5_7 
REMARK    3  A    between atoms: C6_8  and  C7_9 
REMARK    4  A    between atoms: C7_9  and  N2_10 
REMARK    5  A    between atoms: N2_10  and  C8_11 
REMARK    6  A    between atoms: N2_10  and  C11_14 
REMARK    7  A    between atoms: C8_11  and  C9_12 
REMARK    8  A    between atoms: C11_14  and  C12_15 
ROOT
HETATM    1  C1  UNL     1      23.646   4.256  50.675  1.00  0.00     0.026 C 
HETATM    2  C2  UNL     1      24.100   3.165  51.268  1.00  0.00     0.017 C 
HETATM    3  C3  UNL     1      25.572   3.021  51.144  1.00  0.00     0.045 C 
HETATM    4  C14 UNL     1      26.411   1.997  51.383  1.00  0.00     0.031 C 
HETATM    5  C15 UNL     1      26.160   0.631  51.866  1.00  0.00     0.021 C 
HETATM    6  C16 UNL     1      25.247   0.145  52.727  1.00  0.00     0.116 C 
HETATM    7  N3  UNL     1      24.225   0.822  53.453  1.00  0.00    -0.272 NA
HETATM    8  C17 UNL     1      23.331   1.716  53.132  1.00  0.00     0.151 C 
HETATM    9  C18 UNL     1      22.998   2.408  51.870  1.00  0.00     0.208 C 
HETATM   10  N4  UNL     1      21.918   3.341  52.172  1.00  0.00    -0.258 NA
HETATM   11  C19 UNL     1      20.626   3.330  52.198  1.00  0.00     0.115 C 
HETATM   12  C20 UNL     1      19.581   2.366  51.934  1.00  0.00     0.034 C 
HETATM   13  C21 UNL     1      19.490   1.072  51.686  1.00  0.00    -0.005 C 
HETATM   14 BR1  UNL     1      17.753   0.388  51.417  1.00  0.00    -0.055 Br
HETATM   15  C22 UNL     1      20.538   0.006  51.573  1.00  0.00     0.093 C 
HETATM   16  C23 UNL     1      21.640   0.582  50.724  1.00  0.00     0.092 C 
HETATM   17  N5  UNL     1      22.534   1.474  50.870  1.00  0.00    -0.261 NA
ENDROOT
BRANCH   3  18
HETATM   18  N1  UNL     1      26.118   4.253  50.671  1.00  0.00    -0.316 N 
HETATM   19  C4  UNL     1      26.908   3.987  49.491  1.00  0.00     0.301 C 
HETATM   20  O1  UNL     1      27.088   2.846  48.940  1.00  0.00    -0.258 OA
HETATM   21  H3  UNL     1      26.085   5.250  50.955  1.00  0.00     0.170 HD
BRANCH  19  22
HETATM   22  C5  UNL     1      27.609   5.029  48.782  1.00  0.00    -0.004 C 
HETATM   23  C6  UNL     1      28.183   5.914  48.174  1.00  0.00    -0.077 C 
BRANCH  23  24
HETATM   24  C7  UNL     1      28.888   7.012  47.451  1.00  0.00     0.212 C 
BRANCH  24  25
HETATM   25  N2  UNL     1      28.253   8.217  47.791  1.00  0.00    -0.403 N 
BRANCH  25  26
HETATM   26  C8  UNL     1      27.789   9.110  46.831  1.00  0.00     0.117 C 
BRANCH  26  27
HETATM   27  C9  UNL     1      26.685   8.604  45.971  1.00  0.00     0.015 C 
HETATM   28  C10 UNL     1      25.436   8.135  46.607  1.00  0.00     0.006 C 
ENDBRANCH  26  27
ENDBRANCH  25  26
BRANCH  25  29
HETATM   29  C11 UNL     1      28.596   8.750  49.075  1.00  0.00     0.117 C 
BRANCH  29  30
HETATM   30  C12 UNL     1      27.478   9.268  49.911  1.00  0.00     0.015 C 
HETATM   31  C13 UNL     1      26.401   8.276  50.222  1.00  0.00     0.006 C 
ENDBRANCH  29  30
ENDBRANCH  25  29
ENDBRANCH  24  25
ENDBRANCH  23  24
ENDBRANCH  19  22
ENDBRANCH   3  18
TORSDOF 8
ENDMDL
MODEL 3
REMARK VINA RESULT:      -7.4      4.277      9.899
REMARK  8 active torsions:
REMARK  status: ('A' for Active; 'I' for Inactive)
REMARK    1  A    between atoms: C3_3  and  N1_4 
REMARK       I    between atoms: N1_4  and  C4_5 
REMARK    2  A    between atoms: C4_5  and  C5_7 
REMARK    3  A    between atoms: C6_8  and  C7_9 
REMARK    4  A    between atoms: C7_9  and  N2_10 
REMARK    5  A    between atoms: N2_10  and  C8_11 
REMARK    6  A    between atoms: N2_10  and  C11_14 
REMARK    7  A    between atoms: C8_11  and  C9_12 
REMARK    8  A    between atoms: C11_14  and  C12_15 
ROOT
HETATM    1  C1  UNL     1      29.320   5.743  48.401  1.00  0.00     0.026 C 
HETATM    2  C2  UNL     1      28.259   6.533  48.400  1.00  0.00     0.017 C 
HETATM    3  C3  UNL     1      26.990   5.778  48.544  1.00  0.00     0.045 C 
HETATM    4  C14 UNL     1      25.700   6.124  48.374  1.00  0.00     0.031 C 
HETATM    5  C15 UNL     1      25.082   7.399  47.982  1.00  0.00     0.021 C 
HETATM    6  C16 UNL     1      25.440   8.674  48.226  1.00  0.00     0.116 C 
HETATM    7  N3  UNL     1      26.549   9.187  48.957  1.00  0.00    -0.272 NA
HETATM    8  C17 UNL     1      27.824   8.908  48.978  1.00  0.00     0.151 C 
HETATM    9  C18 UNL     1      28.660   7.934  48.245  1.00  0.00     0.208 C 
HETATM   10  N4  UNL     1      30.020   8.078  48.755  1.00  0.00    -0.258 NA
HETATM   11  C19 UNL     1      31.070   8.781  48.488  1.00  0.00     0.115 C 
HETATM   12  C20 UNL     1      31.432   9.800  47.527  1.00  0.00     0.034 C 
HETATM   13  C21 UNL     1      30.826  10.536  46.614  1.00  0.00    -0.005 C 
HETATM   14 BR1  UNL     1      31.913  11.739  45.648  1.00  0.00    -0.055 Br
HETATM   15  C22 UNL     1      29.392  10.601  46.180  1.00  0.00     0.093 C 
HETATM   16  C23 UNL     1      28.928   9.175  46.036  1.00  0.00     0.092 C 
HETATM   17  N5  UNL     1      28.667   8.216  46.828  1.00  0.00    -0.261 NA
ENDROOT
BRANCH   3  18
HETATM   18  N1  UNL     1      27.290   4.438  48.936  1.00  0.00    -0.316 N 
HETATM   19  C4  UNL     1      26.431   4.074  50.039  1.00  0.00     0.301 C 
HETATM   20  O1  UNL     1      25.536   4.813  50.579  1.00  0.00    -0.258 OA
HETATM   21  H3  UNL     1      27.945   3.693  48.632  1.00  0.00     0.170 HD
BRANCH  19  22
HETATM   22  C5  UNL     1      26.500   2.782  50.675  1.00  0.00    -0.004 C 
HETATM   23  C6  UNL     1      26.553   1.700  51.230  1.00  0.00    -0.077 C 
BRANCH  23  24
HETATM   24  C7  UNL     1      26.597   0.366  51.898  1.00  0.00     0.212 C 
BRANCH  24  25
HETATM   25  N2  UNL     1      26.649   0.590  53.283  1.00  0.00    -0.403 N 
BRANCH  25  26
HETATM   26  C8  UNL     1      27.810   1.004  53.926  1.00  0.00     0.117 C 
BRANCH  26  27
HETATM   27  C9  UNL     1      28.595  -0.075  54.584  1.00  0.00     0.015 C 
HETATM   28  C10 UNL     1      29.588  -0.828  53.789  1.00  0.00     0.006 C 
ENDBRANCH  26  27
ENDBRANCH  25  26
BRANCH  25  29
HETATM   29  C11 UNL     1      25.690  -0.138  54.059  1.00  0.00     0.117 C 
BRANCH  29  30
HETATM   30  C12 UNL     1      24.439  -0.554  53.365  1.00  0.00     0.015 C 
HETATM   31  C13 UNL     1      23.364   0.486  53.309  1.00  0.00     0.006 C 
ENDBRANCH  29  30
ENDBRANCH  25  29
ENDBRANCH  24  25
ENDBRANCH  23  24
ENDBRANCH  19  22
ENDBRANCH   3  18
TORSDOF 8
ENDMDL
MODEL 4
REMARK VINA RESULT:      -7.4      3.855      8.406
REMARK  8 active torsions:
REMARK  status: ('A' for Active; 'I' for Inactive)
REMARK    1  A    between atoms: C3_3  and  N1_4 
REMARK       I    between atoms: N1_4  and  C4_5 
REMARK    2  A    between atoms: C4_5  and  C5_7 
REMARK    3  A    between atoms: C6_8  and  C7_9 
REMARK    4  A    between atoms: C7_9  and  N2_10 
REMARK    5  A    between atoms: N2_10  and  C8_11 
REMARK    6  A    between atoms: N2_10  and  C11_14 
REMARK    7  A    between atoms: C8_11  and  C9_12 
REMARK    8  A    between atoms: C11_14  and  C12_15 
ROOT
HETATM    1  C1  UNL     1      25.067   4.119  49.280  1.00  0.00     0.026 C 
HETATM    2  C2  UNL     1      24.216   5.057  49.661  1.00  0.00     0.017 C 
HETATM    3  C3  UNL     1      23.031   4.500  50.358  1.00  0.00     0.045 C 
HETATM    4  C14 UNL     1      21.844   5.031  50.706  1.00  0.00     0.031 C 
HETATM    5  C15 UNL     1      21.295   6.382  50.518  1.00  0.00     0.021 C 
HETATM    6  C16 UNL     1      21.888   7.591  50.511  1.00  0.00     0.116 C 
HETATM    7  N3  UNL     1      23.257   7.938  50.691  1.00  0.00    -0.272 NA
HETATM    8  C17 UNL     1      24.378   7.473  50.209  1.00  0.00     0.151 C 
HETATM    9  C18 UNL     1      24.699   6.383  49.265  1.00  0.00     0.208 C 
HETATM   10  N4  UNL     1      26.154   6.326  49.166  1.00  0.00    -0.258 NA
HETATM   11  C19 UNL     1      27.084   6.865  48.449  1.00  0.00     0.115 C 
HETATM   12  C20 UNL     1      27.149   7.816  47.360  1.00  0.00     0.034 C 
HETATM   13  C21 UNL     1      26.325   8.628  46.726  1.00  0.00    -0.005 C 
HETATM   14 BR1  UNL     1      27.065   9.653  45.326  1.00  0.00    -0.055 Br
HETATM   15  C22 UNL     1      24.862   8.902  46.912  1.00  0.00     0.093 C 
HETATM   16  C23 UNL     1      24.194   7.561  47.062  1.00  0.00     0.092 C 
HETATM   17  N5  UNL     1      24.158   6.655  47.953  1.00  0.00    -0.261 NA
ENDROOT
BRANCH   3  18
HETATM   18  N1  UNL     1      23.285   3.132  50.680  1.00  0.00    -0.316 N 
HETATM   19  C4  UNL     1      23.715   3.051  52.057  1.00  0.00     0.301 C 
HETATM   20  O1  UNL     1      23.841   4.031  52.870  1.00  0.00    -0.258 OA
HETATM   21  H3  UNL     1      23.235   2.220  50.187  1.00  0.00     0.170 HD
BRANCH  19  22
HETATM   22  C5  UNL     1      24.065   1.800  52.682  1.00  0.00    -0.004 C 
HETATM   23  C6  UNL     1      24.345   0.735  53.201  1.00  0.00    -0.077 C 
BRANCH  23  24
HETATM   24  C7  UNL     1      24.708  -0.572  53.821  1.00  0.00     0.212 C 
BRANCH  24  25
HETATM   25  N2  UNL     1      26.110  -0.651  53.848  1.00  0.00    -0.403 N 
BRANCH  25  26
HETATM   26  C8  UNL     1      26.881   0.115  54.716  1.00  0.00     0.117 C 
BRANCH  26  27
HETATM   27  C9  UNL     1      27.815   1.071  54.063  1.00  0.00     0.015 C 
HETATM   28  C10 UNL     1      29.252   1.020  54.406  1.00  0.00     0.006 C 
ENDBRANCH  26  27
ENDBRANCH  25  26
BRANCH  25  29
HETATM   29  C11 UNL     1      26.724  -1.087  52.630  1.00  0.00     0.117 C 
BRANCH  29  30
HETATM   30  C12 UNL     1      27.349  -2.438  52.636  1.00  0.00     0.015 C 
HETATM   31  C13 UNL     1      28.795  -2.471  53.022  1.00  0.00     0.006 C 
ENDBRANCH  29  30
ENDBRANCH  25  29
ENDBRANCH  24  25
ENDBRANCH  23  24
ENDBRANCH  19  22
ENDBRANCH   3  18
TORSDOF 8
ENDMDL
MODEL 5
REMARK VINA RESULT:      -7.4      1.005      1.904
REMARK  8 active torsions:
REMARK  status: ('A' for Active; 'I' for Inactive)
REMARK    1  A    between atoms: C3_3  and  N1_4 
REMARK       I    between atoms: N1_4  and  C4_5 
REMARK    2  A    between atoms: C4_5  and  C5_7 
REMARK    3  A    between atoms: C6_8  and  C7_9 
REMARK    4  A    between atoms: C7_9  and  N2_10 
REMARK    5  A    between atoms: N2_10  and  C8_11 
REMARK    6  A    between atoms: N2_10  and  C11_14 
REMARK    7  A    between atoms: C8_11  and  C9_12 
REMARK    8  A    between atoms: C11_14  and  C12_15 
ROOT
HETATM    1  C1  UNL     1      23.457   4.611  50.544  1.00  0.00     0.026 C 
HETATM    2  C2  UNL     1      24.070   3.581  51.104  1.00  0.00     0.017 C 
HETATM    3  C3  UNL     1      25.537   3.605  50.883  1.00  0.00     0.045 C 
HETATM    4  C14 UNL     1      26.501   2.684  51.064  1.00  0.00     0.031 C 
HETATM    5  C15 UNL     1      26.439   1.301  51.558  1.00  0.00     0.021 C 
HETATM    6  C16 UNL     1      25.646   0.719  52.476  1.00  0.00     0.116 C 
HETATM    7  N3  UNL     1      24.603   1.278  53.269  1.00  0.00    -0.272 NA
HETATM    8  C17 UNL     1      23.594   2.063  53.010  1.00  0.00     0.151 C 
HETATM    9  C18 UNL     1      23.103   2.707  51.774  1.00  0.00     0.208 C 
HETATM   10  N4  UNL     1      21.945   3.512  52.149  1.00  0.00    -0.258 NA
HETATM   11  C19 UNL     1      20.667   3.354  52.259  1.00  0.00     0.115 C 
HETATM   12  C20 UNL     1      19.724   2.276  52.061  1.00  0.00     0.034 C 
HETATM   13  C21 UNL     1      19.765   0.979  51.817  1.00  0.00    -0.005 C 
HETATM   14 BR1  UNL     1      18.103   0.100  51.660  1.00  0.00    -0.055 Br
HETATM   15  C22 UNL     1      20.919   0.038  51.633  1.00  0.00     0.093 C 
HETATM   16  C23 UNL     1      21.890   0.732  50.714  1.00  0.00     0.092 C 
HETATM   17  N5  UNL     1      22.683   1.721  50.804  1.00  0.00    -0.261 NA
ENDROOT
BRANCH   3  18
HETATM   18  N1  UNL     1      25.908   4.889  50.378  1.00  0.00    -0.316 N 
HETATM   19  C4  UNL     1      26.858   4.709  49.305  1.00  0.00     0.301 C 
HETATM   20  O1  UNL     1      27.296   3.592  48.860  1.00  0.00    -0.258 OA
HETATM   21  H3  UNL     1      25.668   5.877  50.585  1.00  0.00     0.170 HD
BRANCH  19  22
HETATM   22  C5  UNL     1      27.439   5.822  48.596  1.00  0.00    -0.004 C 
HETATM   23  C6  UNL     1      27.932   6.750  47.981  1.00  0.00    -0.077 C 
BRANCH  23  24
HETATM   24  C7  UNL     1      28.514   7.897  47.226  1.00  0.00     0.212 C 
BRANCH  24  25
HETATM   25  N2  UNL     1      29.879   7.967  47.549  1.00  0.00    -0.403 N 
BRANCH  25  26
HETATM   26  C8  UNL     1      30.856   7.331  46.790  1.00  0.00     0.117 C 
BRANCH  26  27
HETATM   27  C9  UNL     1      31.645   6.293  47.507  1.00  0.00     0.015 C 
HETATM   28  C10 UNL     1      31.143   4.903  47.540  1.00  0.00     0.006 C 
ENDBRANCH  26  27
ENDBRANCH  25  26
BRANCH  25  29
HETATM   29  C11 UNL     1      30.171   8.210  48.929  1.00  0.00     0.117 C 
BRANCH  29  30
HETATM   30  C12 UNL     1      30.960   9.433  49.246  1.00  0.00     0.015 C 
HETATM   31  C13 UNL     1      30.336  10.724  48.816  1.00  0.00     0.006 C 
ENDBRANCH  29  30
ENDBRANCH  25  29
ENDBRANCH  24  25
ENDBRANCH  23  24
ENDBRANCH  19  22
ENDBRANCH   3  18
TORSDOF 8
ENDMDL
MODEL 6
REMARK VINA RESULT:      -7.4      4.083      8.963
REMARK  8 active torsions:
REMARK  status: ('A' for Active; 'I' for Inactive)
REMARK    1  A    between atoms: C3_3  and  N1_4 
REMARK       I    between atoms: N1_4  and  C4_5 
REMARK    2  A    between atoms: C4_5  and  C5_7 
REMARK    3  A    between atoms: C6_8  and  C7_9 
REMARK    4  A    between atoms: C7_9  and  N2_10 
REMARK    5  A    between atoms: N2_10  and  C8_11 
REMARK    6  A    between atoms: N2_10  and  C11_14 
REMARK    7  A    between atoms: C8_11  and  C9_12 
REMARK    8  A    between atoms: C11_14  and  C12_15 
ROOT
HETATM    1  C1  UNL     1      27.955   5.351  48.568  1.00  0.00     0.026 C 
HETATM    2  C2  UNL     1      26.793   5.958  48.747  1.00  0.00     0.017 C 
HETATM    3  C3  UNL     1      25.692   5.005  49.026  1.00  0.00     0.045 C 
HETATM    4  C14 UNL     1      24.352   5.141  49.048  1.00  0.00     0.031 C 
HETATM    5  C15 UNL     1      23.493   6.309  48.802  1.00  0.00     0.021 C 
HETATM    6  C16 UNL     1      23.677   7.618  49.052  1.00  0.00     0.116 C 
HETATM    7  N3  UNL     1      24.784   8.288  49.648  1.00  0.00    -0.272 NA
HETATM    8  C17 UNL     1      26.077   8.218  49.485  1.00  0.00     0.151 C 
HETATM    9  C18 UNL     1      26.943   7.409  48.602  1.00  0.00     0.208 C 
HETATM   10  N4  UNL     1      28.322   7.759  48.929  1.00  0.00    -0.258 NA
HETATM   11  C19 UNL     1      29.201   8.629  48.555  1.00  0.00     0.115 C 
HETATM   12  C20 UNL     1      29.259   9.715  47.601  1.00  0.00     0.034 C 
HETATM   13  C21 UNL     1      28.423  10.364  46.812  1.00  0.00    -0.005 C 
HETATM   14 BR1  UNL     1      29.160  11.749  45.764  1.00  0.00    -0.055 Br
HETATM   15  C22 UNL     1      26.950  10.206  46.580  1.00  0.00     0.093 C 
HETATM   16  C23 UNL     1      26.700   8.728  46.435  1.00  0.00     0.092 C 
HETATM   17  N5  UNL     1      26.706   7.722  47.211  1.00  0.00    -0.261 NA
ENDROOT
BRANCH   3  18
HETATM   18  N1  UNL     1      26.250   3.723  49.313  1.00  0.00    -0.316 N 
HETATM   19  C4  UNL     1      25.811   3.308  50.625  1.00  0.00     0.301 C 
HETATM   20  O1  UNL     1      25.039   3.963  51.408  1.00  0.00    -0.258 OA
HETATM   21  H3  UNL     1      26.867   3.044  48.827  1.00  0.00     0.170 HD
BRANCH  19  22
HETATM   22  C5  UNL     1      26.218   2.057  51.214  1.00  0.00    -0.004 C 
HETATM   23  C6  UNL     1      26.582   1.007  51.711  1.00  0.00    -0.077 C 
BRANCH  23  24
HETATM   24  C7  UNL     1      27.018  -0.273  52.342  1.00  0.00     0.212 C 
BRANCH  24  25
HETATM   25  N2  UNL     1      26.972  -0.095  53.734  1.00  0.00    -0.403 N 
BRANCH  25  26
HETATM   26  C8  UNL     1      25.798   0.237  54.402  1.00  0.00     0.117 C 
BRANCH  26  27
HETATM   27  C9  UNL     1      24.646  -0.672  54.156  1.00  0.00     0.015 C 
HETATM   28  C10 UNL     1      23.450  -0.147  53.465  1.00  0.00     0.006 C 
ENDBRANCH  26  27
ENDBRANCH  25  26
BRANCH  25  29
HETATM   29  C11 UNL     1      28.208   0.289  54.345  1.00  0.00     0.117 C 
BRANCH  29  30
HETATM   30  C12 UNL     1      29.452   0.034  53.567  1.00  0.00     0.015 C 
HETATM   31  C13 UNL     1      30.105  -1.289  53.822  1.00  0.00     0.006 C 
ENDBRANCH  29  30
ENDBRANCH  25  29
ENDBRANCH  24  25
ENDBRANCH  23  24
ENDBRANCH  19  22
ENDBRANCH   3  18
TORSDOF 8
ENDMDL
MODEL 7
REMARK VINA RESULT:      -7.2      1.801      3.566
REMARK  8 active torsions:
REMARK  status: ('A' for Active; 'I' for Inactive)
REMARK    1  A    between atoms: C3_3  and  N1_4 
REMARK       I    between atoms: N1_4  and  C4_5 
REMARK    2  A    between atoms: C4_5  and  C5_7 
REMARK    3  A    between atoms: C6_8  and  C7_9 
REMARK    4  A    between atoms: C7_9  and  N2_10 
REMARK    5  A    between atoms: N2_10  and  C8_11 
REMARK    6  A    between atoms: N2_10  and  C11_14 
REMARK    7  A    between atoms: C8_11  and  C9_12 
REMARK    8  A    between atoms: C11_14  and  C12_15 
ROOT
HETATM    1  C1  UNL     1      24.520   3.308  50.684  1.00  0.00     0.026 C 
HETATM    2  C2  UNL     1      23.599   4.247  50.538  1.00  0.00     0.017 C 
HETATM    3  C3  UNL     1      24.174   5.614  50.561  1.00  0.00     0.045 C 
HETATM    4  C14 UNL     1      23.619   6.835  50.672  1.00  0.00     0.031 C 
HETATM    5  C15 UNL     1      22.215   7.252  50.808  1.00  0.00     0.021 C 
HETATM    6  C16 UNL     1      21.079   6.728  50.312  1.00  0.00     0.116 C 
HETATM    7  N3  UNL     1      20.885   5.587  49.482  1.00  0.00    -0.272 NA
HETATM    8  C17 UNL     1      21.346   4.366  49.504  1.00  0.00     0.151 C 
HETATM    9  C18 UNL     1      22.268   3.648  50.407  1.00  0.00     0.208 C 
HETATM   10  N4  UNL     1      22.426   2.302  49.864  1.00  0.00    -0.258 NA
HETATM   11  C19 UNL     1      21.845   1.153  49.975  1.00  0.00     0.115 C 
HETATM   12  C20 UNL     1      20.721   0.615  50.709  1.00  0.00     0.034 C 
HETATM   13  C21 UNL     1      19.741   1.075  51.464  1.00  0.00    -0.005 C 
HETATM   14 BR1  UNL     1      18.543  -0.207  52.159  1.00  0.00    -0.055 Br
HETATM   15  C22 UNL     1      19.385   2.467  51.891  1.00  0.00     0.093 C 
HETATM   16  C23 UNL     1      20.671   3.122  52.322  1.00  0.00     0.092 C 
HETATM   17  N5  UNL     1      21.718   3.546  51.739  1.00  0.00    -0.261 NA
ENDROOT
BRANCH   3  18
HETATM   18  N1  UNL     1      25.594   5.522  50.441  1.00  0.00    -0.316 N 
HETATM   19  C4  UNL     1      25.974   5.917  49.104  1.00  0.00     0.301 C 
HETATM   20  O1  UNL     1      25.183   6.302  48.174  1.00  0.00    -0.258 OA
HETATM   21  H3  UNL     1      26.386   5.253  51.055  1.00  0.00     0.170 HD
BRANCH  19  22
HETATM   22  C5  UNL     1      27.346   5.916  48.661  1.00  0.00    -0.004 C 
HETATM   23  C6  UNL     1      28.502   5.896  48.279  1.00  0.00    -0.077 C 
BRANCH  23  24
HETATM   24  C7  UNL     1      29.912   5.888  47.793  1.00  0.00     0.212 C 
BRANCH  24  25
HETATM   25  N2  UNL     1      30.345   7.223  47.732  1.00  0.00    -0.403 N 
BRANCH  25  26
HETATM   26  C8  UNL     1      30.799   7.804  46.554  1.00  0.00     0.117 C 
BRANCH  26  27
HETATM   27  C9  UNL     1      29.763   8.022  45.509  1.00  0.00     0.015 C 
HETATM   28  C10 UNL     1      28.566   8.822  45.841  1.00  0.00     0.006 C 
ENDBRANCH  26  27
ENDBRANCH  25  26
BRANCH  25  29
HETATM   29  C11 UNL     1      30.828   7.768  48.965  1.00  0.00     0.117 C 
BRANCH  29  30
HETATM   30  C12 UNL     1      30.415   9.161  49.294  1.00  0.00     0.015 C 
HETATM   31  C13 UNL     1      28.943   9.363  49.475  1.00  0.00     0.006 C 
ENDBRANCH  29  30
ENDBRANCH  25  29
ENDBRANCH  24  25
ENDBRANCH  23  24
ENDBRANCH  19  22
ENDBRANCH   3  18
TORSDOF 8
ENDMDL
MODEL 8
REMARK VINA RESULT:      -7.1      4.132     10.248
REMARK  8 active torsions:
REMARK  status: ('A' for Active; 'I' for Inactive)
REMARK    1  A    between atoms: C3_3  and  N1_4 
REMARK       I    between atoms: N1_4  and  C4_5 
REMARK    2  A    between atoms: C4_5  and  C5_7 
REMARK    3  A    between atoms: C6_8  and  C7_9 
REMARK    4  A    between atoms: C7_9  and  N2_10 
REMARK    5  A    between atoms: N2_10  and  C8_11 
REMARK    6  A    between atoms: N2_10  and  C11_14 
REMARK    7  A    between atoms: C8_11  and  C9_12 
REMARK    8  A    between atoms: C11_14  and  C12_15 
ROOT
HETATM    1  C1  UNL     1      28.913   5.534  48.256  1.00  0.00     0.026 C 
HETATM    2  C2  UNL     1      28.391   6.748  48.319  1.00  0.00     0.017 C 
HETATM    3  C3  UNL     1      26.908   6.731  48.292  1.00  0.00     0.045 C 
HETATM    4  C14 UNL     1      25.988   7.697  48.113  1.00  0.00     0.031 C 
HETATM    5  C15 UNL     1      26.133   9.141  47.880  1.00  0.00     0.021 C 
HETATM    6  C16 UNL     1      27.046  10.027  48.322  1.00  0.00     0.116 C 
HETATM    7  N3  UNL     1      28.172   9.831  49.171  1.00  0.00    -0.272 NA
HETATM    8  C17 UNL     1      29.128   8.944  49.212  1.00  0.00     0.151 C 
HETATM    9  C18 UNL     1      29.449   7.761  48.387  1.00  0.00     0.208 C 
HETATM   10  N4  UNL     1      30.632   7.144  48.976  1.00  0.00    -0.258 NA
HETATM   11  C19 UNL     1      31.916   7.240  48.863  1.00  0.00     0.115 C 
HETATM   12  C20 UNL     1      32.842   8.027  48.079  1.00  0.00     0.034 C 
HETATM   13  C21 UNL     1      32.789   9.055  47.253  1.00  0.00    -0.005 C 
HETATM   14 BR1  UNL     1      34.431   9.633  46.524  1.00  0.00    -0.055 Br
HETATM   15  C22 UNL     1      31.636   9.881  46.766  1.00  0.00     0.093 C 
HETATM   16  C23 UNL     1      30.546   8.911  46.395  1.00  0.00     0.092 C 
HETATM   17  N5  UNL     1      29.756   8.142  47.027  1.00  0.00    -0.261 NA
ENDROOT
BRANCH   3  18
HETATM   18  N1  UNL     1      26.457   5.392  48.500  1.00  0.00    -0.316 N 
HETATM   19  C4  UNL     1      25.658   5.353  49.703  1.00  0.00     0.301 C 
HETATM   20  O1  UNL     1      25.381   6.346  50.461  1.00  0.00    -0.258 OA
HETATM   21  H3  UNL     1      26.557   4.480  48.016  1.00  0.00     0.170 HD
BRANCH  19  22
HETATM   22  C5  UNL     1      25.068   4.133  50.196  1.00  0.00    -0.004 C 
HETATM   23  C6  UNL     1      24.576   3.094  50.596  1.00  0.00    -0.077 C 
BRANCH  23  24
HETATM   24  C7  UNL     1      23.992   1.819  51.104  1.00  0.00     0.212 C 
BRANCH  24  25
HETATM   25  N2  UNL     1      24.439   1.645  52.424  1.00  0.00    -0.403 N 
BRANCH  25  26
HETATM   26  C8  UNL     1      25.775   1.413  52.731  1.00  0.00     0.117 C 
BRANCH  26  27
HETATM   27  C9  UNL     1      26.437   0.347  51.933  1.00  0.00     0.015 C 
HETATM   28  C10 UNL     1      26.645  -0.984  52.543  1.00  0.00     0.006 C 
ENDBRANCH  26  27
ENDBRANCH  25  26
BRANCH  25  29
HETATM   29  C11 UNL     1      23.457   1.161  53.346  1.00  0.00     0.117 C 
BRANCH  29  30
HETATM   30  C12 UNL     1      22.989  -0.240  53.159  1.00  0.00     0.015 C 
HETATM   31  C13 UNL     1      22.705  -0.992  54.422  1.00  0.00     0.006 C 
ENDBRANCH  29  30
ENDBRANCH  25  29
ENDBRANCH  24  25
ENDBRANCH  23  24
ENDBRANCH  19  22
ENDBRANCH   3  18
TORSDOF 8
ENDMDL
MODEL 9
REMARK VINA RESULT:      -7.1      2.556      4.444
REMARK  8 active torsions:
REMARK  status: ('A' for Active; 'I' for Inactive)
REMARK    1  A    between atoms: C3_3  and  N1_4 
REMARK       I    between atoms: N1_4  and  C4_5 
REMARK    2  A    between atoms: C4_5  and  C5_7 
REMARK    3  A    between atoms: C6_8  and  C7_9 
REMARK    4  A    between atoms: C7_9  and  N2_10 
REMARK    5  A    between atoms: N2_10  and  C8_11 
REMARK    6  A    between atoms: N2_10  and  C11_14 
REMARK    7  A    between atoms: C8_11  and  C9_12 
REMARK    8  A    between atoms: C11_14  and  C12_15 
ROOT
HETATM    1  C1  UNL     1      25.555   3.785  49.475  1.00  0.00     0.026 C 
HETATM    2  C2  UNL     1      24.763   4.828  49.664  1.00  0.00     0.017 C 
HETATM    3  C3  UNL     1      25.521   6.079  49.908  1.00  0.00     0.045 C 
HETATM    4  C14 UNL     1      25.155   7.294  50.357  1.00  0.00     0.031 C 
HETATM    5  C15 UNL     1      23.845   7.820  50.770  1.00  0.00     0.021 C 
HETATM    6  C16 UNL     1      22.601   7.556  50.328  1.00  0.00     0.116 C 
HETATM    7  N3  UNL     1      22.164   6.670  49.303  1.00  0.00    -0.272 NA
HETATM    8  C17 UNL     1      22.451   5.434  48.994  1.00  0.00     0.151 C 
HETATM    9  C18 UNL     1      23.355   4.427  49.585  1.00  0.00     0.208 C 
HETATM   10  N4  UNL     1      23.267   3.237  48.745  1.00  0.00    -0.258 NA
HETATM   11  C19 UNL     1      22.547   2.165  48.679  1.00  0.00     0.115 C 
HETATM   12  C20 UNL     1      21.444   1.598  49.422  1.00  0.00     0.034 C 
HETATM   13  C21 UNL     1      20.623   1.973  50.384  1.00  0.00    -0.005 C 
HETATM   14 BR1  UNL     1      19.339   0.705  50.937  1.00  0.00    -0.055 Br
HETATM   15  C22 UNL     1      20.510   3.258  51.150  1.00  0.00     0.093 C 
HETATM   16  C23 UNL     1      21.913   3.647  51.536  1.00  0.00     0.092 C 
HETATM   17  N5  UNL     1      22.941   4.077  50.925  1.00  0.00    -0.261 NA
ENDROOT
BRANCH   3  18
HETATM   18  N1  UNL     1      26.894   5.860  49.580  1.00  0.00    -0.316 N 
HETATM   19  C4  UNL     1      27.247   6.712  48.468  1.00  0.00     0.301 C 
HETATM   20  O1  UNL     1      26.474   7.540  47.872  1.00  0.00    -0.258 OA
HETATM   21  H3  UNL     1      27.667   5.265  49.933  1.00  0.00     0.170 HD
BRANCH  19  22
HETATM   22  C5  UNL     1      28.567   6.714  47.887  1.00  0.00    -0.004 C 
HETATM   23  C6  UNL     1      29.689   6.721  47.415  1.00  0.00    -0.077 C 
BRANCH  23  24
HETATM   24  C7  UNL     1      31.064   6.705  46.837  1.00  0.00     0.212 C 
BRANCH  24  25
HETATM   25  N2  UNL     1      31.786   5.695  47.492  1.00  0.00    -0.403 N 
BRANCH  25  26
HETATM   26  C8  UNL     1      31.468   4.348  47.357  1.00  0.00     0.117 C 
BRANCH  26  27
HETATM   27  C9  UNL     1      32.365   3.568  46.462  1.00  0.00     0.015 C 
HETATM   28  C10 UNL     1      33.020   2.350  46.984  1.00  0.00     0.006 C 
ENDBRANCH  26  27
ENDBRANCH  25  26
BRANCH  25  29
HETATM   29  C11 UNL     1      32.452   6.097  48.694  1.00  0.00     0.117 C 
BRANCH  29  30
HETATM   30  C12 UNL     1      33.929   5.910  48.740  1.00  0.00     0.015 C 
HETATM   31  C13 UNL     1      34.733   7.031  48.159  1.00  0.00     0.006 C 
ENDBRANCH  29  30
ENDBRANCH  25  29
ENDBRANCH  24  25
ENDBRANCH  23  24
ENDBRANCH  19  22
ENDBRANCH   3  18
TORSDOF 8
ENDMDL
