MODEL 1
REMARK VINA RESULT:      -8.5      0.000      0.000
REMARK  7 active torsions:
REMARK  status: ('A' for Active; 'I' for Inactive)
REMARK    1  A    between atoms: C6_6  and  N1_7 
REMARK    2  A    between atoms: N1_7  and  N2_8 
REMARK    3  A    between atoms: C7_9  and  C8_10 
REMARK    4  A    between atoms: C7_9  and  C16_20 
REMARK    5  A    between atoms: C9_11  and  C10_12 
REMARK    6  A    between atoms: C16_20  and  C17_21 
REMARK    7  A    between atoms: C17_21  and  C18_22 
ROOT
HETATM    1  N2  UNL     1      26.721   3.325  50.372  1.00  0.00    -0.179 NA
HETATM    2  C7  UNL     1      25.906   3.012  51.319  1.00  0.00     0.054 C 
ENDROOT
BRANCH   2   3
HETATM    3  C8  UNL     1      26.488   2.372  52.494  1.00  0.00     0.028 C 
HETATM    4  C9  UNL     1      27.198   1.256  52.401  1.00  0.00     0.013 C 
BRANCH   4   5
HETATM    5  C10 UNL     1      27.801   0.590  53.610  1.00  0.00     0.200 C 
HETATM    6  O1  UNL     1      27.086   0.903  54.748  1.00  0.00    -0.373 OA
HETATM    7  C11 UNL     1      26.285  -0.116  55.160  1.00  0.00     0.195 C 
HETATM    8  C12 UNL     1      25.492  -0.746  54.004  1.00  0.00     0.201 C 
HETATM    9  O2  UNL     1      26.484  -1.224  53.075  1.00  0.00    -0.351 OA
HETATM   10  C13 UNL     1      27.825  -0.864  53.331  1.00  0.00     0.074 C 
HETATM   11  C14 UNL     1      28.899  -1.631  53.330  1.00  0.00     0.004 C 
HETATM   12  C15 UNL     1      30.144  -0.902  53.644  1.00  0.00     0.038 C 
ENDBRANCH   4   5
ENDBRANCH   2   3
BRANCH   2  13
HETATM   13  C16 UNL     1      24.430   3.247  51.317  1.00  0.00     0.065 C 
BRANCH  13  14
HETATM   14  C17 UNL     1      23.739   1.945  50.998  1.00  0.00     0.035 C 
BRANCH  14  15
HETATM   15  C18 UNL     1      23.056   1.475  52.231  1.00  0.00    -0.007 C 
HETATM   16  C19 UNL     1      21.952   0.755  52.338  1.00  0.00     0.004 C 
HETATM   17  C20 UNL     1      21.296   0.351  51.077  1.00  0.00     0.061 C 
HETATM   18 CL1  UNL     1      21.438   0.388  53.975  1.00  0.00    -0.090 Cl
ENDBRANCH  14  15
ENDBRANCH  13  14
ENDBRANCH   2  13
BRANCH   1  19
HETATM   19  N1  UNL     1      26.292   3.946  49.187  1.00  0.00    -0.278 N 
HETATM   20  H7  UNL     1      25.531   3.838  48.471  1.00  0.00     0.189 HD
BRANCH  19  21
HETATM   21  C6  UNL     1      27.029   5.067  48.717  1.00  0.00     0.050 A 
HETATM   22  C5  UNL     1      26.277   6.218  48.528  1.00  0.00     0.031 A 
HETATM   23  C4  UNL     1      26.900   7.383  48.067  1.00  0.00     0.003 A 
HETATM   24  C3  UNL     1      28.261   7.406  47.796  1.00  0.00     0.007 A 
HETATM   25  C2  UNL     1      28.982   6.246  47.995  1.00  0.00    -0.060 A 
HETATM   26  C1  UNL     1      30.446   6.123  47.747  1.00  0.00     0.048 C 
HETATM   27  C21 UNL     1      28.384   5.102  48.445  1.00  0.00     0.037 A 
ENDBRANCH  19  21
ENDBRANCH   1  19
TORSDOF 7
ENDMDL
MODEL 2
REMARK VINA RESULT:      -8.5      2.543      4.631
REMARK  7 active torsions:
REMARK  status: ('A' for Active; 'I' for Inactive)
REMARK    1  A    between atoms: C6_6  and  N1_7 
REMARK    2  A    between atoms: N1_7  and  N2_8 
REMARK    3  A    between atoms: C7_9  and  C8_10 
REMARK    4  A    between atoms: C7_9  and  C16_20 
REMARK    5  A    between atoms: C9_11  and  C10_12 
REMARK    6  A    between atoms: C16_20  and  C17_21 
REMARK    7  A    between atoms: C17_21  and  C18_22 
ROOT
HETATM    1  N2  UNL     1      25.591   2.842  50.492  1.00  0.00    -0.179 NA
HETATM    2  C7  UNL     1      25.806   2.458  51.704  1.00  0.00     0.054 C 
ENDROOT
BRANCH   2   3
HETATM    3  C8  UNL     1      24.628   2.238  52.535  1.00  0.00     0.028 C 
HETATM    4  C9  UNL     1      23.633   1.455  52.142  1.00  0.00     0.013 C 
BRANCH   4   5
HETATM    5  C10 UNL     1      22.413   1.224  52.996  1.00  0.00     0.200 C 
HETATM    6  O1  UNL     1      21.489   2.230  52.809  1.00  0.00    -0.373 OA
HETATM    7  C11 UNL     1      20.445   1.845  52.026  1.00  0.00     0.195 C 
HETATM    8  C12 UNL     1      20.901   1.091  50.767  1.00  0.00     0.201 C 
HETATM    9  O2  UNL     1      21.625  -0.057  51.249  1.00  0.00    -0.351 OA
HETATM   10  C13 UNL     1      21.886  -0.112  52.635  1.00  0.00     0.074 C 
HETATM   11  C14 UNL     1      21.710  -1.121  53.467  1.00  0.00     0.004 C 
HETATM   12  C15 UNL     1      22.096  -0.813  54.859  1.00  0.00     0.038 C 
ENDBRANCH   4   5
ENDBRANCH   2   3
BRANCH   2  13
HETATM   13  C16 UNL     1      27.146   2.222  52.322  1.00  0.00     0.065 C 
BRANCH  13  14
HETATM   14  C17 UNL     1      26.957   1.390  53.567  1.00  0.00     0.035 C 
BRANCH  14  15
HETATM   15  C18 UNL     1      28.008   0.340  53.578  1.00  0.00    -0.007 C 
HETATM   16  C19 UNL     1      27.925  -0.913  53.164  1.00  0.00     0.004 C 
HETATM   17  C20 UNL     1      26.625  -1.347  52.610  1.00  0.00     0.061 C 
HETATM   18 CL1  UNL     1      29.385  -1.871  53.337  1.00  0.00    -0.090 Cl
ENDBRANCH  14  15
ENDBRANCH  13  14
ENDBRANCH   2  13
BRANCH   1  19
HETATM   19  N1  UNL     1      26.637   3.089  49.587  1.00  0.00    -0.278 N 
HETATM   20  H7  UNL     1      27.415   2.563  49.118  1.00  0.00     0.189 HD
BRANCH  19  21
HETATM   21  C6  UNL     1      26.785   4.411  49.087  1.00  0.00     0.050 A 
HETATM   22  C5  UNL     1      25.627   5.176  49.115  1.00  0.00     0.031 A 
HETATM   23  C4  UNL     1      25.657   6.494  48.646  1.00  0.00     0.003 A 
HETATM   24  C3  UNL     1      26.829   7.050  48.152  1.00  0.00     0.007 A 
HETATM   25  C2  UNL     1      27.964   6.265  48.137  1.00  0.00    -0.060 A 
HETATM   26  C1  UNL     1      29.290   6.728  47.638  1.00  0.00     0.048 C 
HETATM   27  C21 UNL     1      27.947   4.977  48.593  1.00  0.00     0.037 A 
ENDBRANCH  19  21
ENDBRANCH   1  19
TORSDOF 7
ENDMDL
MODEL 3
REMARK VINA RESULT:      -8.3      1.971      2.379
REMARK  7 active torsions:
REMARK  status: ('A' for Active; 'I' for Inactive)
REMARK    1  A    between atoms: C6_6  and  N1_7 
REMARK    2  A    between atoms: N1_7  and  N2_8 
REMARK    3  A    between atoms: C7_9  and  C8_10 
REMARK    4  A    between atoms: C7_9  and  C16_20 
REMARK    5  A    between atoms: C9_11  and  C10_12 
REMARK    6  A    between atoms: C16_20  and  C17_21 
REMARK    7  A    between atoms: C17_21  and  C18_22 
ROOT
HETATM    1  N2  UNL     1      26.402   3.295  50.454  1.00  0.00    -0.179 NA
HETATM    2  C7  UNL     1      25.584   2.891  51.364  1.00  0.00     0.054 C 
ENDROOT
BRANCH   2   3
HETATM    3  C8  UNL     1      26.177   2.255  52.535  1.00  0.00     0.028 C 
HETATM    4  C9  UNL     1      27.096   1.306  52.424  1.00  0.00     0.013 C 
BRANCH   4   5
HETATM    5  C10 UNL     1      27.711   0.645  53.630  1.00  0.00     0.200 C 
HETATM    6  O1  UNL     1      26.964   0.899  54.761  1.00  0.00    -0.373 OA
HETATM    7  C11 UNL     1      26.206  -0.166  55.139  1.00  0.00     0.195 C 
HETATM    8  C12 UNL     1      25.464  -0.809  53.957  1.00  0.00     0.201 C 
HETATM    9  O2  UNL     1      26.492  -1.219  53.036  1.00  0.00    -0.351 OA
HETATM   10  C13 UNL     1      27.810  -0.800  53.322  1.00  0.00     0.074 C 
HETATM   11  C14 UNL     1      28.919  -1.515  53.324  1.00  0.00     0.004 C 
HETATM   12  C15 UNL     1      30.123  -0.734  53.674  1.00  0.00     0.038 C 
ENDBRANCH   4   5
ENDBRANCH   2   3
BRANCH   2  13
HETATM   13  C16 UNL     1      24.096   3.019  51.322  1.00  0.00     0.065 C 
BRANCH  13  14
HETATM   14  C17 UNL     1      23.671   4.006  52.381  1.00  0.00     0.035 C 
BRANCH  14  15
HETATM   15  C18 UNL     1      23.741   5.368  51.791  1.00  0.00    -0.007 C 
HETATM   16  C19 UNL     1      22.772   6.077  51.238  1.00  0.00     0.004 C 
HETATM   17  C20 UNL     1      21.433   5.454  51.192  1.00  0.00     0.061 C 
HETATM   18 CL1  UNL     1      23.233   7.662  50.643  1.00  0.00    -0.090 Cl
ENDBRANCH  14  15
ENDBRANCH  13  14
ENDBRANCH   2  13
BRANCH   1  19
HETATM   19  N1  UNL     1      25.963   3.924  49.277  1.00  0.00    -0.278 N 
HETATM   20  H7  UNL     1      25.200   3.818  48.564  1.00  0.00     0.189 HD
BRANCH  19  21
HETATM   21  C6  UNL     1      26.693   5.053  48.813  1.00  0.00     0.050 A 
HETATM   22  C5  UNL     1      25.938   6.208  48.656  1.00  0.00     0.031 A 
HETATM   23  C4  UNL     1      26.553   7.380  48.204  1.00  0.00     0.003 A 
HETATM   24  C3  UNL     1      27.910   7.407  47.910  1.00  0.00     0.007 A 
HETATM   25  C2  UNL     1      28.633   6.243  48.075  1.00  0.00    -0.060 A 
HETATM   26  C1  UNL     1      30.093   6.125  47.799  1.00  0.00     0.048 C 
HETATM   27  C21 UNL     1      28.043   5.093  48.517  1.00  0.00     0.037 A 
ENDBRANCH  19  21
ENDBRANCH   1  19
TORSDOF 7
ENDMDL
MODEL 4
REMARK VINA RESULT:      -8.2      3.209      7.303
REMARK  7 active torsions:
REMARK  status: ('A' for Active; 'I' for Inactive)
REMARK    1  A    between atoms: C6_6  and  N1_7 
REMARK    2  A    between atoms: N1_7  and  N2_8 
REMARK    3  A    between atoms: C7_9  and  C8_10 
REMARK    4  A    between atoms: C7_9  and  C16_20 
REMARK    5  A    between atoms: C9_11  and  C10_12 
REMARK    6  A    between atoms: C16_20  and  C17_21 
REMARK    7  A    between atoms: C17_21  and  C18_22 
ROOT
HETATM    1  N2  UNL     1      25.633   2.503  53.115  1.00  0.00    -0.179 NA
HETATM    2  C7  UNL     1      25.509   2.759  51.858  1.00  0.00     0.054 C 
ENDROOT
BRANCH   2   3
HETATM    3  C8  UNL     1      24.147   2.879  51.350  1.00  0.00     0.028 C 
HETATM    4  C9  UNL     1      23.313   1.849  51.339  1.00  0.00     0.013 C 
BRANCH   4   5
HETATM    5  C10 UNL     1      21.905   1.966  50.816  1.00  0.00     0.200 C 
HETATM    6  O1  UNL     1      21.432   0.737  50.407  1.00  0.00    -0.373 OA
HETATM    7  C11 UNL     1      20.562   0.187  51.298  1.00  0.00     0.195 C 
HETATM    8  C12 UNL     1      21.066   0.281  52.746  1.00  0.00     0.201 C 
HETATM    9  O2  UNL     1      21.234   1.688  53.004  1.00  0.00    -0.351 OA
HETATM   10  C13 UNL     1      21.092   2.560  51.902  1.00  0.00     0.074 C 
HETATM   11  C14 UNL     1      20.393   3.677  51.820  1.00  0.00     0.004 C 
HETATM   12  C15 UNL     1      20.480   4.331  50.499  1.00  0.00     0.038 C 
ENDBRANCH   4   5
ENDBRANCH   2   3
BRANCH   2  13
HETATM   13  C16 UNL     1      26.630   2.943  50.887  1.00  0.00     0.065 C 
BRANCH  13  14
HETATM   14  C17 UNL     1      26.068   3.525  49.613  1.00  0.00     0.035 C 
BRANCH  14  15
HETATM   15  C18 UNL     1      27.135   4.337  48.972  1.00  0.00    -0.007 C 
HETATM   16  C19 UNL     1      27.118   5.621  48.659  1.00  0.00     0.004 C 
HETATM   17  C20 UNL     1      25.885   6.369  48.984  1.00  0.00     0.061 C 
HETATM   18 CL1  UNL     1      28.575   6.240  47.904  1.00  0.00    -0.090 Cl
ENDBRANCH  14  15
ENDBRANCH  13  14
ENDBRANCH   2  13
BRANCH   1  19
HETATM   19  N1  UNL     1      26.888   2.363  53.731  1.00  0.00    -0.278 N 
HETATM   20  H7  UNL     1      27.540   2.927  54.330  1.00  0.00     0.189 HD
BRANCH  19  21
HETATM   21  C6  UNL     1      27.578   1.131  53.563  1.00  0.00     0.050 A 
HETATM   22  C5  UNL     1      28.925   1.170  53.898  1.00  0.00     0.031 A 
HETATM   23  C4  UNL     1      29.703   0.015  53.771  1.00  0.00     0.003 A 
HETATM   24  C3  UNL     1      29.149  -1.173  53.314  1.00  0.00     0.007 A 
HETATM   25  C2  UNL     1      27.808  -1.180  52.989  1.00  0.00    -0.060 A 
HETATM   26  C1  UNL     1      27.080  -2.380  52.488  1.00  0.00     0.048 C 
HETATM   27  C21 UNL     1      27.038  -0.058  53.109  1.00  0.00     0.037 A 
ENDBRANCH  19  21
ENDBRANCH   1  19
TORSDOF 7
ENDMDL
MODEL 5
REMARK VINA RESULT:      -7.7      3.729      7.032
REMARK  7 active torsions:
REMARK  status: ('A' for Active; 'I' for Inactive)
REMARK    1  A    between atoms: C6_6  and  N1_7 
REMARK    2  A    between atoms: N1_7  and  N2_8 
REMARK    3  A    between atoms: C7_9  and  C8_10 
REMARK    4  A    between atoms: C7_9  and  C16_20 
REMARK    5  A    between atoms: C9_11  and  C10_12 
REMARK    6  A    between atoms: C16_20  and  C17_21 
REMARK    7  A    between atoms: C17_21  and  C18_22 
ROOT
HETATM    1  N2  UNL     1      26.211   2.359  52.326  1.00  0.00    -0.179 NA
HETATM    2  C7  UNL     1      24.946   2.217  52.126  1.00  0.00     0.054 C 
ENDROOT
BRANCH   2   3
HETATM    3  C8  UNL     1      24.436   2.673  50.838  1.00  0.00     0.028 C 
HETATM    4  C9  UNL     1      23.234   2.326  50.400  1.00  0.00     0.013 C 
BRANCH   4   5
HETATM    5  C10 UNL     1      22.701   2.794  49.070  1.00  0.00     0.200 C 
HETATM    6  O1  UNL     1      22.063   1.764  48.411  1.00  0.00    -0.373 OA
HETATM    7  C11 UNL     1      20.708   1.865  48.468  1.00  0.00     0.195 C 
HETATM    8  C12 UNL     1      20.201   2.192  49.881  1.00  0.00     0.201 C 
HETATM    9  O2  UNL     1      20.818   3.446  50.230  1.00  0.00    -0.351 OA
HETATM   10  C13 UNL     1      21.804   3.939  49.348  1.00  0.00     0.074 C 
HETATM   11  C14 UNL     1      21.933   5.156  48.853  1.00  0.00     0.004 C 
HETATM   12  C15 UNL     1      23.096   5.308  47.955  1.00  0.00     0.038 C 
ENDBRANCH   4   5
ENDBRANCH   2   3
BRANCH   2  13
HETATM   13  C16 UNL     1      23.968   1.630  53.091  1.00  0.00     0.065 C 
BRANCH  13  14
HETATM   14  C17 UNL     1      24.038   0.126  52.987  1.00  0.00     0.035 C 
BRANCH  14  15
HETATM   15  C18 UNL     1      22.671  -0.412  53.205  1.00  0.00    -0.007 C 
HETATM   16  C19 UNL     1      22.199  -1.065  54.253  1.00  0.00     0.004 C 
HETATM   17  C20 UNL     1      23.139  -1.300  55.369  1.00  0.00     0.061 C 
HETATM   18 CL1  UNL     1      20.517  -1.552  54.154  1.00  0.00    -0.090 Cl
ENDBRANCH  14  15
ENDBRANCH  13  14
ENDBRANCH   2  13
BRANCH   1  19
HETATM   19  N1  UNL     1      26.831   1.960  53.522  1.00  0.00    -0.278 N 
HETATM   20  H7  UNL     1      26.834   2.231  54.537  1.00  0.00     0.189 HD
BRANCH  19  21
HETATM   21  C6  UNL     1      27.748   0.876  53.468  1.00  0.00     0.050 A 
HETATM   22  C5  UNL     1      29.063   1.212  53.762  1.00  0.00     0.031 A 
HETATM   23  C4  UNL     1      30.052   0.223  53.739  1.00  0.00     0.003 A 
HETATM   24  C3  UNL     1      29.739  -1.092  53.425  1.00  0.00     0.007 A 
HETATM   25  C2  UNL     1      28.424  -1.395  53.137  1.00  0.00    -0.060 A 
HETATM   26  C1  UNL     1      27.943  -2.762  52.786  1.00  0.00     0.048 C 
HETATM   27  C21 UNL     1      27.449  -0.438  53.158  1.00  0.00     0.037 A 
ENDBRANCH  19  21
ENDBRANCH   1  19
TORSDOF 7
ENDMDL
MODEL 6
REMARK VINA RESULT:      -7.6      4.500      9.431
REMARK  7 active torsions:
REMARK  status: ('A' for Active; 'I' for Inactive)
REMARK    1  A    between atoms: C6_6  and  N1_7 
REMARK    2  A    between atoms: N1_7  and  N2_8 
REMARK    3  A    between atoms: C7_9  and  C8_10 
REMARK    4  A    between atoms: C7_9  and  C16_20 
REMARK    5  A    between atoms: C9_11  and  C10_12 
REMARK    6  A    between atoms: C16_20  and  C17_21 
REMARK    7  A    between atoms: C17_21  and  C18_22 
ROOT
HETATM    1  N2  UNL     1      20.343   0.294  52.654  1.00  0.00    -0.179 NA
HETATM    2  C7  UNL     1      21.583   0.109  52.355  1.00  0.00     0.054 C 
ENDROOT
BRANCH   2   3
HETATM    3  C8  UNL     1      22.127   0.943  51.290  1.00  0.00     0.028 C 
HETATM    4  C9  UNL     1      22.083   2.267  51.348  1.00  0.00     0.013 C 
BRANCH   4   5
HETATM    5  C10 UNL     1      22.643   3.134  50.250  1.00  0.00     0.200 C 
HETATM    6  O1  UNL     1      21.626   3.743  49.543  1.00  0.00    -0.373 OA
HETATM    7  C11 UNL     1      21.474   5.055  49.870  1.00  0.00     0.195 C 
HETATM    8  C12 UNL     1      21.488   5.289  51.388  1.00  0.00     0.201 C 
HETATM    9  O2  UNL     1      22.765   4.799  51.840  1.00  0.00    -0.351 OA
HETATM   10  C13 UNL     1      23.554   4.107  50.895  1.00  0.00     0.074 C 
HETATM   11  C14 UNL     1      24.834   4.265  50.617  1.00  0.00     0.004 C 
HETATM   12  C15 UNL     1      25.325   3.356  49.561  1.00  0.00     0.038 C 
ENDBRANCH   4   5
ENDBRANCH   2   3
BRANCH   2  13
HETATM   13  C16 UNL     1      22.502  -0.876  53.002  1.00  0.00     0.065 C 
BRANCH  13  14
HETATM   14  C17 UNL     1      23.583  -0.115  53.730  1.00  0.00     0.035 C 
BRANCH  14  15
HETATM   15  C18 UNL     1      24.867  -0.830  53.518  1.00  0.00    -0.007 C 
HETATM   16  C19 UNL     1      25.935  -0.426  52.851  1.00  0.00     0.004 C 
HETATM   17  C20 UNL     1      25.865   0.911  52.228  1.00  0.00     0.061 C 
HETATM   18 CL1  UNL     1      27.280  -1.552  52.813  1.00  0.00    -0.090 Cl
ENDBRANCH  14  15
ENDBRANCH  13  14
ENDBRANCH   2  13
BRANCH   1  19
HETATM   19  N1  UNL     1      19.696  -0.442  53.661  1.00  0.00    -0.278 N 
HETATM   20  H7  UNL     1      19.806  -0.642  54.686  1.00  0.00     0.189 HD
BRANCH  19  21
HETATM   21  C6  UNL     1      18.533  -1.178  53.305  1.00  0.00     0.050 A 
HETATM   22  C5  UNL     1      17.654  -0.504  52.467  1.00  0.00     0.031 A 
HETATM   23  C4  UNL     1      16.475  -1.132  52.053  1.00  0.00     0.003 A 
HETATM   24  C3  UNL     1      16.169  -2.422  52.467  1.00  0.00     0.007 A 
HETATM   25  C2  UNL     1      17.063  -3.065  53.299  1.00  0.00    -0.060 A 
HETATM   26  C1  UNL     1      16.867  -4.448  53.820  1.00  0.00     0.048 C 
HETATM   27  C21 UNL     1      18.218  -2.462  53.709  1.00  0.00     0.037 A 
ENDBRANCH  19  21
ENDBRANCH   1  19
TORSDOF 7
ENDMDL
MODEL 7
REMARK VINA RESULT:      -7.5      2.402      4.394
REMARK  7 active torsions:
REMARK  status: ('A' for Active; 'I' for Inactive)
REMARK    1  A    between atoms: C6_6  and  N1_7 
REMARK    2  A    between atoms: N1_7  and  N2_8 
REMARK    3  A    between atoms: C7_9  and  C8_10 
REMARK    4  A    between atoms: C7_9  and  C16_20 
REMARK    5  A    between atoms: C9_11  and  C10_12 
REMARK    6  A    between atoms: C16_20  and  C17_21 
REMARK    7  A    between atoms: C17_21  and  C18_22 
ROOT
HETATM    1  N2  UNL     1      27.955   4.729  49.016  1.00  0.00    -0.179 NA
HETATM    2  C7  UNL     1      26.677   4.662  49.174  1.00  0.00     0.054 C 
ENDROOT
BRANCH   2   3
HETATM    3  C8  UNL     1      26.146   3.391  49.650  1.00  0.00     0.028 C 
HETATM    4  C9  UNL     1      26.321   2.985  50.900  1.00  0.00     0.013 C 
BRANCH   4   5
HETATM    5  C10 UNL     1      25.776   1.672  51.399  1.00  0.00     0.200 C 
HETATM    6  O1  UNL     1      26.782   0.735  51.509  1.00  0.00    -0.373 OA
HETATM    7  C11 UNL     1      27.172   0.534  52.796  1.00  0.00     0.195 C 
HETATM    8  C12 UNL     1      27.374   1.850  53.563  1.00  0.00     0.201 C 
HETATM    9  O2  UNL     1      26.100   2.520  53.518  1.00  0.00    -0.351 OA
HETATM   10  C13 UNL     1      25.108   1.949  52.691  1.00  0.00     0.074 C 
HETATM   11  C14 UNL     1      23.843   1.700  52.974  1.00  0.00     0.004 C 
HETATM   12  C15 UNL     1      23.096   1.093  51.853  1.00  0.00     0.038 C 
ENDBRANCH   4   5
ENDBRANCH   2   3
BRANCH   2  13
HETATM   13  C16 UNL     1      25.705   5.767  48.913  1.00  0.00     0.065 C 
BRANCH  13  14
HETATM   14  C17 UNL     1      25.513   6.546  50.191  1.00  0.00     0.035 C 
BRANCH  14  15
HETATM   15  C18 UNL     1      24.084   6.940  50.276  1.00  0.00    -0.007 C 
HETATM   16  C19 UNL     1      23.125   6.412  51.018  1.00  0.00     0.004 C 
HETATM   17  C20 UNL     1      23.504   5.278  51.887  1.00  0.00     0.061 C 
HETATM   18 CL1  UNL     1      21.541   7.148  50.853  1.00  0.00    -0.090 Cl
ENDBRANCH  14  15
ENDBRANCH  13  14
ENDBRANCH   2  13
BRANCH   1  19
HETATM   19  N1  UNL     1      28.595   5.895  48.563  1.00  0.00    -0.278 N 
HETATM   20  H7  UNL     1      28.358   6.899  48.368  1.00  0.00     0.189 HD
BRANCH  19  21
HETATM   21  C6  UNL     1      29.977   5.813  48.242  1.00  0.00     0.050 A 
HETATM   22  C5  UNL     1      30.737   6.894  48.669  1.00  0.00     0.031 A 
HETATM   23  C4  UNL     1      32.111   6.920  48.406  1.00  0.00     0.003 A 
HETATM   24  C3  UNL     1      32.728   5.880  47.725  1.00  0.00     0.007 A 
HETATM   25  C2  UNL     1      31.946   4.820  47.314  1.00  0.00    -0.060 A 
HETATM   26  C1  UNL     1      32.471   3.636  46.575  1.00  0.00     0.048 C 
HETATM   27  C21 UNL     1      30.603   4.783  47.565  1.00  0.00     0.037 A 
ENDBRANCH  19  21
ENDBRANCH   1  19
TORSDOF 7
ENDMDL
MODEL 8
REMARK VINA RESULT:      -7.4      3.720      8.433
REMARK  7 active torsions:
REMARK  status: ('A' for Active; 'I' for Inactive)
REMARK    1  A    between atoms: C6_6  and  N1_7 
REMARK    2  A    between atoms: N1_7  and  N2_8 
REMARK    3  A    between atoms: C7_9  and  C8_10 
REMARK    4  A    between atoms: C7_9  and  C16_20 
REMARK    5  A    between atoms: C9_11  and  C10_12 
REMARK    6  A    between atoms: C16_20  and  C17_21 
REMARK    7  A    between atoms: C17_21  and  C18_22 
ROOT
HETATM    1  N2  UNL     1      22.501   1.640  52.113  1.00  0.00    -0.179 NA
HETATM    2  C7  UNL     1      23.785   1.699  52.016  1.00  0.00     0.054 C 
ENDROOT
BRANCH   2   3
HETATM    3  C8  UNL     1      24.319   2.594  50.996  1.00  0.00     0.028 C 
HETATM    4  C9  UNL     1      23.528   3.244  50.154  1.00  0.00     0.013 C 
BRANCH   4   5
HETATM    5  C10 UNL     1      24.074   4.170  49.097  1.00  0.00     0.200 C 
HETATM    6  O1  UNL     1      23.111   4.452  48.151  1.00  0.00    -0.373 OA
HETATM    7  C11 UNL     1      22.573   5.692  48.303  1.00  0.00     0.195 C 
HETATM    8  C12 UNL     1      22.210   6.001  49.764  1.00  0.00     0.201 C 
HETATM    9  O2  UNL     1      23.444   5.889  50.498  1.00  0.00    -0.351 OA
HETATM   10  C13 UNL     1      24.560   5.380  49.798  1.00  0.00     0.074 C 
HETATM   11  C14 UNL     1      25.790   5.855  49.753  1.00  0.00     0.004 C 
HETATM   12  C15 UNL     1      26.701   5.054  48.910  1.00  0.00     0.038 C 
ENDBRANCH   4   5
ENDBRANCH   2   3
BRANCH   2  13
HETATM   13  C16 UNL     1      24.762   0.938  52.852  1.00  0.00     0.065 C 
BRANCH  13  14
HETATM   14  C17 UNL     1      25.878   0.454  51.959  1.00  0.00     0.035 C 
BRANCH  14  15
HETATM   15  C18 UNL     1      27.093   0.284  52.798  1.00  0.00    -0.007 C 
HETATM   16  C19 UNL     1      27.726  -0.833  53.113  1.00  0.00     0.004 C 
HETATM   17  C20 UNL     1      27.171  -2.090  52.569  1.00  0.00     0.061 C 
HETATM   18 CL1  UNL     1      29.139  -0.645  54.136  1.00  0.00    -0.090 Cl
ENDBRANCH  14  15
ENDBRANCH  13  14
ENDBRANCH   2  13
BRANCH   1  19
HETATM   19  N1  UNL     1      21.858   0.819  53.054  1.00  0.00    -0.278 N 
HETATM   20  H7  UNL     1      22.037   0.425  54.011  1.00  0.00     0.189 HD
BRANCH  19  21
HETATM   21  C6  UNL     1      20.573   0.307  52.723  1.00  0.00     0.050 A 
HETATM   22  C5  UNL     1      20.069  -0.622  53.623  1.00  0.00     0.031 A 
HETATM   23  C4  UNL     1      18.812  -1.192  53.397  1.00  0.00     0.003 A 
HETATM   24  C3  UNL     1      18.059  -0.843  52.283  1.00  0.00     0.007 A 
HETATM   25  C2  UNL     1      18.588   0.082  51.407  1.00  0.00    -0.060 A 
HETATM   26  C1  UNL     1      17.894   0.551  50.173  1.00  0.00     0.048 C 
HETATM   27  C21 UNL     1      19.814   0.647  51.618  1.00  0.00     0.037 A 
ENDBRANCH  19  21
ENDBRANCH   1  19
TORSDOF 7
ENDMDL
MODEL 9
REMARK VINA RESULT:      -7.4      2.792      6.954
REMARK  7 active torsions:
REMARK  status: ('A' for Active; 'I' for Inactive)
REMARK    1  A    between atoms: C6_6  and  N1_7 
REMARK    2  A    between atoms: N1_7  and  N2_8 
REMARK    3  A    between atoms: C7_9  and  C8_10 
REMARK    4  A    between atoms: C7_9  and  C16_20 
REMARK    5  A    between atoms: C9_11  and  C10_12 
REMARK    6  A    between atoms: C16_20  and  C17_21 
REMARK    7  A    between atoms: C17_21  and  C18_22 
ROOT
HETATM    1  N2  UNL     1      25.986   2.464  52.179  1.00  0.00    -0.179 NA
HETATM    2  C7  UNL     1      24.969   2.401  51.391  1.00  0.00     0.054 C 
ENDROOT
BRANCH   2   3
HETATM    3  C8  UNL     1      24.960   3.329  50.265  1.00  0.00     0.028 C 
HETATM    4  C9  UNL     1      25.140   4.631  50.433  1.00  0.00     0.013 C 
BRANCH   4   5
HETATM    5  C10 UNL     1      25.132   5.595  49.274  1.00  0.00     0.200 C 
HETATM    6  O1  UNL     1      23.844   5.812  48.830  1.00  0.00    -0.373 OA
HETATM    7  C11 UNL     1      23.347   7.013  49.233  1.00  0.00     0.195 C 
HETATM    8  C12 UNL     1      23.615   7.292  50.720  1.00  0.00     0.201 C 
HETATM    9  O2  UNL     1      25.048   7.263  50.863  1.00  0.00    -0.351 OA
HETATM   10  C13 UNL     1      25.793   6.834  49.743  1.00  0.00     0.074 C 
HETATM   11  C14 UNL     1      26.858   7.392  49.199  1.00  0.00     0.004 C 
HETATM   12  C15 UNL     1      27.376   6.658  48.027  1.00  0.00     0.038 C 
ENDBRANCH   4   5
ENDBRANCH   2   3
BRANCH   2  13
HETATM   13  C16 UNL     1      23.811   1.467  51.530  1.00  0.00     0.065 C 
BRANCH  13  14
HETATM   14  C17 UNL     1      22.762   2.133  52.386  1.00  0.00     0.035 C 
BRANCH  14  15
HETATM   15  C18 UNL     1      21.464   1.457  52.127  1.00  0.00    -0.007 C 
HETATM   16  C19 UNL     1      20.830   0.573  52.880  1.00  0.00     0.004 C 
HETATM   17  C20 UNL     1      21.480   0.194  54.152  1.00  0.00     0.061 C 
HETATM   18 CL1  UNL     1      19.304  -0.013  52.243  1.00  0.00    -0.090 Cl
ENDBRANCH  14  15
ENDBRANCH  13  14
ENDBRANCH   2  13
BRANCH   1  19
HETATM   19  N1  UNL     1      26.120   1.628  53.300  1.00  0.00    -0.278 N 
HETATM   20  H7  UNL     1      25.583   1.381  54.169  1.00  0.00     0.189 HD
BRANCH  19  21
HETATM   21  C6  UNL     1      27.291   0.828  53.398  1.00  0.00     0.050 A 
HETATM   22  C5  UNL     1      28.435   1.517  53.777  1.00  0.00     0.031 A 
HETATM   23  C4  UNL     1      29.646   0.829  53.905  1.00  0.00     0.003 A 
HETATM   24  C3  UNL     1      29.722  -0.535  53.659  1.00  0.00     0.007 A 
HETATM   25  C2  UNL     1      28.568  -1.192  53.284  1.00  0.00    -0.060 A 
HETATM   26  C1  UNL     1      28.500  -2.652  52.990  1.00  0.00     0.048 C 
HETATM   27  C21 UNL     1      27.379  -0.531  53.157  1.00  0.00     0.037 A 
ENDBRANCH  19  21
ENDBRANCH   1  19
TORSDOF 7
ENDMDL
