MODEL 1
REMARK VINA RESULT:      -7.7      0.000      0.000
REMARK  2 active torsions:
REMARK  status: ('A' for Active; 'I' for Inactive)
REMARK    1  A    between atoms: N5_12  and  C8_13 
REMARK    2  A    between atoms: C8_13  and  C9_14 
ROOT
HETATM    1  C1  UNL     1      17.935  -0.515  51.998  1.00  0.00     0.039 C 
HETATM    2  C2  UNL     1      19.107  -0.142  51.959  1.00  0.00     0.024 C 
HETATM    3  N1  UNL     1      20.396   0.267  51.891  1.00  0.00    -0.202 NA
HETATM    4  C3  UNL     1      20.813   1.335  51.349  1.00  0.00     0.083 C 
HETATM    5  C4  UNL     1      20.001   2.386  50.648  1.00  0.00     0.089 C 
HETATM    6  C5  UNL     1      19.812   3.482  51.649  1.00  0.00    -0.004 C 
HETATM    7  C6  UNL     1      20.888   3.769  52.433  1.00  0.00     0.082 C 
HETATM    8  N2  UNL     1      22.110   3.030  52.267  1.00  0.00    -0.362 N 
HETATM    9  C7  UNL     1      22.166   1.856  51.345  1.00  0.00     0.214 C 
HETATM   10  N3  UNL     1      23.162   0.932  51.810  1.00  0.00    -0.130 NA
HETATM   11  N4  UNL     1      23.883   1.128  52.860  1.00  0.00    -0.068 NA
HETATM   12  N5  UNL     1      24.846   0.115  53.192  1.00  0.00    -0.261 N 
HETATM   13  C10 UNL     1      25.620   1.173  52.508  1.00  0.00     0.111 C 
HETATM   14  C11 UNL     1      26.484   2.245  52.396  1.00  0.00     0.021 C 
HETATM   15  C12 UNL     1      26.581   2.639  50.935  1.00  0.00     0.298 C 
HETATM   16  N6  UNL     1      26.030   3.997  50.831  1.00  0.00     0.087 N 
HETATM   17  C13 UNL     1      25.639   4.274  49.453  1.00  0.00     0.275 C 
HETATM   18  C14 UNL     1      24.379   3.578  49.070  1.00  0.00     0.029 A 
HETATM   19  C15 UNL     1      23.228   2.927  48.798  1.00  0.00     0.035 A 
HETATM   20  C16 UNL     1      22.706   2.398  50.088  1.00  0.00    -0.009 A 
HETATM   21  O1  UNL     1      23.711   3.117  50.153  1.00  0.00     0.000 OA
HETATM   22  H6  UNL     1      22.885   3.401  52.846  1.00  0.00     0.162 HD
HETATM   23  H15 UNL     1      26.669   4.735  51.121  1.00  0.00     0.316 HD
ENDROOT
BRANCH  12  24
HETATM   24  C8  UNL     1      25.721  -0.967  53.576  1.00  0.00     0.183 C 
BRANCH  24  25
HETATM   25  C9  UNL     1      26.717  -1.237  52.452  1.00  0.00     0.244 C 
HETATM   26  F1  UNL     1      26.645  -2.536  52.006  1.00  0.00    -0.254 F 
ENDBRANCH  24  25
ENDBRANCH  12  24
TORSDOF 2
ENDMDL
MODEL 2
REMARK VINA RESULT:      -7.5      1.723      4.928
REMARK  2 active torsions:
REMARK  status: ('A' for Active; 'I' for Inactive)
REMARK    1  A    between atoms: N5_12  and  C8_13 
REMARK    2  A    between atoms: C8_13  and  C9_14 
ROOT
HETATM    1  C1  UNL     1      26.347   6.397  48.638  1.00  0.00     0.039 C 
HETATM    2  C2  UNL     1      25.849   5.500  49.318  1.00  0.00     0.024 C 
HETATM    3  N1  UNL     1      25.287   4.531  50.077  1.00  0.00    -0.202 NA
HETATM    4  C3  UNL     1      24.059   4.212  50.093  1.00  0.00     0.083 C 
HETATM    5  C4  UNL     1      22.942   4.826  49.300  1.00  0.00     0.089 C 
HETATM    6  C5  UNL     1      22.718   3.906  48.141  1.00  0.00    -0.004 C 
HETATM    7  C6  UNL     1      22.798   2.573  48.411  1.00  0.00     0.082 C 
HETATM    8  N2  UNL     1      23.085   2.131  49.748  1.00  0.00    -0.362 N 
HETATM    9  C7  UNL     1      23.438   3.118  50.813  1.00  0.00     0.214 C 
HETATM   10  N3  UNL     1      24.285   2.486  51.786  1.00  0.00    -0.130 NA
HETATM   11  N4  UNL     1      24.652   1.253  51.719  1.00  0.00    -0.068 NA
HETATM   12  N5  UNL     1      25.494   0.762  52.775  1.00  0.00    -0.261 N 
HETATM   13  C10 UNL     1      24.134   0.300  53.121  1.00  0.00     0.111 C 
HETATM   14  C11 UNL     1      23.092  -0.598  53.258  1.00  0.00     0.021 C 
HETATM   15  C12 UNL     1      21.887   0.138  53.811  1.00  0.00     0.298 C 
HETATM   16  N6  UNL     1      20.849   0.079  52.774  1.00  0.00     0.087 N 
HETATM   17  C13 UNL     1      19.862   1.131  52.993  1.00  0.00     0.275 C 
HETATM   18  C14 UNL     1      20.372   2.476  52.610  1.00  0.00     0.029 A 
HETATM   19  C15 UNL     1      20.896   3.662  52.231  1.00  0.00     0.035 A 
HETATM   20  C16 UNL     1      22.170   3.370  51.518  1.00  0.00    -0.009 A 
HETATM   21  O1  UNL     1      21.490   2.392  51.852  1.00  0.00     0.000 OA
HETATM   22  H6  UNL     1      23.023   1.102  49.853  1.00  0.00     0.162 HD
HETATM   23  H15 UNL     1      20.346  -0.806  52.729  1.00  0.00     0.316 HD
ENDROOT
BRANCH  12  24
HETATM   24  C8  UNL     1      26.435   0.322  53.778  1.00  0.00     0.183 C 
BRANCH  24  25
HETATM   25  C9  UNL     1      27.244  -0.852  53.235  1.00  0.00     0.244 C 
HETATM   26  F1  UNL     1      26.813  -1.235  51.986  1.00  0.00    -0.254 F 
ENDBRANCH  24  25
ENDBRANCH  12  24
TORSDOF 2
ENDMDL
MODEL 3
REMARK VINA RESULT:      -7.4      3.636      6.073
REMARK  2 active torsions:
REMARK  status: ('A' for Active; 'I' for Inactive)
REMARK    1  A    between atoms: N5_12  and  C8_13 
REMARK    2  A    between atoms: C8_13  and  C9_14 
ROOT
HETATM    1  C1  UNL     1      28.003   0.836  53.067  1.00  0.00     0.039 C 
HETATM    2  C2  UNL     1      27.469   1.663  52.328  1.00  0.00     0.024 C 
HETATM    3  N1  UNL     1      26.874   2.554  51.501  1.00  0.00    -0.202 NA
HETATM    4  C3  UNL     1      25.629   2.648  51.275  1.00  0.00     0.083 C 
HETATM    5  C4  UNL     1      24.527   1.802  51.846  1.00  0.00     0.089 C 
HETATM    6  C5  UNL     1      23.943   2.604  52.966  1.00  0.00    -0.004 C 
HETATM    7  C6  UNL     1      23.818   3.942  52.741  1.00  0.00     0.082 C 
HETATM    8  N2  UNL     1      24.241   4.499  51.485  1.00  0.00    -0.362 N 
HETATM    9  C7  UNL     1      24.947   3.648  50.479  1.00  0.00     0.214 C 
HETATM   10  N3  UNL     1      25.814   4.472  49.684  1.00  0.00    -0.130 NA
HETATM   11  N4  UNL     1      25.929   5.746  49.840  1.00  0.00    -0.068 NA
HETATM   12  N5  UNL     1      26.832   6.434  48.959  1.00  0.00    -0.261 N 
HETATM   13  C10 UNL     1      25.488   6.662  48.388  1.00  0.00     0.111 C 
HETATM   14  C11 UNL     1      24.336   7.365  48.087  1.00  0.00     0.021 C 
HETATM   15  C12 UNL     1      23.401   6.454  47.315  1.00  0.00     0.298 C 
HETATM   16  N6  UNL     1      22.209   6.271  48.154  1.00  0.00     0.087 N 
HETATM   17  C13 UNL     1      21.487   5.072  47.742  1.00  0.00     0.275 C 
HETATM   18  C14 UNL     1      22.166   3.822  48.182  1.00  0.00     0.029 A 
HETATM   19  C15 UNL     1      22.829   2.732  48.624  1.00  0.00     0.035 A 
HETATM   20  C16 UNL     1      23.887   3.209  49.556  1.00  0.00    -0.009 A 
HETATM   21  O1  UNL     1      23.104   4.066  49.127  1.00  0.00     0.000 OA
HETATM   22  H6  UNL     1      24.007   5.503  51.392  1.00  0.00     0.162 HD
HETATM   23  H15 UNL     1      21.550   7.048  48.127  1.00  0.00     0.316 HD
ENDROOT
BRANCH  12  24
HETATM   24  C8  UNL     1      27.831   7.088  48.147  1.00  0.00     0.183 C 
BRANCH  24  25
HETATM   25  C9  UNL     1      29.040   6.171  47.994  1.00  0.00     0.244 C 
HETATM   26  F1  UNL     1      28.701   4.848  48.149  1.00  0.00    -0.254 F 
ENDBRANCH  24  25
ENDBRANCH  12  24
TORSDOF 2
ENDMDL
MODEL 4
REMARK VINA RESULT:      -7.4      2.648      4.001
REMARK  2 active torsions:
REMARK  status: ('A' for Active; 'I' for Inactive)
REMARK    1  A    between atoms: N5_12  and  C8_13 
REMARK    2  A    between atoms: C8_13  and  C9_14 
ROOT
HETATM    1  C1  UNL     1      20.446   4.438  48.431  1.00  0.00     0.039 C 
HETATM    2  C2  UNL     1      21.145   3.802  49.220  1.00  0.00     0.024 C 
HETATM    3  N1  UNL     1      21.931   3.102  50.070  1.00  0.00    -0.202 NA
HETATM    4  C3  UNL     1      23.053   3.476  50.529  1.00  0.00     0.083 C 
HETATM    5  C4  UNL     1      23.782   4.758  50.240  1.00  0.00     0.089 C 
HETATM    6  C5  UNL     1      23.496   5.654  51.403  1.00  0.00    -0.004 C 
HETATM    7  C6  UNL     1      23.488   5.060  52.629  1.00  0.00     0.082 C 
HETATM    8  N2  UNL     1      23.743   3.649  52.741  1.00  0.00    -0.362 N 
HETATM    9  C7  UNL     1      23.875   2.804  51.515  1.00  0.00     0.214 C 
HETATM   10  N3  UNL     1      23.466   1.461  51.818  1.00  0.00    -0.130 NA
HETATM   11  N4  UNL     1      23.063   1.082  52.981  1.00  0.00    -0.068 NA
HETATM   12  N5  UNL     1      22.696  -0.299  53.130  1.00  0.00    -0.261 N 
HETATM   13  C10 UNL     1      24.067  -0.204  53.676  1.00  0.00     0.111 C 
HETATM   14  C11 UNL     1      25.047  -0.150  54.647  1.00  0.00     0.021 C 
HETATM   15  C12 UNL     1      26.396  -0.007  53.968  1.00  0.00     0.298 C 
HETATM   16  N6  UNL     1      26.933   1.298  54.373  1.00  0.00     0.087 N 
HETATM   17  C13 UNL     1      27.959   1.732  53.429  1.00  0.00     0.275 C 
HETATM   18  C14 UNL     1      27.381   2.206  52.142  1.00  0.00     0.029 A 
HETATM   19  C15 UNL     1      26.786   2.633  51.007  1.00  0.00     0.035 A 
HETATM   20  C16 UNL     1      25.326   2.716  51.280  1.00  0.00    -0.009 A 
HETATM   21  O1  UNL     1      26.051   2.439  52.243  1.00  0.00     0.000 OA
HETATM   22  H6  UNL     1      23.809   3.330  53.724  1.00  0.00     0.162 HD
HETATM   23  H15 UNL     1      27.348   1.314  55.303  1.00  0.00     0.316 HD
ENDROOT
BRANCH  12  24
HETATM   24  C8  UNL     1      22.219  -1.658  53.229  1.00  0.00     0.183 C 
BRANCH  24  25
HETATM   25  C9  UNL     1      21.272  -1.779  54.419  1.00  0.00     0.244 C 
HETATM   26  F1  UNL     1      21.207  -0.610  55.141  1.00  0.00    -0.254 F 
ENDBRANCH  24  25
ENDBRANCH  12  24
TORSDOF 2
ENDMDL
MODEL 5
REMARK VINA RESULT:      -7.0      8.022     10.915
REMARK  2 active torsions:
REMARK  status: ('A' for Active; 'I' for Inactive)
REMARK    1  A    between atoms: N5_12  and  C8_13 
REMARK    2  A    between atoms: C8_13  and  C9_14 
ROOT
HETATM    1  C1  UNL     1      27.020   4.362  48.939  1.00  0.00     0.039 C 
HETATM    2  C2  UNL     1      28.095   4.901  48.678  1.00  0.00     0.024 C 
HETATM    3  N1  UNL     1      29.270   5.496  48.367  1.00  0.00    -0.202 NA
HETATM    4  C3  UNL     1      29.414   6.660  47.884  1.00  0.00     0.083 C 
HETATM    5  C4  UNL     1      28.337   7.646  47.530  1.00  0.00     0.089 C 
HETATM    6  C5  UNL     1      28.274   8.602  48.679  1.00  0.00    -0.004 C 
HETATM    7  C6  UNL     1      29.469   8.965  49.223  1.00  0.00     0.082 C 
HETATM    8  N2  UNL     1      30.690   8.428  48.686  1.00  0.00    -0.362 N 
HETATM    9  C7  UNL     1      30.654   7.368  47.634  1.00  0.00     0.214 C 
HETATM   10  N3  UNL     1      31.835   6.558  47.734  1.00  0.00    -0.130 NA
HETATM   11  N4  UNL     1      32.763   6.753  48.605  1.00  0.00    -0.068 NA
HETATM   12  N5  UNL     1      33.890   5.862  48.573  1.00  0.00    -0.261 N 
HETATM   13  C10 UNL     1      34.343   7.081  47.869  1.00  0.00     0.111 C 
HETATM   14  C11 UNL     1      35.022   8.272  47.699  1.00  0.00     0.021 C 
HETATM   15  C12 UNL     1      34.709   8.815  46.317  1.00  0.00     0.298 C 
HETATM   16  N6  UNL     1      33.996  10.082  46.518  1.00  0.00     0.087 N 
HETATM   17  C13 UNL     1      33.247  10.431  45.314  1.00  0.00     0.275 C 
HETATM   18  C14 UNL     1      32.023   9.601  45.148  1.00  0.00     0.029 A 
HETATM   19  C15 UNL     1      30.923   8.821  45.068  1.00  0.00     0.035 A 
HETATM   20  C16 UNL     1      30.801   8.101  46.365  1.00  0.00    -0.009 A 
HETATM   21  O1  UNL     1      31.700   8.948  46.288  1.00  0.00     0.000 OA
HETATM   22  H6  UNL     1      31.535   8.850  49.112  1.00  0.00     0.162 HD
HETATM   23  H15 UNL     1      34.596  10.874  46.744  1.00  0.00     0.316 HD
ENDROOT
BRANCH  12  24
HETATM   24  C8  UNL     1      34.953   4.886  48.602  1.00  0.00     0.183 C 
BRANCH  24  25
HETATM   25  C9  UNL     1      34.505   3.625  47.869  1.00  0.00     0.244 C 
HETATM   26  F1  UNL     1      35.440   3.206  46.953  1.00  0.00    -0.254 F 
ENDBRANCH  24  25
ENDBRANCH  12  24
TORSDOF 2
ENDMDL
MODEL 6
REMARK VINA RESULT:      -7.0      6.163      8.934
REMARK  2 active torsions:
REMARK  status: ('A' for Active; 'I' for Inactive)
REMARK    1  A    between atoms: N5_12  and  C8_13 
REMARK    2  A    between atoms: C8_13  and  C9_14 
ROOT
HETATM    1  C1  UNL     1      25.468   3.282  49.728  1.00  0.00     0.039 C 
HETATM    2  C2  UNL     1      26.372   4.030  49.355  1.00  0.00     0.024 C 
HETATM    3  N1  UNL     1      27.356   4.852  48.923  1.00  0.00    -0.202 NA
HETATM    4  C3  UNL     1      27.205   6.037  48.494  1.00  0.00     0.083 C 
HETATM    5  C4  UNL     1      25.922   6.803  48.348  1.00  0.00     0.089 C 
HETATM    6  C5  UNL     1      25.845   7.692  49.549  1.00  0.00    -0.004 C 
HETATM    7  C6  UNL     1      27.016   8.264  49.945  1.00  0.00     0.082 C 
HETATM    8  N2  UNL     1      28.226   7.994  49.217  1.00  0.00    -0.362 N 
HETATM    9  C7  UNL     1      28.239   6.981  48.119  1.00  0.00     0.214 C 
HETATM   10  N3  UNL     1      29.554   6.415  48.010  1.00  0.00    -0.130 NA
HETATM   11  N4  UNL     1      30.545   6.761  48.757  1.00  0.00    -0.068 NA
HETATM   12  N5  UNL     1      31.803   6.109  48.520  1.00  0.00    -0.261 N 
HETATM   13  C10 UNL     1      31.910   7.414  47.834  1.00  0.00     0.111 C 
HETATM   14  C11 UNL     1      32.320   8.720  47.642  1.00  0.00     0.021 C 
HETATM   15  C12 UNL     1      31.713   9.234  46.351  1.00  0.00     0.298 C 
HETATM   16  N6  UNL     1      30.809  10.330  46.720  1.00  0.00     0.087 N 
HETATM   17  C13 UNL     1      29.842  10.563  45.652  1.00  0.00     0.275 C 
HETATM   18  C14 UNL     1      28.786   9.515  45.606  1.00  0.00     0.029 A 
HETATM   19  C15 UNL     1      27.854   8.538  45.631  1.00  0.00     0.035 A 
HETATM   20  C16 UNL     1      28.060   7.767  46.888  1.00  0.00    -0.009 A 
HETATM   21  O1  UNL     1      28.761   8.776  46.739  1.00  0.00     0.000 OA
HETATM   22  H6  UNL     1      29.028   8.560  49.549  1.00  0.00     0.162 HD
HETATM   23  H15 UNL     1      31.275  11.217  46.909  1.00  0.00     0.316 HD
ENDROOT
BRANCH  12  24
HETATM   24  C8  UNL     1      33.025   5.359  48.347  1.00  0.00     0.183 C 
BRANCH  24  25
HETATM   25  C9  UNL     1      32.694   3.965  47.823  1.00  0.00     0.244 C 
HETATM   26  F1  UNL     1      31.476   3.933  47.187  1.00  0.00    -0.254 F 
ENDBRANCH  24  25
ENDBRANCH  12  24
TORSDOF 2
ENDMDL
MODEL 7
REMARK VINA RESULT:      -6.9      2.646      4.520
REMARK  2 active torsions:
REMARK  status: ('A' for Active; 'I' for Inactive)
REMARK    1  A    between atoms: N5_12  and  C8_13 
REMARK    2  A    between atoms: C8_13  and  C9_14 
ROOT
HETATM    1  C1  UNL     1      17.690   4.019  51.269  1.00  0.00     0.039 C 
HETATM    2  C2  UNL     1      18.910   3.859  51.231  1.00  0.00     0.024 C 
HETATM    3  N1  UNL     1      20.251   3.675  51.214  1.00  0.00    -0.202 NA
HETATM    4  C3  UNL     1      20.857   2.579  51.416  1.00  0.00     0.083 C 
HETATM    5  C4  UNL     1      20.253   1.241  51.733  1.00  0.00     0.089 C 
HETATM    6  C5  UNL     1      20.235   0.491  50.439  1.00  0.00    -0.004 C 
HETATM    7  C6  UNL     1      21.329   0.647  49.642  1.00  0.00     0.082 C 
HETATM    8  N2  UNL     1      22.408   1.497  50.067  1.00  0.00    -0.362 N 
HETATM    9  C7  UNL     1      22.279   2.321  51.306  1.00  0.00     0.214 C 
HETATM   10  N3  UNL     1      23.092   3.498  51.181  1.00  0.00    -0.130 NA
HETATM   11  N4  UNL     1      23.813   3.761  50.147  1.00  0.00    -0.068 NA
HETATM   12  N5  UNL     1      24.580   4.976  50.174  1.00  0.00    -0.261 N 
HETATM   13  C10 UNL     1      25.539   3.907  50.527  1.00  0.00     0.111 C 
HETATM   14  C11 UNL     1      26.578   3.017  50.334  1.00  0.00     0.021 C 
HETATM   15  C12 UNL     1      26.770   2.214  51.606  1.00  0.00     0.298 C 
HETATM   16  N6  UNL     1      26.465   0.818  51.270  1.00  0.00     0.087 N 
HETATM   17  C13 UNL     1      26.155   0.067  52.483  1.00  0.00     0.275 C 
HETATM   18  C14 UNL     1      24.803   0.386  53.017  1.00  0.00     0.029 A 
HETATM   19  C15 UNL     1      23.562   0.715  53.437  1.00  0.00     0.035 A 
HETATM   20  C16 UNL     1      22.931   1.518  52.354  1.00  0.00    -0.009 A 
HETATM   21  O1  UNL     1      24.043   1.037  52.105  1.00  0.00     0.000 OA
HETATM   22  H6  UNL     1      23.223   1.459  49.429  1.00  0.00     0.162 HD
HETATM   23  H15 UNL     1      27.216   0.324  50.789  1.00  0.00     0.316 HD
ENDROOT
BRANCH  12  24
HETATM   24  C8  UNL     1      25.248   6.256  50.171  1.00  0.00     0.183 C 
BRANCH  24  25
HETATM   25  C9  UNL     1      25.805   6.534  48.778  1.00  0.00     0.244 C 
HETATM   26  F1  UNL     1      27.114   6.128  48.661  1.00  0.00    -0.254 F 
ENDBRANCH  24  25
ENDBRANCH  12  24
TORSDOF 2
ENDMDL
MODEL 8
REMARK VINA RESULT:      -6.6      2.701      4.835
REMARK  2 active torsions:
REMARK  status: ('A' for Active; 'I' for Inactive)
REMARK    1  A    between atoms: N5_12  and  C8_13 
REMARK    2  A    between atoms: C8_13  and  C9_14 
ROOT
HETATM    1  C1  UNL     1      21.012   6.742  46.757  1.00  0.00     0.039 C 
HETATM    2  C2  UNL     1      21.446   5.924  47.568  1.00  0.00     0.024 C 
HETATM    3  N1  UNL     1      21.942   5.019  48.444  1.00  0.00    -0.202 NA
HETATM    4  C3  UNL     1      23.081   5.064  48.999  1.00  0.00     0.083 C 
HETATM    5  C4  UNL     1      24.149   6.104  48.819  1.00  0.00     0.089 C 
HETATM    6  C5  UNL     1      24.022   7.021  49.995  1.00  0.00    -0.004 C 
HETATM    7  C6  UNL     1      23.753   6.426  51.190  1.00  0.00     0.082 C 
HETATM    8  N2  UNL     1      23.607   4.997  51.261  1.00  0.00    -0.362 N 
HETATM    9  C7  UNL     1      23.607   4.173  50.015  1.00  0.00     0.214 C 
HETATM   10  N3  UNL     1      22.827   2.987  50.230  1.00  0.00    -0.130 NA
HETATM   11  N4  UNL     1      22.242   2.708  51.344  1.00  0.00    -0.068 NA
HETATM   12  N5  UNL     1      21.505   1.476  51.407  1.00  0.00    -0.261 N 
HETATM   13  C10 UNL     1      22.801   1.184  52.055  1.00  0.00     0.111 C 
HETATM   14  C11 UNL     1      23.676   0.949  53.098  1.00  0.00     0.021 C 
HETATM   15  C12 UNL     1      25.065   0.732  52.526  1.00  0.00     0.298 C 
HETATM   16  N6  UNL     1      25.898   1.834  53.024  1.00  0.00     0.087 N 
HETATM   17  C13 UNL     1      27.077   1.991  52.178  1.00  0.00     0.275 C 
HETATM   18  C14 UNL     1      26.757   2.631  50.873  1.00  0.00     0.029 A 
HETATM   19  C15 UNL     1      26.396   3.227  49.716  1.00  0.00     0.035 A 
HETATM   20  C16 UNL     1      24.994   3.699  49.884  1.00  0.00    -0.009 A 
HETATM   21  O1  UNL     1      25.536   3.214  50.886  1.00  0.00     0.000 OA
HETATM   22  H6  UNL     1      23.504   4.653  52.233  1.00  0.00     0.162 HD
HETATM   23  H15 UNL     1      26.224   1.718  53.983  1.00  0.00     0.316 HD
ENDROOT
BRANCH  12  24
HETATM   24  C8  UNL     1      20.672   0.297  51.413  1.00  0.00     0.183 C 
BRANCH  24  25
HETATM   25  C9  UNL     1      19.674   0.386  52.563  1.00  0.00     0.244 C 
HETATM   26  F1  UNL     1      20.276   0.165  53.780  1.00  0.00    -0.254 F 
ENDBRANCH  24  25
ENDBRANCH  12  24
TORSDOF 2
ENDMDL
MODEL 9
REMARK VINA RESULT:      -6.5      4.106      6.317
REMARK  2 active torsions:
REMARK  status: ('A' for Active; 'I' for Inactive)
REMARK    1  A    between atoms: N5_12  and  C8_13 
REMARK    2  A    between atoms: C8_13  and  C9_14 
ROOT
HETATM    1  C1  UNL     1      21.078  10.268  48.987  1.00  0.00     0.039 C 
HETATM    2  C2  UNL     1      21.838   9.314  49.161  1.00  0.00     0.024 C 
HETATM    3  N1  UNL     1      22.671   8.270  49.375  1.00  0.00    -0.202 NA
HETATM    4  C3  UNL     1      22.381   7.197  49.987  1.00  0.00     0.083 C 
HETATM    5  C4  UNL     1      21.072   6.829  50.625  1.00  0.00     0.089 C 
HETATM    6  C5  UNL     1      20.379   5.943  49.639  1.00  0.00    -0.004 C 
HETATM    7  C6  UNL     1      21.167   5.047  48.982  1.00  0.00     0.082 C 
HETATM    8  N2  UNL     1      22.578   5.000  49.257  1.00  0.00    -0.362 N 
HETATM    9  C7  UNL     1      23.210   6.019  50.149  1.00  0.00     0.214 C 
HETATM   10  N3  UNL     1      24.583   6.197  49.769  1.00  0.00    -0.130 NA
HETATM   11  N4  UNL     1      25.147   5.552  48.807  1.00  0.00    -0.068 NA
HETATM   12  N5  UNL     1      26.533   5.835  48.553  1.00  0.00    -0.261 N 
HETATM   13  C10 UNL     1      26.533   4.586  49.343  1.00  0.00     0.111 C 
HETATM   14  C11 UNL     1      26.643   3.228  49.574  1.00  0.00     0.021 C 
HETATM   15  C12 UNL     1      26.395   2.966  51.048  1.00  0.00     0.298 C 
HETATM   16  N6  UNL     1      25.176   2.151  51.128  1.00  0.00     0.087 N 
HETATM   17  C13 UNL     1      24.596   2.249  52.464  1.00  0.00     0.275 C 
HETATM   18  C14 UNL     1      23.913   3.552  52.691  1.00  0.00     0.029 A 
HETATM   19  C15 UNL     1      23.303   4.750  52.822  1.00  0.00     0.035 A 
HETATM   20  C16 UNL     1      23.262   5.372  51.471  1.00  0.00    -0.009 A 
HETATM   21  O1  UNL     1      23.697   4.216  51.531  1.00  0.00     0.000 OA
HETATM   22  H6  UNL     1      23.055   4.217  48.774  1.00  0.00     0.162 HD
HETATM   23  H15 UNL     1      25.314   1.162  50.927  1.00  0.00     0.316 HD
ENDROOT
BRANCH  12  24
HETATM   24  C8  UNL     1      27.888   6.219  48.236  1.00  0.00     0.183 C 
BRANCH  24  25
HETATM   25  C9  UNL     1      28.091   7.692  48.579  1.00  0.00     0.244 C 
HETATM   26  F1  UNL     1      27.342   8.072  49.667  1.00  0.00    -0.254 F 
ENDBRANCH  24  25
ENDBRANCH  12  24
TORSDOF 2
ENDMDL
