MODEL 1
REMARK VINA RESULT:      -7.8      0.000      0.000
REMARK  3 active torsions:
REMARK  status: ('A' for Active; 'I' for Inactive)
REMARK    1  A    between atoms: O1_1  and  C1_2 
REMARK    2  A    between atoms: C1_2  and  C2_3 
REMARK    3  A    between atoms: C5_7  and  C6_8 
ROOT
HETATM    1  C2  UNL     1      21.818   2.333  52.030  1.00  0.00     0.270 C 
HETATM    2  C3  UNL     1      22.659   1.314  52.727  1.00  0.00     0.035 C 
HETATM    3  C4  UNL     1      23.500   0.419  53.320  1.00  0.00     0.039 C 
HETATM    4 CL1  UNL     1      23.238  -0.923  54.488  1.00  0.00    -0.084 Cl
HETATM    5  C5  UNL     1      24.957   0.486  52.993  1.00  0.00    -0.027 C 
HETATM    6  C12 UNL     1      25.387   1.386  52.159  1.00  0.00     0.028 C 
HETATM    7  C13 UNL     1      25.780   2.399  51.239  1.00  0.00     0.113 C 
HETATM    8  N1  UNL     1      24.562   2.769  51.150  1.00  0.00    -0.270 NA
HETATM    9  C14 UNL     1      24.258   3.858  50.295  1.00  0.00     0.270 C 
HETATM   10  N2  UNL     1      23.261   3.506  49.569  1.00  0.00    -0.269 NA
HETATM   11  C15 UNL     1      22.712   2.197  49.761  1.00  0.00     0.415 C 
HETATM   12  N3  UNL     1      21.634   2.074  50.655  1.00  0.00     0.112 NA
HETATM   13  H18 UNL     1      20.803   2.614  50.331  1.00  0.00     0.319 HD
ENDROOT
BRANCH   5  14
HETATM   14  C6  UNL     1      25.867  -0.497  53.675  1.00  0.00     0.046 A 
HETATM   15  C7  UNL     1      26.778   0.133  54.635  1.00  0.00    -0.017 A 
HETATM   16  C8  UNL     1      28.076   0.197  54.841  1.00  0.00    -0.004 A 
HETATM   17  C9  UNL     1      28.859  -0.554  53.874  1.00  0.00    -0.004 A 
HETATM   18  C10 UNL     1      28.093  -1.154  52.984  1.00  0.00    -0.026 A 
HETATM   19  C11 UNL     1      26.650  -1.297  52.673  1.00  0.00     0.040 A 
ENDBRANCH   5  14
BRANCH   1  20
HETATM   20  C1  UNL     1      20.421   2.266  52.711  1.00  0.00     0.203 C 
BRANCH  20  21
HETATM   21  O1  UNL     1      19.691   3.392  52.362  1.00  0.00    -0.398 OA
HETATM   22  H1  UNL     1      20.070   3.722  51.501  1.00  0.00     0.209 HD
ENDBRANCH  20  21
ENDBRANCH   1  20
TORSDOF 3
ENDMDL
MODEL 2
REMARK VINA RESULT:      -7.2      2.922      4.424
REMARK  3 active torsions:
REMARK  status: ('A' for Active; 'I' for Inactive)
REMARK    1  A    between atoms: O1_1  and  C1_2 
REMARK    2  A    between atoms: C1_2  and  C2_3 
REMARK    3  A    between atoms: C5_7  and  C6_8 
ROOT
HETATM    1  C2  UNL     1      24.741   4.003  50.606  1.00  0.00     0.270 C 
HETATM    2  C3  UNL     1      24.895   2.644  51.206  1.00  0.00     0.035 C 
HETATM    3  C4  UNL     1      24.948   1.407  51.778  1.00  0.00     0.039 C 
HETATM    4 CL1  UNL     1      26.263   0.197  51.966  1.00  0.00    -0.084 Cl
HETATM    5  C5  UNL     1      23.705   0.860  52.406  1.00  0.00    -0.027 C 
HETATM    6  C12 UNL     1      22.615   1.567  52.394  1.00  0.00     0.028 C 
HETATM    7  C13 UNL     1      21.462   2.401  52.340  1.00  0.00     0.113 C 
HETATM    8  N1  UNL     1      22.148   3.283  51.722  1.00  0.00    -0.270 NA
HETATM    9  C14 UNL     1      21.498   4.485  51.344  1.00  0.00     0.270 C 
HETATM   10  N2  UNL     1      22.254   5.456  51.708  1.00  0.00    -0.269 NA
HETATM   11  C15 UNL     1      23.488   5.146  52.364  1.00  0.00     0.415 C 
HETATM   12  N3  UNL     1      24.637   5.038  51.560  1.00  0.00     0.112 NA
HETATM   13  H18 UNL     1      24.862   5.939  51.088  1.00  0.00     0.319 HD
ENDROOT
BRANCH   5  14
HETATM   14  C6  UNL     1      23.782  -0.513  53.012  1.00  0.00     0.046 A 
HETATM   15  C7  UNL     1      22.482  -1.187  53.073  1.00  0.00    -0.017 A 
HETATM   16  C8  UNL     1      21.720  -1.740  53.993  1.00  0.00    -0.004 A 
HETATM   17  C9  UNL     1      22.289  -1.695  55.329  1.00  0.00    -0.004 A 
HETATM   18  C10 UNL     1      23.469  -1.106  55.339  1.00  0.00    -0.026 A 
HETATM   19  C11 UNL     1      24.403  -0.470  54.379  1.00  0.00     0.040 A 
ENDBRANCH   5  14
BRANCH   1  20
HETATM   20  C1  UNL     1      26.039   4.252  49.784  1.00  0.00     0.203 C 
BRANCH  20  21
HETATM   21  O1  UNL     1      27.128   3.780  50.502  1.00  0.00    -0.398 OA
HETATM   22  H1  UNL     1      27.883   4.403  50.315  1.00  0.00     0.209 HD
ENDBRANCH  20  21
ENDBRANCH   1  20
TORSDOF 3
ENDMDL
MODEL 3
REMARK VINA RESULT:      -7.2      3.333      6.408
REMARK  3 active torsions:
REMARK  status: ('A' for Active; 'I' for Inactive)
REMARK    1  A    between atoms: O1_1  and  C1_2 
REMARK    2  A    between atoms: C1_2  and  C2_3 
REMARK    3  A    between atoms: C5_7  and  C6_8 
ROOT
HETATM    1  C2  UNL     1      26.636   1.372  52.979  1.00  0.00     0.270 C 
HETATM    2  C3  UNL     1      25.537   1.815  52.069  1.00  0.00     0.035 C 
HETATM    3  C4  UNL     1      24.478   2.161  51.283  1.00  0.00     0.039 C 
HETATM    4 CL1  UNL     1      24.286   3.322  49.924  1.00  0.00    -0.084 Cl
HETATM    5  C5  UNL     1      23.163   1.489  51.523  1.00  0.00    -0.027 C 
HETATM    6  C12 UNL     1      23.060   0.599  52.464  1.00  0.00     0.028 C 
HETATM    7  C13 UNL     1      23.026  -0.363  53.514  1.00  0.00     0.113 C 
HETATM    8  N1  UNL     1      24.264  -0.141  53.735  1.00  0.00    -0.270 NA
HETATM    9  C14 UNL     1      24.893  -0.868  54.778  1.00  0.00     0.270 C 
HETATM   10  N2  UNL     1      25.990  -1.335  54.306  1.00  0.00    -0.269 NA
HETATM   11  C15 UNL     1      26.319  -1.049  52.942  1.00  0.00     0.415 C 
HETATM   12  N3  UNL     1      27.122   0.078  52.695  1.00  0.00     0.112 NA
HETATM   13  H18 UNL     1      28.065  -0.018  53.130  1.00  0.00     0.319 HD
ENDROOT
BRANCH   5  14
HETATM   14  C6  UNL     1      22.006   1.902  50.657  1.00  0.00     0.046 A 
HETATM   15  C7  UNL     1      21.023   2.726  51.367  1.00  0.00    -0.017 A 
HETATM   16  C8  UNL     1      19.732   2.690  51.622  1.00  0.00    -0.004 A 
HETATM   17  C9  UNL     1      19.057   1.533  51.060  1.00  0.00    -0.004 A 
HETATM   18  C10 UNL     1      19.890   0.754  50.398  1.00  0.00    -0.026 A 
HETATM   19  C11 UNL     1      21.330   0.706  50.048  1.00  0.00     0.040 A 
ENDBRANCH   5  14
BRANCH   1  20
HETATM   20  C1  UNL     1      27.805   2.373  52.747  1.00  0.00     0.203 C 
BRANCH  20  21
HETATM   21  O1  UNL     1      28.275   2.814  53.976  1.00  0.00    -0.398 OA
HETATM   22  H1  UNL     1      29.109   3.327  53.794  1.00  0.00     0.209 HD
ENDBRANCH  20  21
ENDBRANCH   1  20
TORSDOF 3
ENDMDL
MODEL 4
REMARK VINA RESULT:      -7.2      3.437      6.496
REMARK  3 active torsions:
REMARK  status: ('A' for Active; 'I' for Inactive)
REMARK    1  A    between atoms: O1_1  and  C1_2 
REMARK    2  A    between atoms: C1_2  and  C2_3 
REMARK    3  A    between atoms: C5_7  and  C6_8 
ROOT
HETATM    1  C2  UNL     1      27.500   1.134  53.173  1.00  0.00     0.270 C 
HETATM    2  C3  UNL     1      26.876   1.938  52.080  1.00  0.00     0.035 C 
HETATM    3  C4  UNL     1      26.227   2.634  51.104  1.00  0.00     0.039 C 
HETATM    4 CL1  UNL     1      26.776   3.820  49.870  1.00  0.00    -0.084 Cl
HETATM    5  C5  UNL     1      24.752   2.438  50.950  1.00  0.00    -0.027 C 
HETATM    6  C12 UNL     1      24.129   1.615  51.740  1.00  0.00     0.028 C 
HETATM    7  C13 UNL     1      23.517   0.699  52.643  1.00  0.00     0.113 C 
HETATM    8  N1  UNL     1      24.658   0.489  53.176  1.00  0.00    -0.270 NA
HETATM    9  C14 UNL     1      24.728  -0.428  54.256  1.00  0.00     0.270 C 
HETATM   10  N2  UNL     1      25.702  -1.227  54.014  1.00  0.00    -0.269 NA
HETATM   11  C15 UNL     1      26.448  -1.040  52.806  1.00  0.00     0.415 C 
HETATM   12  N3  UNL     1      27.604  -0.243  52.879  1.00  0.00     0.112 NA
HETATM   13  H18 UNL     1      28.318  -0.658  53.514  1.00  0.00     0.319 HD
ENDROOT
BRANCH   5  14
HETATM   14  C6  UNL     1      24.055   3.231  49.881  1.00  0.00     0.046 A 
HETATM   15  C7  UNL     1      23.374   4.421  50.401  1.00  0.00    -0.017 A 
HETATM   16  C8  UNL     1      22.158   4.924  50.391  1.00  0.00    -0.004 A 
HETATM   17  C9  UNL     1      21.193   4.107  49.674  1.00  0.00    -0.004 A 
HETATM   18  C10 UNL     1      21.749   3.022  49.172  1.00  0.00    -0.026 A 
HETATM   19  C11 UNL     1      23.084   2.378  49.117  1.00  0.00     0.040 A 
ENDBRANCH   5  14
BRANCH   1  20
HETATM   20  C1  UNL     1      28.944   1.689  53.336  1.00  0.00     0.203 C 
BRANCH  20  21
HETATM   21  O1  UNL     1      28.950   3.038  53.014  1.00  0.00    -0.398 OA
HETATM   22  H1  UNL     1      29.027   3.094  52.022  1.00  0.00     0.209 HD
ENDBRANCH  20  21
ENDBRANCH   1  20
TORSDOF 3
ENDMDL
MODEL 5
REMARK VINA RESULT:      -7.0      2.373      3.526
REMARK  3 active torsions:
REMARK  status: ('A' for Active; 'I' for Inactive)
REMARK    1  A    between atoms: O1_1  and  C1_2 
REMARK    2  A    between atoms: C1_2  and  C2_3 
REMARK    3  A    between atoms: C5_7  and  C6_8 
ROOT
HETATM    1  C2  UNL     1      22.041   3.547  50.017  1.00  0.00     0.270 C 
HETATM    2  C3  UNL     1      23.478   3.178  50.194  1.00  0.00     0.035 C 
HETATM    3  C4  UNL     1      24.764   2.791  50.429  1.00  0.00     0.039 C 
HETATM    4 CL1  UNL     1      26.322   3.150  49.607  1.00  0.00    -0.084 Cl
HETATM    5  C5  UNL     1      25.035   1.883  51.586  1.00  0.00    -0.027 C 
HETATM    6  C12 UNL     1      24.050   1.488  52.335  1.00  0.00     0.028 C 
HETATM    7  C13 UNL     1      22.920   1.097  53.108  1.00  0.00     0.113 C 
HETATM    8  N1  UNL     1      22.175   1.796  52.343  1.00  0.00    -0.270 NA
HETATM    9  C14 UNL     1      20.783   1.824  52.614  1.00  0.00     0.270 C 
HETATM   10  N2  UNL     1      20.416   3.052  52.591  1.00  0.00    -0.269 NA
HETATM   11  C15 UNL     1      21.405   4.052  52.321  1.00  0.00     0.415 C 
HETATM   12  N3  UNL     1      21.564   4.457  50.984  1.00  0.00     0.112 NA
HETATM   13  H18 UNL     1      20.698   4.903  50.612  1.00  0.00     0.319 HD
ENDROOT
BRANCH   5  14
HETATM   14  C6  UNL     1      26.458   1.454  51.812  1.00  0.00     0.046 A 
HETATM   15  C7  UNL     1      26.611  -0.001  51.908  1.00  0.00    -0.017 A 
HETATM   16  C8  UNL     1      27.096  -0.869  52.770  1.00  0.00    -0.004 A 
HETATM   17  C9  UNL     1      27.646  -0.258  53.969  1.00  0.00    -0.004 A 
HETATM   18  C10 UNL     1      27.547   1.057  53.938  1.00  0.00    -0.026 A 
HETATM   19  C11 UNL     1      27.037   2.114  53.031  1.00  0.00     0.040 A 
ENDBRANCH   5  14
BRANCH   1  20
HETATM   20  C1  UNL     1      21.952   4.246  48.630  1.00  0.00     0.203 C 
BRANCH  20  21
HETATM   21  O1  UNL     1      21.195   5.402  48.753  1.00  0.00    -0.398 OA
HETATM   22  H1  UNL     1      20.761   5.365  49.649  1.00  0.00     0.209 HD
ENDBRANCH  20  21
ENDBRANCH   1  20
TORSDOF 3
ENDMDL
MODEL 6
REMARK VINA RESULT:      -6.9      2.806      5.938
REMARK  3 active torsions:
REMARK  status: ('A' for Active; 'I' for Inactive)
REMARK    1  A    between atoms: O1_1  and  C1_2 
REMARK    2  A    between atoms: C1_2  and  C2_3 
REMARK    3  A    between atoms: C5_7  and  C6_8 
ROOT
HETATM    1  C2  UNL     1      26.318  -0.281  52.621  1.00  0.00     0.270 C 
HETATM    2  C3  UNL     1      24.851  -0.300  52.904  1.00  0.00     0.035 C 
HETATM    3  C4  UNL     1      23.505  -0.239  53.116  1.00  0.00     0.039 C 
HETATM    4 CL1  UNL     1      22.352  -1.301  53.994  1.00  0.00    -0.084 Cl
HETATM    5  C5  UNL     1      22.745   0.913  52.540  1.00  0.00    -0.027 C 
HETATM    6  C12 UNL     1      23.377   1.822  51.859  1.00  0.00     0.028 C 
HETATM    7  C13 UNL     1      24.138   2.775  51.125  1.00  0.00     0.113 C 
HETATM    8  N1  UNL     1      25.191   2.092  51.359  1.00  0.00    -0.270 NA
HETATM    9  C14 UNL     1      26.421   2.565  50.837  1.00  0.00     0.270 C 
HETATM   10  N2  UNL     1      27.278   2.530  51.791  1.00  0.00    -0.269 NA
HETATM   11  C15 UNL     1      26.847   2.060  53.073  1.00  0.00     0.415 C 
HETATM   12  N3  UNL     1      27.027   0.694  53.354  1.00  0.00     0.112 NA
HETATM   13  H18 UNL     1      28.035   0.431  53.354  1.00  0.00     0.319 HD
ENDROOT
BRANCH   5  14
HETATM   14  C6  UNL     1      21.261   0.948  52.770  1.00  0.00     0.046 A 
HETATM   15  C7  UNL     1      20.498   0.309  51.693  1.00  0.00    -0.017 A 
HETATM   16  C8  UNL     1      19.530   0.638  50.864  1.00  0.00    -0.004 A 
HETATM   17  C9  UNL     1      19.055   2.002  51.031  1.00  0.00    -0.004 A 
HETATM   18  C10 UNL     1      19.699   2.629  51.996  1.00  0.00    -0.026 A 
HETATM   19  C11 UNL     1      20.776   2.355  52.978  1.00  0.00     0.040 A 
ENDBRANCH   5  14
BRANCH   1  20
HETATM   20  C1  UNL     1      26.851  -1.676  53.058  1.00  0.00     0.203 C 
BRANCH  20  21
HETATM   21  O1  UNL     1      28.178  -1.554  53.443  1.00  0.00    -0.398 OA
HETATM   22  H1  UNL     1      28.592  -2.453  53.325  1.00  0.00     0.209 HD
ENDBRANCH  20  21
ENDBRANCH   1  20
TORSDOF 3
ENDMDL
MODEL 7
REMARK VINA RESULT:      -6.9      2.852      5.564
REMARK  3 active torsions:
REMARK  status: ('A' for Active; 'I' for Inactive)
REMARK    1  A    between atoms: O1_1  and  C1_2 
REMARK    2  A    between atoms: C1_2  and  C2_3 
REMARK    3  A    between atoms: C5_7  and  C6_8 
ROOT
HETATM    1  C2  UNL     1      23.938  -0.827  54.031  1.00  0.00     0.270 C 
HETATM    2  C3  UNL     1      23.355   0.379  53.370  1.00  0.00     0.035 C 
HETATM    3  C4  UNL     1      22.904   1.493  52.725  1.00  0.00     0.039 C 
HETATM    4 CL1  UNL     1      21.330   2.360  52.728  1.00  0.00    -0.084 Cl
HETATM    5  C5  UNL     1      23.839   2.210  51.805  1.00  0.00    -0.027 C 
HETATM    6  C12 UNL     1      25.049   1.763  51.643  1.00  0.00     0.028 C 
HETATM    7  C13 UNL     1      26.356   1.212  51.517  1.00  0.00     0.113 C 
HETATM    8  N1  UNL     1      26.030   0.293  52.341  1.00  0.00    -0.270 NA
HETATM    9  C14 UNL     1      27.006  -0.682  52.668  1.00  0.00     0.270 C 
HETATM   10  N2  UNL     1      27.020  -0.792  53.946  1.00  0.00    -0.269 NA
HETATM   11  C15 UNL     1      26.125   0.026  54.707  1.00  0.00     0.415 C 
HETATM   12  N3  UNL     1      24.875  -0.525  55.042  1.00  0.00     0.112 NA
HETATM   13  H18 UNL     1      24.976  -1.364  55.653  1.00  0.00     0.319 HD
ENDROOT
BRANCH   5  14
HETATM   14  C6  UNL     1      23.313   3.423  51.089  1.00  0.00     0.046 A 
HETATM   15  C7  UNL     1      23.692   3.464  49.673  1.00  0.00    -0.017 A 
HETATM   16  C8  UNL     1      24.313   4.291  48.860  1.00  0.00    -0.004 A 
HETATM   17  C9  UNL     1      24.761   5.516  49.502  1.00  0.00    -0.004 A 
HETATM   18  C10 UNL     1      24.440   5.544  50.780  1.00  0.00    -0.026 A 
HETATM   19  C11 UNL     1      23.747   4.688  51.774  1.00  0.00     0.040 A 
ENDBRANCH   5  14
BRANCH   1  20
HETATM   20  C1  UNL     1      22.741  -1.560  54.704  1.00  0.00     0.203 C 
BRANCH  20  21
HETATM   21  O1  UNL     1      23.114  -1.962  55.978  1.00  0.00    -0.398 OA
HETATM   22  H1  UNL     1      22.760  -1.276  56.608  1.00  0.00     0.209 HD
ENDBRANCH  20  21
ENDBRANCH   1  20
TORSDOF 3
ENDMDL
MODEL 8
REMARK VINA RESULT:      -6.9      2.985      4.574
REMARK  3 active torsions:
REMARK  status: ('A' for Active; 'I' for Inactive)
REMARK    1  A    between atoms: O1_1  and  C1_2 
REMARK    2  A    between atoms: C1_2  and  C2_3 
REMARK    3  A    between atoms: C5_7  and  C6_8 
ROOT
HETATM    1  C2  UNL     1      24.416   4.889  51.167  1.00  0.00     0.270 C 
HETATM    2  C3  UNL     1      23.252   4.049  51.580  1.00  0.00     0.035 C 
HETATM    3  C4  UNL     1      22.247   3.212  51.967  1.00  0.00     0.039 C 
HETATM    4 CL1  UNL     1      20.476   3.436  52.177  1.00  0.00    -0.084 Cl
HETATM    5  C5  UNL     1      22.590   1.797  52.308  1.00  0.00    -0.027 C 
HETATM    6  C12 UNL     1      23.825   1.399  52.227  1.00  0.00     0.028 C 
HETATM    7  C13 UNL     1      25.198   1.039  52.115  1.00  0.00     0.113 C 
HETATM    8  N1  UNL     1      25.463   2.230  51.739  1.00  0.00    -0.270 NA
HETATM    9  C14 UNL     1      26.812   2.549  51.442  1.00  0.00     0.270 C 
HETATM   10  N2  UNL     1      26.819   3.155  50.312  1.00  0.00    -0.269 NA
HETATM   11  C15 UNL     1      25.569   3.364  49.646  1.00  0.00     0.415 C 
HETATM   12  N3  UNL     1      24.909   4.583  49.880  1.00  0.00     0.112 NA
HETATM   13  H18 UNL     1      25.471   5.395  49.546  1.00  0.00     0.319 HD
ENDROOT
BRANCH   5  14
HETATM   14  C6  UNL     1      21.470   0.900  52.752  1.00  0.00     0.046 A 
HETATM   15  C7  UNL     1      21.464   0.660  54.199  1.00  0.00    -0.017 A 
HETATM   16  C8  UNL     1      21.493  -0.376  55.009  1.00  0.00    -0.004 A 
HETATM   17  C9  UNL     1      21.539  -1.656  54.321  1.00  0.00    -0.004 A 
HETATM   18  C10 UNL     1      21.536  -1.507  53.011  1.00  0.00    -0.026 A 
HETATM   19  C11 UNL     1      21.497  -0.409  52.015  1.00  0.00     0.040 A 
ENDBRANCH   5  14
BRANCH   1  20
HETATM   20  C1  UNL     1      23.890   6.353  51.132  1.00  0.00     0.203 C 
BRANCH  20  21
HETATM   21  O1  UNL     1      24.418   7.050  52.209  1.00  0.00    -0.398 OA
HETATM   22  H1  UNL     1      24.772   6.368  52.844  1.00  0.00     0.209 HD
ENDBRANCH  20  21
ENDBRANCH   1  20
TORSDOF 3
ENDMDL
MODEL 9
REMARK VINA RESULT:      -6.8      1.910      2.182
REMARK  3 active torsions:
REMARK  status: ('A' for Active; 'I' for Inactive)
REMARK    1  A    between atoms: O1_1  and  C1_2 
REMARK    2  A    between atoms: C1_2  and  C2_3 
REMARK    3  A    between atoms: C5_7  and  C6_8 
ROOT
HETATM    1  C2  UNL     1      20.650   1.558  50.079  1.00  0.00     0.270 C 
HETATM    2  C3  UNL     1      21.600   1.038  51.108  1.00  0.00     0.035 C 
HETATM    3  C4  UNL     1      22.530   0.621  52.013  1.00  0.00     0.039 C 
HETATM    4 CL1  UNL     1      22.497  -0.598  53.334  1.00  0.00    -0.084 Cl
HETATM    5  C5  UNL     1      23.888   1.247  51.979  1.00  0.00    -0.027 C 
HETATM    6  C12 UNL     1      24.150   2.163  51.096  1.00  0.00     0.028 C 
HETATM    7  C13 UNL     1      24.359   3.160  50.101  1.00  0.00     0.113 C 
HETATM    8  N1  UNL     1      23.158   2.992  49.703  1.00  0.00    -0.270 NA
HETATM    9  C14 UNL     1      22.702   3.781  48.616  1.00  0.00     0.270 C 
HETATM   10  N2  UNL     1      22.132   2.988  47.784  1.00  0.00    -0.269 NA
HETATM   11  C15 UNL     1      22.082   1.593  48.101  1.00  0.00     0.415 C 
HETATM   12  N3  UNL     1      20.937   1.123  48.768  1.00  0.00     0.112 NA
HETATM   13  H18 UNL     1      20.078   1.245  48.189  1.00  0.00     0.319 HD
ENDROOT
BRANCH   5  14
HETATM   14  C6  UNL     1      24.890   0.785  53.000  1.00  0.00     0.046 A 
HETATM   15  C7  UNL     1      25.687   1.882  53.559  1.00  0.00    -0.017 A 
HETATM   16  C8  UNL     1      26.960   2.189  53.681  1.00  0.00    -0.004 A 
HETATM   17  C9  UNL     1      27.859   1.192  53.123  1.00  0.00    -0.004 A 
HETATM   18  C10 UNL     1      27.200   0.171  52.611  1.00  0.00    -0.026 A 
HETATM   19  C11 UNL     1      25.795  -0.271  52.434  1.00  0.00     0.040 A 
ENDBRANCH   5  14
BRANCH   1  20
HETATM   20  C1  UNL     1      19.254   0.989  50.467  1.00  0.00     0.203 C 
BRANCH  20  21
HETATM   21  O1  UNL     1      18.430   1.011  49.352  1.00  0.00    -0.398 OA
HETATM   22  H1  UNL     1      18.328   1.967  49.091  1.00  0.00     0.209 HD
ENDBRANCH  20  21
ENDBRANCH   1  20
TORSDOF 3
ENDMDL
