MODEL 1
REMARK VINA RESULT:      -8.6      0.000      0.000
REMARK  8 active torsions:
REMARK  status: ('A' for Active; 'I' for Inactive)
REMARK    1  A    between atoms: C1_2  and  N1_3 
REMARK    2  A    between atoms: C1_2  and  N3_12 
REMARK    3  A    between atoms: N1_3  and  C2_4 
REMARK    4  A    between atoms: C2_4  and  C3_5 
REMARK    5  A    between atoms: C3_5  and  N2_6 
REMARK    6  A    between atoms: N3_12  and  C8_13 
REMARK    7  A    between atoms: C12_19  and  N6_20 
REMARK    8  A    between atoms: N6_20  and  C13_21 
ROOT
HETATM    1  C8  UNL     1      26.742   6.053  48.685  1.00  0.00     0.131 C 
HETATM    2  C9  UNL     1      25.674   6.387  49.689  1.00  0.00     0.021 C 
HETATM    3  C10 UNL     1      25.081   7.099  50.675  1.00  0.00     0.116 C 
HETATM    4  N4  UNL     1      23.793   6.589  51.151  1.00  0.00    -0.254 NA
HETATM    5  C11 UNL     1      23.831   5.260  51.299  1.00  0.00     0.234 C 
HETATM    6  N5  UNL     1      24.505   4.062  51.228  1.00  0.00    -0.225 NA
HETATM    7  C12 UNL     1      25.501   3.602  50.634  1.00  0.00     0.129 C 
HETATM    8  C19 UNL     1      26.659   3.670  49.708  1.00  0.00     0.049 C 
HETATM    9  C20 UNL     1      27.165   4.621  48.933  1.00  0.00     0.006 C 
ENDROOT
BRANCH   1  10
HETATM   10  N3  UNL     1      27.909   6.879  48.899  1.00  0.00    -0.356 N 
HETATM   11  H14 UNL     1      28.771   6.354  49.228  1.00  0.00     0.162 HD
BRANCH  10  12
HETATM   12  C1  UNL     1      28.419   8.204  48.842  1.00  0.00     0.168 C 
HETATM   13  S1  UNL     1      27.768   8.698  47.421  1.00  0.00    -0.041 SA
BRANCH  12  14
HETATM   14  N1  UNL     1      29.248   9.011  49.694  1.00  0.00    -0.366 N 
HETATM   15  H1  UNL     1      28.733   9.240  50.567  1.00  0.00     0.161 HD
BRANCH  14  16
HETATM   16  C2  UNL     1      30.507   9.232  49.055  1.00  0.00     0.141 C 
BRANCH  16  17
HETATM   17  C3  UNL     1      31.549   8.200  49.401  1.00  0.00     0.136 C 
BRANCH  17  18
HETATM   18  N2  UNL     1      31.646   7.091  48.556  1.00  0.00    -0.407 N 
HETATM   19  C4  UNL     1      31.683   5.788  49.087  1.00  0.00     0.143 C 
HETATM   20  C5  UNL     1      32.420   4.793  48.215  1.00  0.00     0.187 C 
HETATM   21  O1  UNL     1      32.058   4.878  46.888  1.00  0.00    -0.388 OA
HETATM   22  C6  UNL     1      32.365   6.137  46.419  1.00  0.00     0.187 C 
HETATM   23  C7  UNL     1      31.644   7.242  47.161  1.00  0.00     0.143 C 
ENDBRANCH  17  18
ENDBRANCH  16  17
ENDBRANCH  14  16
ENDBRANCH  12  14
ENDBRANCH  10  12
ENDBRANCH   1  10
BRANCH   7  24
HETATM   24  N6  UNL     1      25.415   2.256  51.197  1.00  0.00    -0.341 N 
HETATM   25  H19 UNL     1      24.574   1.581  51.208  1.00  0.00     0.167 HD
BRANCH  24  26
HETATM   26  C13 UNL     1      26.377   1.430  51.903  1.00  0.00     0.035 A 
HETATM   27  C14 UNL     1      27.334   2.150  52.558  1.00  0.00     0.031 A 
HETATM   28  C15 UNL     1      28.329   1.476  53.275  1.00  0.00     0.028 A 
HETATM   29  C16 UNL     1      28.329   0.092  53.308  1.00  0.00     0.055 A 
HETATM   30 CL1  UNL     1      29.549  -0.784  54.188  1.00  0.00    -0.083 Cl
HETATM   31  C17 UNL     1      27.346  -0.615  52.635  1.00  0.00     0.058 A 
HETATM   32 CL2  UNL     1      27.304  -2.367  52.647  1.00  0.00    -0.082 Cl
HETATM   33  C18 UNL     1      26.350   0.041  51.919  1.00  0.00     0.055 A 
ENDBRANCH  24  26
ENDBRANCH   7  24
TORSDOF 8
ENDMDL
MODEL 2
REMARK VINA RESULT:      -8.5      1.303      1.713
REMARK  8 active torsions:
REMARK  status: ('A' for Active; 'I' for Inactive)
REMARK    1  A    between atoms: C1_2  and  N1_3 
REMARK    2  A    between atoms: C1_2  and  N3_12 
REMARK    3  A    between atoms: N1_3  and  C2_4 
REMARK    4  A    between atoms: C2_4  and  C3_5 
REMARK    5  A    between atoms: C3_5  and  N2_6 
REMARK    6  A    between atoms: N3_12  and  C8_13 
REMARK    7  A    between atoms: C12_19  and  N6_20 
REMARK    8  A    between atoms: N6_20  and  C13_21 
ROOT
HETATM    1  C8  UNL     1      26.272   5.629  48.957  1.00  0.00     0.131 C 
HETATM    2  C9  UNL     1      25.191   5.932  49.957  1.00  0.00     0.021 C 
HETATM    3  C10 UNL     1      24.550   6.651  50.908  1.00  0.00     0.116 C 
HETATM    4  N4  UNL     1      23.317   6.062  51.437  1.00  0.00    -0.254 NA
HETATM    5  C11 UNL     1      23.473   4.753  51.666  1.00  0.00     0.234 C 
HETATM    6  N5  UNL     1      24.248   3.616  51.657  1.00  0.00    -0.225 NA
HETATM    7  C12 UNL     1      25.274   3.207  51.075  1.00  0.00     0.129 C 
HETATM    8  C19 UNL     1      26.410   3.317  50.127  1.00  0.00     0.049 C 
HETATM    9  C20 UNL     1      26.821   4.258  49.286  1.00  0.00     0.006 C 
ENDROOT
BRANCH   1  10
HETATM   10  N3  UNL     1      27.365   6.565  49.099  1.00  0.00    -0.356 N 
HETATM   11  H14 UNL     1      27.370   7.107  50.013  1.00  0.00     0.162 HD
BRANCH  10  12
HETATM   12  C1  UNL     1      28.525   7.096  48.476  1.00  0.00     0.168 C 
HETATM   13  S1  UNL     1      27.850   7.762  47.139  1.00  0.00    -0.041 SA
BRANCH  12  14
HETATM   14  N1  UNL     1      29.925   7.133  48.798  1.00  0.00    -0.366 N 
HETATM   15  H1  UNL     1      30.176   8.075  49.159  1.00  0.00     0.161 HD
BRANCH  14  16
HETATM   16  C2  UNL     1      30.510   5.861  48.512  1.00  0.00     0.141 C 
BRANCH  16  17
HETATM   17  C3  UNL     1      32.011   5.846  48.634  1.00  0.00     0.136 C 
BRANCH  17  18
HETATM   18  N2  UNL     1      32.697   4.875  47.900  1.00  0.00    -0.407 N 
HETATM   19  C4  UNL     1      32.015   4.064  46.974  1.00  0.00     0.143 C 
HETATM   20  C5  UNL     1      32.655   2.707  46.762  1.00  0.00     0.187 C 
HETATM   21  O1  UNL     1      34.020   2.784  46.584  1.00  0.00    -0.388 OA
HETATM   22  C6  UNL     1      34.589   3.331  47.714  1.00  0.00     0.187 C 
HETATM   23  C7  UNL     1      34.088   4.727  48.018  1.00  0.00     0.143 C 
ENDBRANCH  17  18
ENDBRANCH  16  17
ENDBRANCH  14  16
ENDBRANCH  12  14
ENDBRANCH  10  12
ENDBRANCH   1  10
BRANCH   7  24
HETATM   24  N6  UNL     1      25.313   1.898  51.722  1.00  0.00    -0.341 N 
HETATM   25  H19 UNL     1      24.495   1.234  51.953  1.00  0.00     0.167 HD
BRANCH  24  26
HETATM   26  C13 UNL     1      26.405   1.103  52.253  1.00  0.00     0.035 A 
HETATM   27  C14 UNL     1      27.406   1.853  52.799  1.00  0.00     0.031 A 
HETATM   28  C15 UNL     1      28.525   1.212  53.343  1.00  0.00     0.028 A 
HETATM   29  C16 UNL     1      28.600  -0.170  53.318  1.00  0.00     0.055 A 
HETATM   30 CL1  UNL     1      29.975  -1.006  53.983  1.00  0.00    -0.083 Cl
HETATM   31  C17 UNL     1      27.570  -0.908  52.759  1.00  0.00     0.058 A 
HETATM   32 CL2  UNL     1      27.619  -2.659  52.703  1.00  0.00    -0.082 Cl
HETATM   33  C18 UNL     1      26.452  -0.285  52.215  1.00  0.00     0.055 A 
ENDBRANCH  24  26
ENDBRANCH   7  24
TORSDOF 8
ENDMDL
MODEL 3
REMARK VINA RESULT:      -8.5      1.795      2.418
REMARK  8 active torsions:
REMARK  status: ('A' for Active; 'I' for Inactive)
REMARK    1  A    between atoms: C1_2  and  N1_3 
REMARK    2  A    between atoms: C1_2  and  N3_12 
REMARK    3  A    between atoms: N1_3  and  C2_4 
REMARK    4  A    between atoms: C2_4  and  C3_5 
REMARK    5  A    between atoms: C3_5  and  N2_6 
REMARK    6  A    between atoms: N3_12  and  C8_13 
REMARK    7  A    between atoms: C12_19  and  N6_20 
REMARK    8  A    between atoms: N6_20  and  C13_21 
ROOT
HETATM    1  C8  UNL     1      27.629   6.811  48.399  1.00  0.00     0.131 C 
HETATM    2  C9  UNL     1      26.439   7.171  49.246  1.00  0.00     0.021 C 
HETATM    3  C10 UNL     1      25.755   7.847  50.198  1.00  0.00     0.116 C 
HETATM    4  N4  UNL     1      24.358   7.451  50.390  1.00  0.00    -0.254 NA
HETATM    5  C11 UNL     1      24.234   6.119  50.383  1.00  0.00     0.234 C 
HETATM    6  N5  UNL     1      24.784   4.862  50.282  1.00  0.00    -0.225 NA
HETATM    7  C12 UNL     1      25.817   4.346  49.810  1.00  0.00     0.129 C 
HETATM    8  C19 UNL     1      27.122   4.366  49.104  1.00  0.00     0.049 C 
HETATM    9  C20 UNL     1      27.852   5.321  48.542  1.00  0.00     0.006 C 
ENDROOT
BRANCH   1  10
HETATM   10  N3  UNL     1      28.817   7.465  48.901  1.00  0.00    -0.356 N 
HETATM   11  H14 UNL     1      28.641   8.187  49.658  1.00  0.00     0.162 HD
BRANCH  10  12
HETATM   12  C1  UNL     1      30.231   7.542  48.792  1.00  0.00     0.168 C 
HETATM   13  S1  UNL     1      30.380   7.800  47.181  1.00  0.00    -0.041 SA
BRANCH  12  14
HETATM   14  N1  UNL     1      31.327   7.454  49.718  1.00  0.00    -0.366 N 
HETATM   15  H1  UNL     1      31.464   8.372  50.185  1.00  0.00     0.161 HD
BRANCH  14  16
HETATM   16  C2  UNL     1      31.868   6.131  49.686  1.00  0.00     0.141 C 
BRANCH  16  17
HETATM   17  C3  UNL     1      33.226   6.050  49.040  1.00  0.00     0.136 C 
BRANCH  17  18
HETATM   18  N2  UNL     1      33.429   5.018  48.120  1.00  0.00    -0.407 N 
HETATM   19  C4  UNL     1      32.367   4.176  47.743  1.00  0.00     0.143 C 
HETATM   20  C5  UNL     1      32.806   2.791  47.315  1.00  0.00     0.187 C 
HETATM   21  O1  UNL     1      33.875   2.817  46.444  1.00  0.00    -0.388 OA
HETATM   22  C6  UNL     1      34.949   3.411  47.069  1.00  0.00     0.187 C 
HETATM   23  C7  UNL     1      34.676   4.837  47.500  1.00  0.00     0.143 C 
ENDBRANCH  17  18
ENDBRANCH  16  17
ENDBRANCH  14  16
ENDBRANCH  12  14
ENDBRANCH  10  12
ENDBRANCH   1  10
BRANCH   7  24
HETATM   24  N6  UNL     1      25.496   2.972  50.188  1.00  0.00    -0.341 N 
HETATM   25  H19 UNL     1      24.983   2.216  49.613  1.00  0.00     0.167 HD
BRANCH  24  26
HETATM   26  C13 UNL     1      25.737   2.210  51.399  1.00  0.00     0.035 A 
HETATM   27  C14 UNL     1      24.618   1.598  51.886  1.00  0.00     0.031 A 
HETATM   28  C15 UNL     1      24.708   0.834  53.055  1.00  0.00     0.028 A 
HETATM   29  C16 UNL     1      25.927   0.711  53.700  1.00  0.00     0.055 A 
HETATM   30 CL1  UNL     1      26.081  -0.229  55.156  1.00  0.00    -0.083 Cl
HETATM   31  C17 UNL     1      27.047   1.342  53.184  1.00  0.00     0.058 A 
HETATM   32 CL2  UNL     1      28.612   1.217  53.964  1.00  0.00    -0.082 Cl
HETATM   33  C18 UNL     1      26.974   2.104  52.023  1.00  0.00     0.055 A 
ENDBRANCH  24  26
ENDBRANCH   7  24
TORSDOF 8
ENDMDL
MODEL 4
REMARK VINA RESULT:      -8.4      1.316      1.936
REMARK  8 active torsions:
REMARK  status: ('A' for Active; 'I' for Inactive)
REMARK    1  A    between atoms: C1_2  and  N1_3 
REMARK    2  A    between atoms: C1_2  and  N3_12 
REMARK    3  A    between atoms: N1_3  and  C2_4 
REMARK    4  A    between atoms: C2_4  and  C3_5 
REMARK    5  A    between atoms: C3_5  and  N2_6 
REMARK    6  A    between atoms: N3_12  and  C8_13 
REMARK    7  A    between atoms: C12_19  and  N6_20 
REMARK    8  A    between atoms: N6_20  and  C13_21 
ROOT
HETATM    1  C8  UNL     1      25.936   6.074  49.365  1.00  0.00     0.131 C 
HETATM    2  C9  UNL     1      24.780   6.041  50.327  1.00  0.00     0.021 C 
HETATM    3  C10 UNL     1      23.998   6.483  51.339  1.00  0.00     0.116 C 
HETATM    4  N4  UNL     1      22.848   5.642  51.678  1.00  0.00    -0.254 NA
HETATM    5  C11 UNL     1      23.191   4.349  51.695  1.00  0.00     0.234 C 
HETATM    6  N5  UNL     1      24.128   3.353  51.548  1.00  0.00    -0.225 NA
HETATM    7  C12 UNL     1      25.227   3.202  50.977  1.00  0.00     0.129 C 
HETATM    8  C19 UNL     1      26.372   3.636  50.139  1.00  0.00     0.049 C 
HETATM    9  C20 UNL     1      26.672   4.758  49.497  1.00  0.00     0.006 C 
ENDROOT
BRANCH   1  10
HETATM   10  N3  UNL     1      26.867   7.116  49.734  1.00  0.00    -0.356 N 
HETATM   11  H14 UNL     1      27.657   6.801  50.370  1.00  0.00     0.162 HD
BRANCH  10  12
HETATM   12  C1  UNL     1      27.188   8.491  49.583  1.00  0.00     0.168 C 
HETATM   13  S1  UNL     1      26.015   8.944  48.532  1.00  0.00    -0.041 SA
BRANCH  12  14
HETATM   14  N1  UNL     1      28.191   9.365  50.126  1.00  0.00    -0.366 N 
HETATM   15  H1  UNL     1      28.043   9.476  51.148  1.00  0.00     0.161 HD
BRANCH  14  16
HETATM   16  C2  UNL     1      29.061   9.796  49.076  1.00  0.00     0.141 C 
BRANCH  16  17
HETATM   17  C3  UNL     1      30.495   9.376  49.271  1.00  0.00     0.136 C 
BRANCH  17  18
HETATM   18  N2  UNL     1      30.806   8.041  49.001  1.00  0.00    -0.407 N 
HETATM   19  C4  UNL     1      30.103   7.328  48.012  1.00  0.00     0.143 C 
HETATM   20  C5  UNL     1      30.050   5.834  48.256  1.00  0.00     0.187 C 
HETATM   21  O1  UNL     1      31.276   5.307  48.603  1.00  0.00    -0.388 OA
HETATM   22  C6  UNL     1      31.704   5.897  49.772  1.00  0.00     0.187 C 
HETATM   23  C7  UNL     1      31.867   7.398  49.659  1.00  0.00     0.143 C 
ENDBRANCH  17  18
ENDBRANCH  16  17
ENDBRANCH  14  16
ENDBRANCH  12  14
ENDBRANCH  10  12
ENDBRANCH   1  10
BRANCH   7  24
HETATM   24  N6  UNL     1      25.437   1.818  51.397  1.00  0.00    -0.341 N 
HETATM   25  H19 UNL     1      24.792   0.965  51.258  1.00  0.00     0.167 HD
BRANCH  24  26
HETATM   26  C13 UNL     1      26.519   1.169  52.114  1.00  0.00     0.035 A 
HETATM   27  C14 UNL     1      26.539  -0.186  51.954  1.00  0.00     0.031 A 
HETATM   28  C15 UNL     1      27.529  -0.939  52.597  1.00  0.00     0.028 A 
HETATM   29  C16 UNL     1      28.470  -0.299  53.385  1.00  0.00     0.055 A 
HETATM   30 CL1  UNL     1      29.716  -1.198  54.202  1.00  0.00    -0.083 Cl
HETATM   31  C17 UNL     1      28.427   1.078  53.530  1.00  0.00     0.058 A 
HETATM   32 CL2  UNL     1      29.596   1.933  54.517  1.00  0.00    -0.082 Cl
HETATM   33  C18 UNL     1      27.451   1.839  52.897  1.00  0.00     0.055 A 
ENDBRANCH  24  26
ENDBRANCH   7  24
TORSDOF 8
ENDMDL
MODEL 5
REMARK VINA RESULT:      -8.0      3.177      4.440
REMARK  8 active torsions:
REMARK  status: ('A' for Active; 'I' for Inactive)
REMARK    1  A    between atoms: C1_2  and  N1_3 
REMARK    2  A    between atoms: C1_2  and  N3_12 
REMARK    3  A    between atoms: N1_3  and  C2_4 
REMARK    4  A    between atoms: C2_4  and  C3_5 
REMARK    5  A    between atoms: C3_5  and  N2_6 
REMARK    6  A    between atoms: N3_12  and  C8_13 
REMARK    7  A    between atoms: C12_19  and  N6_20 
REMARK    8  A    between atoms: N6_20  and  C13_21 
ROOT
HETATM    1  C8  UNL     1      28.105   6.868  48.286  1.00  0.00     0.131 C 
HETATM    2  C9  UNL     1      26.999   7.405  49.151  1.00  0.00     0.021 C 
HETATM    3  C10 UNL     1      26.446   8.169  50.122  1.00  0.00     0.116 C 
HETATM    4  N4  UNL     1      25.005   8.007  50.324  1.00  0.00    -0.254 NA
HETATM    5  C11 UNL     1      24.660   6.714  50.297  1.00  0.00     0.234 C 
HETATM    6  N5  UNL     1      24.992   5.385  50.169  1.00  0.00    -0.225 NA
HETATM    7  C12 UNL     1      25.922   4.714  49.678  1.00  0.00     0.129 C 
HETATM    8  C19 UNL     1      27.205   4.529  48.957  1.00  0.00     0.049 C 
HETATM    9  C20 UNL     1      28.079   5.359  48.402  1.00  0.00     0.006 C 
ENDROOT
BRANCH   1  10
HETATM   10  N3  UNL     1      29.390   7.306  48.783  1.00  0.00    -0.356 N 
HETATM   11  H14 UNL     1      30.136   6.551  48.813  1.00  0.00     0.162 HD
BRANCH  10  12
HETATM   12  C1  UNL     1      30.123   8.415  49.283  1.00  0.00     0.168 C 
HETATM   13  S1  UNL     1      31.653   7.862  49.077  1.00  0.00    -0.041 SA
BRANCH  12  14
HETATM   14  N1  UNL     1      29.778   9.701  49.823  1.00  0.00    -0.366 N 
HETATM   15  H1  UNL     1      29.412   9.587  50.789  1.00  0.00     0.161 HD
BRANCH  14  16
HETATM   16  C2  UNL     1      30.051  10.711  48.850  1.00  0.00     0.141 C 
BRANCH  16  17
HETATM   17  C3  UNL     1      28.976  10.846  47.803  1.00  0.00     0.136 C 
BRANCH  17  18
HETATM   18  N2  UNL     1      27.887  11.664  48.113  1.00  0.00    -0.407 N 
HETATM   19  C4  UNL     1      26.572  11.174  48.010  1.00  0.00     0.143 C 
HETATM   20  C5  UNL     1      25.541  12.246  47.725  1.00  0.00     0.187 C 
HETATM   21  O1  UNL     1      25.694  13.358  48.525  1.00  0.00    -0.388 OA
HETATM   22  C6  UNL     1      26.934  13.912  48.291  1.00  0.00     0.187 C 
HETATM   23  C7  UNL     1      28.077  12.968  48.597  1.00  0.00     0.143 C 
ENDBRANCH  17  18
ENDBRANCH  16  17
ENDBRANCH  14  16
ENDBRANCH  12  14
ENDBRANCH  10  12
ENDBRANCH   1  10
BRANCH   7  24
HETATM   24  N6  UNL     1      25.380   3.405  50.037  1.00  0.00    -0.341 N 
HETATM   25  H19 UNL     1      24.652   2.808  49.510  1.00  0.00     0.167 HD
BRANCH  24  26
HETATM   26  C13 UNL     1      25.618   2.526  51.167  1.00  0.00     0.035 A 
HETATM   27  C14 UNL     1      24.472   2.023  51.713  1.00  0.00     0.031 A 
HETATM   28  C15 UNL     1      24.557   1.164  52.815  1.00  0.00     0.028 A 
HETATM   29  C16 UNL     1      25.798   0.839  53.334  1.00  0.00     0.055 A 
HETATM   30 CL1  UNL     1      25.947  -0.224  54.704  1.00  0.00    -0.083 Cl
HETATM   31  C17 UNL     1      26.945   1.363  52.761  1.00  0.00     0.058 A 
HETATM   32 CL2  UNL     1      28.539   0.981  53.382  1.00  0.00    -0.082 Cl
HETATM   33  C18 UNL     1      26.877   2.216  51.665  1.00  0.00     0.055 A 
ENDBRANCH  24  26
ENDBRANCH   7  24
TORSDOF 8
ENDMDL
MODEL 6
REMARK VINA RESULT:      -7.9      2.936      3.722
REMARK  8 active torsions:
REMARK  status: ('A' for Active; 'I' for Inactive)
REMARK    1  A    between atoms: C1_2  and  N1_3 
REMARK    2  A    between atoms: C1_2  and  N3_12 
REMARK    3  A    between atoms: N1_3  and  C2_4 
REMARK    4  A    between atoms: C2_4  and  C3_5 
REMARK    5  A    between atoms: C3_5  and  N2_6 
REMARK    6  A    between atoms: N3_12  and  C8_13 
REMARK    7  A    between atoms: C12_19  and  N6_20 
REMARK    8  A    between atoms: N6_20  and  C13_21 
ROOT
HETATM    1  C8  UNL     1      27.056   5.785  48.627  1.00  0.00     0.131 C 
HETATM    2  C9  UNL     1      26.036   6.396  49.547  1.00  0.00     0.021 C 
HETATM    3  C10 UNL     1      25.562   7.272  50.463  1.00  0.00     0.116 C 
HETATM    4  N4  UNL     1      24.171   7.078  50.878  1.00  0.00    -0.254 NA
HETATM    5  C11 UNL     1      23.909   5.782  51.083  1.00  0.00     0.234 C 
HETATM    6  N5  UNL     1      24.307   4.465  51.105  1.00  0.00    -0.225 NA
HETATM    7  C12 UNL     1      25.208   3.769  50.595  1.00  0.00     0.129 C 
HETATM    8  C19 UNL     1      26.400   3.536  49.742  1.00  0.00     0.049 C 
HETATM    9  C20 UNL     1      27.142   4.311  48.961  1.00  0.00     0.006 C 
ENDROOT
BRANCH   1  10
HETATM   10  N3  UNL     1      28.363   6.350  48.880  1.00  0.00    -0.356 N 
HETATM   11  H14 UNL     1      28.978   5.776  49.527  1.00  0.00     0.162 HD
BRANCH  10  12
HETATM   12  C1  UNL     1      29.231   7.437  48.594  1.00  0.00     0.168 C 
HETATM   13  S1  UNL     1      28.653   7.885  47.126  1.00  0.00    -0.041 SA
BRANCH  12  14
HETATM   14  N1  UNL     1      30.318   8.077  49.282  1.00  0.00    -0.366 N 
HETATM   15  H1  UNL     1      30.047   9.046  49.540  1.00  0.00     0.161 HD
BRANCH  14  16
HETATM   16  C2  UNL     1      31.416   7.167  49.381  1.00  0.00     0.141 C 
BRANCH  16  17
HETATM   17  C3  UNL     1      31.861   6.612  48.053  1.00  0.00     0.136 C 
BRANCH  17  18
HETATM   18  N2  UNL     1      32.651   5.459  48.081  1.00  0.00    -0.407 N 
HETATM   19  C4  UNL     1      33.954   5.498  48.610  1.00  0.00     0.143 C 
HETATM   20  C5  UNL     1      34.887   4.464  48.014  1.00  0.00     0.187 C 
HETATM   21  O1  UNL     1      34.317   3.211  47.943  1.00  0.00    -0.388 OA
HETATM   22  C6  UNL     1      33.203   3.269  47.134  1.00  0.00     0.187 C 
HETATM   23  C7  UNL     1      32.145   4.225  47.644  1.00  0.00     0.143 C 
ENDBRANCH  17  18
ENDBRANCH  16  17
ENDBRANCH  14  16
ENDBRANCH  12  14
ENDBRANCH  10  12
ENDBRANCH   1  10
BRANCH   7  24
HETATM   24  N6  UNL     1      24.801   2.507  51.207  1.00  0.00    -0.341 N 
HETATM   25  H19 UNL     1      25.419   1.742  51.651  1.00  0.00     0.167 HD
BRANCH  24  26
HETATM   26  C13 UNL     1      23.502   1.888  51.400  1.00  0.00     0.035 A 
HETATM   27  C14 UNL     1      22.809   1.710  50.237  1.00  0.00     0.031 A 
HETATM   28  C15 UNL     1      21.537   1.129  50.280  1.00  0.00     0.028 A 
HETATM   29  C16 UNL     1      21.001   0.744  51.498  1.00  0.00     0.055 A 
HETATM   30 CL1  UNL     1      19.423   0.018  51.594  1.00  0.00    -0.083 Cl
HETATM   31  C17 UNL     1      21.727   0.936  52.662  1.00  0.00     0.058 A 
HETATM   32 CL2  UNL     1      21.091   0.467  54.227  1.00  0.00    -0.082 Cl
HETATM   33  C18 UNL     1      22.992   1.512  52.636  1.00  0.00     0.055 A 
ENDBRANCH  24  26
ENDBRANCH   7  24
TORSDOF 8
ENDMDL
MODEL 7
REMARK VINA RESULT:      -7.8      5.486      7.472
REMARK  8 active torsions:
REMARK  status: ('A' for Active; 'I' for Inactive)
REMARK    1  A    between atoms: C1_2  and  N1_3 
REMARK    2  A    between atoms: C1_2  and  N3_12 
REMARK    3  A    between atoms: N1_3  and  C2_4 
REMARK    4  A    between atoms: C2_4  and  C3_5 
REMARK    5  A    between atoms: C3_5  and  N2_6 
REMARK    6  A    between atoms: N3_12  and  C8_13 
REMARK    7  A    between atoms: C12_19  and  N6_20 
REMARK    8  A    between atoms: N6_20  and  C13_21 
ROOT
HETATM    1  C8  UNL     1      20.925   0.923  49.460  1.00  0.00     0.131 C 
HETATM    2  C9  UNL     1      20.391   0.625  50.834  1.00  0.00     0.021 C 
HETATM    3  C10 UNL     1      19.494   0.652  51.847  1.00  0.00     0.116 C 
HETATM    4  N4  UNL     1      19.891  -0.037  53.076  1.00  0.00    -0.254 NA
HETATM    5  C11 UNL     1      21.165   0.233  53.385  1.00  0.00     0.234 C 
HETATM    6  N5  UNL     1      22.358   0.865  53.118  1.00  0.00    -0.225 NA
HETATM    7  C12 UNL     1      22.933   1.363  52.128  1.00  0.00     0.129 C 
HETATM    8  C19 UNL     1      23.057   1.733  50.697  1.00  0.00     0.049 C 
HETATM    9  C20 UNL     1      22.282   1.571  49.632  1.00  0.00     0.006 C 
ENDROOT
BRANCH   1  10
HETATM   10  N3  UNL     1      20.080   1.887  48.791  1.00  0.00    -0.356 N 
HETATM   11  H14 UNL     1      19.716   1.577  47.843  1.00  0.00     0.162 HD
BRANCH  10  12
HETATM   12  C1  UNL     1      19.488   3.175  48.888  1.00  0.00     0.168 C 
HETATM   13  S1  UNL     1      19.774   3.735  47.375  1.00  0.00    -0.041 SA
BRANCH  12  14
HETATM   14  N1  UNL     1      18.800   3.901  49.920  1.00  0.00    -0.366 N 
HETATM   15  H1  UNL     1      17.906   3.423  50.147  1.00  0.00     0.161 HD
BRANCH  14  16
HETATM   16  C2  UNL     1      19.575   5.043  50.291  1.00  0.00     0.141 C 
BRANCH  16  17
HETATM   17  C3  UNL     1      20.835   4.699  51.042  1.00  0.00     0.136 C 
BRANCH  17  18
HETATM   18  N2  UNL     1      21.811   5.695  51.133  1.00  0.00    -0.407 N 
HETATM   19  C4  UNL     1      21.517   7.021  50.761  1.00  0.00     0.143 C 
HETATM   20  C5  UNL     1      22.723   7.803  50.283  1.00  0.00     0.187 C 
HETATM   21  O1  UNL     1      23.818   7.651  51.107  1.00  0.00    -0.388 OA
HETATM   22  C6  UNL     1      24.178   6.321  51.134  1.00  0.00     0.187 C 
HETATM   23  C7  UNL     1      23.083   5.416  51.657  1.00  0.00     0.143 C 
ENDBRANCH  17  18
ENDBRANCH  16  17
ENDBRANCH  14  16
ENDBRANCH  12  14
ENDBRANCH  10  12
ENDBRANCH   1  10
BRANCH   7  24
HETATM   24  N6  UNL     1      24.139   1.781  52.839  1.00  0.00    -0.341 N 
HETATM   25  H19 UNL     1      24.319   2.695  53.384  1.00  0.00     0.167 HD
BRANCH  24  26
HETATM   26  C13 UNL     1      25.432   1.148  53.026  1.00  0.00     0.035 A 
HETATM   27  C14 UNL     1      26.385   1.995  53.511  1.00  0.00     0.031 A 
HETATM   28  C15 UNL     1      27.681   1.514  53.733  1.00  0.00     0.028 A 
HETATM   29  C16 UNL     1      27.975   0.189  53.458  1.00  0.00     0.055 A 
HETATM   30 CL1  UNL     1      29.573  -0.447  53.720  1.00  0.00    -0.083 Cl
HETATM   31  C17 UNL     1      26.988  -0.649  52.967  1.00  0.00     0.058 A 
HETATM   32 CL2  UNL     1      27.312  -2.333  52.603  1.00  0.00    -0.082 Cl
HETATM   33  C18 UNL     1      25.696  -0.186  52.742  1.00  0.00     0.055 A 
ENDBRANCH  24  26
ENDBRANCH   7  24
TORSDOF 8
ENDMDL
MODEL 8
REMARK VINA RESULT:      -7.8      1.876      2.885
REMARK  8 active torsions:
REMARK  status: ('A' for Active; 'I' for Inactive)
REMARK    1  A    between atoms: C1_2  and  N1_3 
REMARK    2  A    between atoms: C1_2  and  N3_12 
REMARK    3  A    between atoms: N1_3  and  C2_4 
REMARK    4  A    between atoms: C2_4  and  C3_5 
REMARK    5  A    between atoms: C3_5  and  N2_6 
REMARK    6  A    between atoms: N3_12  and  C8_13 
REMARK    7  A    between atoms: C12_19  and  N6_20 
REMARK    8  A    between atoms: N6_20  and  C13_21 
ROOT
HETATM    1  C8  UNL     1      26.144   5.069  49.104  1.00  0.00     0.131 C 
HETATM    2  C9  UNL     1      25.042   5.530  50.018  1.00  0.00     0.021 C 
HETATM    3  C10 UNL     1      24.368   6.402  50.804  1.00  0.00     0.116 C 
HETATM    4  N4  UNL     1      23.146   5.891  51.430  1.00  0.00    -0.254 NA
HETATM    5  C11 UNL     1      23.337   4.658  51.914  1.00  0.00     0.234 C 
HETATM    6  N5  UNL     1      24.145   3.566  52.134  1.00  0.00    -0.225 NA
HETATM    7  C12 UNL     1      25.189   3.083  51.652  1.00  0.00     0.129 C 
HETATM    8  C19 UNL     1      26.333   3.039  50.708  1.00  0.00     0.049 C 
HETATM    9  C20 UNL     1      26.728   3.807  49.701  1.00  0.00     0.006 C 
ENDROOT
BRANCH   1  10
HETATM   10  N3  UNL     1      27.207   6.048  49.066  1.00  0.00    -0.356 N 
HETATM   11  H14 UNL     1      27.010   6.940  49.608  1.00  0.00     0.162 HD
BRANCH  10  12
HETATM   12  C1  UNL     1      28.508   6.329  48.569  1.00  0.00     0.168 C 
HETATM   13  S1  UNL     1      28.128   7.335  47.332  1.00  0.00    -0.041 SA
BRANCH  12  14
HETATM   14  N1  UNL     1      29.841   5.941  48.936  1.00  0.00    -0.366 N 
HETATM   15  H1  UNL     1      29.804   5.260  49.721  1.00  0.00     0.161 HD
BRANCH  14  16
HETATM   16  C2  UNL     1      30.779   6.623  48.101  1.00  0.00     0.141 C 
BRANCH  16  17
HETATM   17  C3  UNL     1      31.568   7.684  48.822  1.00  0.00     0.136 C 
BRANCH  17  18
HETATM   18  N2  UNL     1      31.295   9.013  48.489  1.00  0.00    -0.407 N 
HETATM   19  C4  UNL     1      31.882   9.602  47.354  1.00  0.00     0.143 C 
HETATM   20  C5  UNL     1      32.052  11.103  47.463  1.00  0.00     0.187 C 
HETATM   21  O1  UNL     1      30.922  11.735  47.936  1.00  0.00    -0.388 OA
HETATM   22  C6  UNL     1      30.640  11.264  49.200  1.00  0.00     0.187 C 
HETATM   23  C7  UNL     1      30.380   9.772  49.237  1.00  0.00     0.143 C 
ENDBRANCH  17  18
ENDBRANCH  16  17
ENDBRANCH  14  16
ENDBRANCH  12  14
ENDBRANCH  10  12
ENDBRANCH   1  10
BRANCH   7  24
HETATM   24  N6  UNL     1      25.258   1.928  52.544  1.00  0.00    -0.341 N 
HETATM   25  H19 UNL     1      24.551   1.612  53.295  1.00  0.00     0.167 HD
BRANCH  24  26
HETATM   26  C13 UNL     1      26.253   0.886  52.718  1.00  0.00     0.035 A 
HETATM   27  C14 UNL     1      25.773  -0.368  52.472  1.00  0.00     0.031 A 
HETATM   28  C15 UNL     1      26.628  -1.468  52.609  1.00  0.00     0.028 A 
HETATM   29  C16 UNL     1      27.944  -1.269  52.991  1.00  0.00     0.055 A 
HETATM   30 CL1  UNL     1      29.038  -2.610  53.173  1.00  0.00    -0.083 Cl
HETATM   31  C17 UNL     1      28.405   0.015  53.234  1.00  0.00     0.058 A 
HETATM   32 CL2  UNL     1      30.061   0.318  53.721  1.00  0.00    -0.082 Cl
HETATM   33  C18 UNL     1      27.568   1.117  53.101  1.00  0.00     0.055 A 
ENDBRANCH  24  26
ENDBRANCH   7  24
TORSDOF 8
ENDMDL
MODEL 9
REMARK VINA RESULT:      -7.7      5.124      7.280
REMARK  8 active torsions:
REMARK  status: ('A' for Active; 'I' for Inactive)
REMARK    1  A    between atoms: C1_2  and  N1_3 
REMARK    2  A    between atoms: C1_2  and  N3_12 
REMARK    3  A    between atoms: N1_3  and  C2_4 
REMARK    4  A    between atoms: C2_4  and  C3_5 
REMARK    5  A    between atoms: C3_5  and  N2_6 
REMARK    6  A    between atoms: N3_12  and  C8_13 
REMARK    7  A    between atoms: C12_19  and  N6_20 
REMARK    8  A    between atoms: N6_20  and  C13_21 
ROOT
HETATM    1  C8  UNL     1      20.916   0.718  49.812  1.00  0.00     0.131 C 
HETATM    2  C9  UNL     1      20.372   0.412  51.180  1.00  0.00     0.021 C 
HETATM    3  C10 UNL     1      19.459   0.416  52.180  1.00  0.00     0.116 C 
HETATM    4  N4  UNL     1      19.861  -0.251  53.420  1.00  0.00    -0.254 NA
HETATM    5  C11 UNL     1      21.120   0.064  53.746  1.00  0.00     0.234 C 
HETATM    6  N5  UNL     1      22.294   0.736  53.492  1.00  0.00    -0.225 NA
HETATM    7  C12 UNL     1      22.866   1.246  52.508  1.00  0.00     0.129 C 
HETATM    8  C19 UNL     1      22.999   1.610  51.075  1.00  0.00     0.049 C 
HETATM    9  C20 UNL     1      22.247   1.414  50.001  1.00  0.00     0.006 C 
ENDROOT
BRANCH   1  10
HETATM   10  N3  UNL     1      20.049   1.649  49.124  1.00  0.00    -0.356 N 
HETATM   11  H14 UNL     1      19.518   1.236  48.302  1.00  0.00     0.162 HD
BRANCH  10  12
HETATM   12  C1  UNL     1      19.575   2.987  49.094  1.00  0.00     0.168 C 
HETATM   13  S1  UNL     1      19.492   3.223  47.474  1.00  0.00    -0.041 SA
BRANCH  12  14
HETATM   14  N1  UNL     1      19.220   3.962  50.088  1.00  0.00    -0.366 N 
HETATM   15  H1  UNL     1      18.377   3.641  50.606  1.00  0.00     0.161 HD
BRANCH  14  16
HETATM   16  C2  UNL     1      20.143   5.051  50.034  1.00  0.00     0.141 C 
BRANCH  16  17
HETATM   17  C3  UNL     1      21.248   4.957  51.054  1.00  0.00     0.136 C 
BRANCH  17  18
HETATM   18  N2  UNL     1      22.547   5.207  50.605  1.00  0.00    -0.407 N 
HETATM   19  C4  UNL     1      23.532   5.678  51.493  1.00  0.00     0.143 C 
HETATM   20  C5  UNL     1      24.615   6.500  50.825  1.00  0.00     0.187 C 
HETATM   21  O1  UNL     1      25.093   5.916  49.672  1.00  0.00    -0.388 OA
HETATM   22  C6  UNL     1      24.059   5.792  48.769  1.00  0.00     0.187 C 
HETATM   23  C7  UNL     1      22.920   4.934  49.279  1.00  0.00     0.143 C 
ENDBRANCH  17  18
ENDBRANCH  16  17
ENDBRANCH  14  16
ENDBRANCH  12  14
ENDBRANCH  10  12
ENDBRANCH   1  10
BRANCH   7  24
HETATM   24  N6  UNL     1      24.047   1.710  53.233  1.00  0.00    -0.341 N 
HETATM   25  H19 UNL     1      24.141   2.553  53.900  1.00  0.00     0.167 HD
BRANCH  24  26
HETATM   26  C13 UNL     1      25.415   1.227  53.285  1.00  0.00     0.035 A 
HETATM   27  C14 UNL     1      25.526  -0.112  53.043  1.00  0.00     0.031 A 
HETATM   28  C15 UNL     1      26.791  -0.710  53.068  1.00  0.00     0.028 A 
HETATM   29  C16 UNL     1      27.908   0.062  53.338  1.00  0.00     0.055 A 
HETATM   30 CL1  UNL     1      29.498  -0.644  53.380  1.00  0.00    -0.083 Cl
HETATM   31  C17 UNL     1      27.766   1.419  53.580  1.00  0.00     0.058 A 
HETATM   32 CL2  UNL     1      29.149   2.438  53.927  1.00  0.00    -0.082 Cl
HETATM   33  C18 UNL     1      26.516   2.028  53.557  1.00  0.00     0.055 A 
ENDBRANCH  24  26
ENDBRANCH   7  24
TORSDOF 8
ENDMDL
