MODEL 1
REMARK VINA RESULT:      -7.0      0.000      0.000
REMARK  7 active torsions:
REMARK  status: ('A' for Active; 'I' for Inactive)
REMARK    1  A    between atoms: C2_2  and  C3_3 
REMARK    2  A    between atoms: C3_3  and  C4_5 
REMARK    3  A    between atoms: C4_5  and  N1_6 
REMARK    4  A    between atoms: N1_6  and  C5_7 
REMARK    5  A    between atoms: C8_10  and  O1_11 
REMARK    6  A    between atoms: O1_11  and  C9_12 
REMARK    7  A    between atoms: C9_12  and  C10_13 
ROOT
HETATM    1  C5  UNL     1      25.893   0.669  53.936  1.00  0.00     0.028 A 
HETATM    2  C6  UNL     1      25.184   0.022  52.925  1.00  0.00     0.032 A 
HETATM    3  C7  UNL     1      24.403   0.798  52.078  1.00  0.00     0.039 A 
HETATM    4  C8  UNL     1      24.294   2.194  52.191  1.00  0.00     0.069 A 
HETATM    5  C16 UNL     1      25.016   2.770  53.207  1.00  0.00     0.039 A 
HETATM    6  C17 UNL     1      25.800   2.036  54.065  1.00  0.00     0.032 A 
ENDROOT
BRANCH   4   7
HETATM    7  O1  UNL     1      23.459   2.613  51.212  1.00  0.00    -0.347 OA
BRANCH   7   8
HETATM    8  C9  UNL     1      23.567   2.816  49.867  1.00  0.00     0.214 C 
BRANCH   8   9
HETATM    9  C10 UNL     1      24.764   3.624  49.538  1.00  0.00    -0.034 A 
HETATM   10  C11 UNL     1      26.102   3.313  49.518  1.00  0.00     0.009 A 
HETATM   11  C12 UNL     1      27.070   4.214  49.166  1.00  0.00     0.001 A 
HETATM   12  C13 UNL     1      26.770   5.499  48.806  1.00  0.00     0.000 A 
HETATM   13  C14 UNL     1      25.446   5.878  48.805  1.00  0.00     0.001 A 
HETATM   14  C15 UNL     1      24.517   4.953  49.161  1.00  0.00     0.009 A 
ENDBRANCH   8   9
ENDBRANCH   7   8
ENDBRANCH   4   7
BRANCH   1  15
HETATM   15  N1  UNL     1      26.741  -0.003  54.849  1.00  0.00    -0.388 N 
HETATM   16  H9  UNL     1      26.239  -0.679  55.474  1.00  0.00     0.159 HD
BRANCH  15  17
HETATM   17  C4  UNL     1      28.168   0.073  55.080  1.00  0.00     0.140 C 
BRANCH  17  18
HETATM   18  C3  UNL     1      28.839   0.549  53.813  1.00  0.00     0.099 C 
HETATM   19 CL1  UNL     1      29.423   2.221  54.110  1.00  0.00    -0.123 Cl
BRANCH  18  20
HETATM   20  C2  UNL     1      30.029  -0.334  53.465  1.00  0.00     0.017 C 
HETATM   21  C1  UNL     1      29.512  -1.756  53.315  1.00  0.00     0.006 C 
ENDBRANCH  18  20
ENDBRANCH  17  18
ENDBRANCH  15  17
ENDBRANCH   1  15
TORSDOF 7
ENDMDL
MODEL 2
REMARK VINA RESULT:      -7.0      5.437      7.987
REMARK  7 active torsions:
REMARK  status: ('A' for Active; 'I' for Inactive)
REMARK    1  A    between atoms: C2_2  and  C3_3 
REMARK    2  A    between atoms: C3_3  and  C4_5 
REMARK    3  A    between atoms: C4_5  and  N1_6 
REMARK    4  A    between atoms: N1_6  and  C5_7 
REMARK    5  A    between atoms: C8_10  and  O1_11 
REMARK    6  A    between atoms: O1_11  and  C9_12 
REMARK    7  A    between atoms: C9_12  and  C10_13 
ROOT
HETATM    1  C5  UNL     1      20.778  -0.689  53.728  1.00  0.00     0.028 A 
HETATM    2  C6  UNL     1      21.755  -1.190  54.587  1.00  0.00     0.032 A 
HETATM    3  C7  UNL     1      23.080  -0.861  54.328  1.00  0.00     0.039 A 
HETATM    4  C8  UNL     1      23.479  -0.054  53.250  1.00  0.00     0.069 A 
HETATM    5  C16 UNL     1      22.469   0.407  52.442  1.00  0.00     0.039 A 
HETATM    6  C17 UNL     1      21.147   0.104  52.665  1.00  0.00     0.032 A 
ENDROOT
BRANCH   4   7
HETATM    7  O1  UNL     1      24.827   0.055  53.306  1.00  0.00    -0.347 OA
BRANCH   7   8
HETATM    8  C9  UNL     1      25.781   0.674  52.552  1.00  0.00     0.214 C 
BRANCH   8   9
HETATM    9  C10 UNL     1      27.144   0.318  53.008  1.00  0.00    -0.034 A 
HETATM   10  C11 UNL     1      28.144   1.067  53.578  1.00  0.00     0.009 A 
HETATM   11  C12 UNL     1      29.351   0.539  53.949  1.00  0.00     0.001 A 
HETATM   12  C13 UNL     1      29.648  -0.784  53.777  1.00  0.00     0.000 A 
HETATM   13  C14 UNL     1      28.690  -1.594  53.209  1.00  0.00     0.001 A 
HETATM   14  C15 UNL     1      27.505  -1.029  52.855  1.00  0.00     0.009 A 
ENDBRANCH   8   9
ENDBRANCH   7   8
ENDBRANCH   4   7
BRANCH   1  15
HETATM   15  N1  UNL     1      19.393  -0.931  53.894  1.00  0.00    -0.388 N 
HETATM   16  H9  UNL     1      19.137  -1.292  54.845  1.00  0.00     0.159 HD
BRANCH  15  17
HETATM   17  C4  UNL     1      18.268  -0.773  52.997  1.00  0.00     0.140 C 
BRANCH  17  18
HETATM   18  C3  UNL     1      17.175  -1.727  53.418  1.00  0.00     0.099 C 
HETATM   19 CL1  UNL     1      15.971  -1.788  52.086  1.00  0.00    -0.123 Cl
BRANCH  18  20
HETATM   20  C2  UNL     1      17.732  -3.125  53.642  1.00  0.00     0.017 C 
HETATM   21  C1  UNL     1      16.567  -4.098  53.561  1.00  0.00     0.006 C 
ENDBRANCH  18  20
ENDBRANCH  17  18
ENDBRANCH  15  17
ENDBRANCH   1  15
TORSDOF 7
ENDMDL
MODEL 3
REMARK VINA RESULT:      -6.8      3.978      5.715
REMARK  7 active torsions:
REMARK  status: ('A' for Active; 'I' for Inactive)
REMARK    1  A    between atoms: C2_2  and  C3_3 
REMARK    2  A    between atoms: C3_3  and  C4_5 
REMARK    3  A    between atoms: C4_5  and  N1_6 
REMARK    4  A    between atoms: N1_6  and  C5_7 
REMARK    5  A    between atoms: C8_10  and  O1_11 
REMARK    6  A    between atoms: O1_11  and  C9_12 
REMARK    7  A    between atoms: C9_12  and  C10_13 
ROOT
HETATM    1  C5  UNL     1      25.066  -0.403  54.069  1.00  0.00     0.028 A 
HETATM    2  C6  UNL     1      24.069  -1.009  54.835  1.00  0.00     0.032 A 
HETATM    3  C7  UNL     1      22.747  -0.707  54.536  1.00  0.00     0.039 A 
HETATM    4  C8  UNL     1      22.367   0.172  53.508  1.00  0.00     0.069 A 
HETATM    5  C16 UNL     1      23.395   0.734  52.793  1.00  0.00     0.039 A 
HETATM    6  C17 UNL     1      24.717   0.462  53.058  1.00  0.00     0.032 A 
ENDROOT
BRANCH   4   7
HETATM    7  O1  UNL     1      21.015   0.227  53.504  1.00  0.00    -0.347 OA
BRANCH   7   8
HETATM    8  C9  UNL     1      20.008  -0.675  53.687  1.00  0.00     0.214 C 
BRANCH   8   9
HETATM    9  C10 UNL     1      18.952  -0.521  52.659  1.00  0.00    -0.034 A 
HETATM   10  C11 UNL     1      17.654  -0.965  52.606  1.00  0.00     0.009 A 
HETATM   11  C12 UNL     1      16.819  -0.700  51.554  1.00  0.00     0.001 A 
HETATM   12  C13 UNL     1      17.223   0.033  50.474  1.00  0.00     0.000 A 
HETATM   13  C14 UNL     1      18.515   0.510  50.462  1.00  0.00     0.001 A 
HETATM   14  C15 UNL     1      19.311   0.223  51.525  1.00  0.00     0.009 A 
ENDBRANCH   8   9
ENDBRANCH   7   8
ENDBRANCH   4   7
BRANCH   1  15
HETATM   15  N1  UNL     1      26.449  -0.642  54.257  1.00  0.00    -0.388 N 
HETATM   16  H9  UNL     1      26.747  -1.616  54.005  1.00  0.00     0.159 HD
BRANCH  15  17
HETATM   17  C4  UNL     1      27.522   0.205  54.730  1.00  0.00     0.140 C 
BRANCH  17  18
HETATM   18  C3  UNL     1      28.380   0.603  53.553  1.00  0.00     0.099 C 
HETATM   19 CL1  UNL     1      28.449   2.398  53.521  1.00  0.00    -0.123 Cl
BRANCH  18  20
HETATM   20  C2  UNL     1      29.794   0.059  53.702  1.00  0.00     0.017 C 
HETATM   21  C1  UNL     1      29.740  -1.433  53.418  1.00  0.00     0.006 C 
ENDBRANCH  18  20
ENDBRANCH  17  18
ENDBRANCH  15  17
ENDBRANCH   1  15
TORSDOF 7
ENDMDL
MODEL 4
REMARK VINA RESULT:      -6.7      5.552      7.657
REMARK  7 active torsions:
REMARK  status: ('A' for Active; 'I' for Inactive)
REMARK    1  A    between atoms: C2_2  and  C3_3 
REMARK    2  A    between atoms: C3_3  and  C4_5 
REMARK    3  A    between atoms: C4_5  and  N1_6 
REMARK    4  A    between atoms: N1_6  and  C5_7 
REMARK    5  A    between atoms: C8_10  and  O1_11 
REMARK    6  A    between atoms: O1_11  and  C9_12 
REMARK    7  A    between atoms: C9_12  and  C10_13 
ROOT
HETATM    1  C5  UNL     1      23.657  -0.131  53.658  1.00  0.00     0.028 A 
HETATM    2  C6  UNL     1      22.676   0.338  52.783  1.00  0.00     0.032 A 
HETATM    3  C7  UNL     1      21.372  -0.099  52.975  1.00  0.00     0.039 A 
HETATM    4  C8  UNL     1      20.995  -0.982  54.000  1.00  0.00     0.069 A 
HETATM    5  C16 UNL     1      22.006  -1.405  54.827  1.00  0.00     0.039 A 
HETATM    6  C17 UNL     1      23.309  -0.997  54.669  1.00  0.00     0.032 A 
ENDROOT
BRANCH   4   7
HETATM    7  O1  UNL     1      19.662  -1.186  53.886  1.00  0.00    -0.347 OA
BRANCH   7   8
HETATM    8  C9  UNL     1      18.684  -0.752  53.040  1.00  0.00     0.214 C 
BRANCH   8   9
HETATM    9  C10 UNL     1      17.573  -1.728  52.953  1.00  0.00    -0.034 A 
HETATM   10  C11 UNL     1      16.342  -1.663  52.347  1.00  0.00     0.009 A 
HETATM   11  C12 UNL     1      15.446  -2.697  52.370  1.00  0.00     0.001 A 
HETATM   12  C13 UNL     1      15.716  -3.878  53.004  1.00  0.00     0.000 A 
HETATM   13  C14 UNL     1      16.933  -4.010  53.633  1.00  0.00     0.001 A 
HETATM   14  C15 UNL     1      17.794  -2.960  53.587  1.00  0.00     0.009 A 
ENDBRANCH   8   9
ENDBRANCH   7   8
ENDBRANCH   4   7
BRANCH   1  15
HETATM   15  N1  UNL     1      25.017   0.254  53.585  1.00  0.00    -0.388 N 
HETATM   16  H9  UNL     1      25.232   0.901  52.788  1.00  0.00     0.159 HD
BRANCH  15  17
HETATM   17  C4  UNL     1      26.163  -0.080  54.404  1.00  0.00     0.140 C 
BRANCH  17  18
HETATM   18  C3  UNL     1      27.294  -0.512  53.501  1.00  0.00     0.099 C 
HETATM   19 CL1  UNL     1      26.742  -0.293  51.806  1.00  0.00    -0.123 Cl
BRANCH  18  20
HETATM   20  C2  UNL     1      28.530   0.345  53.731  1.00  0.00     0.017 C 
HETATM   21  C1  UNL     1      29.742  -0.567  53.633  1.00  0.00     0.006 C 
ENDBRANCH  18  20
ENDBRANCH  17  18
ENDBRANCH  15  17
ENDBRANCH   1  15
TORSDOF 7
ENDMDL
MODEL 5
REMARK VINA RESULT:      -6.7      2.515      4.742
REMARK  7 active torsions:
REMARK  status: ('A' for Active; 'I' for Inactive)
REMARK    1  A    between atoms: C2_2  and  C3_3 
REMARK    2  A    between atoms: C3_3  and  C4_5 
REMARK    3  A    between atoms: C4_5  and  N1_6 
REMARK    4  A    between atoms: N1_6  and  C5_7 
REMARK    5  A    between atoms: C8_10  and  O1_11 
REMARK    6  A    between atoms: O1_11  and  C9_12 
REMARK    7  A    between atoms: C9_12  and  C10_13 
ROOT
HETATM    1  C5  UNL     1      26.543   2.421  52.529  1.00  0.00     0.028 A 
HETATM    2  C6  UNL     1      26.134   2.302  51.201  1.00  0.00     0.032 A 
HETATM    3  C7  UNL     1      24.772   2.349  50.933  1.00  0.00     0.039 A 
HETATM    4  C8  UNL     1      23.794   2.510  51.929  1.00  0.00     0.069 A 
HETATM    5  C16 UNL     1      24.262   2.621  53.215  1.00  0.00     0.039 A 
HETATM    6  C17 UNL     1      25.602   2.579  53.520  1.00  0.00     0.032 A 
ENDROOT
BRANCH   4   7
HETATM    7  O1  UNL     1      22.588   2.511  51.313  1.00  0.00    -0.347 OA
BRANCH   7   8
HETATM    8  C9  UNL     1      21.528   1.655  51.259  1.00  0.00     0.214 C 
BRANCH   8   9
HETATM    9  C10 UNL     1      21.578   0.663  52.358  1.00  0.00    -0.034 A 
HETATM   10  C11 UNL     1      22.248  -0.528  52.487  1.00  0.00     0.009 A 
HETATM   11  C12 UNL     1      22.173  -1.307  53.610  1.00  0.00     0.001 A 
HETATM   12  C13 UNL     1      21.418  -0.949  54.692  1.00  0.00     0.000 A 
HETATM   13  C14 UNL     1      20.719   0.235  54.630  1.00  0.00     0.001 A 
HETATM   14  C15 UNL     1      20.820   0.978  53.497  1.00  0.00     0.009 A 
ENDBRANCH   8   9
ENDBRANCH   7   8
ENDBRANCH   4   7
BRANCH   1  15
HETATM   15  N1  UNL     1      27.900   2.411  52.931  1.00  0.00    -0.388 N 
HETATM   16  H9  UNL     1      28.462   3.209  52.547  1.00  0.00     0.159 HD
BRANCH  15  17
HETATM   17  C4  UNL     1      28.654   1.505  53.772  1.00  0.00     0.140 C 
BRANCH  17  18
HETATM   18  C3  UNL     1      28.611   0.126  53.157  1.00  0.00     0.099 C 
HETATM   19 CL1  UNL     1      30.147  -0.702  53.587  1.00  0.00    -0.123 Cl
BRANCH  18  20
HETATM   20  C2  UNL     1      27.446  -0.680  53.712  1.00  0.00     0.017 C 
HETATM   21  C1  UNL     1      26.671  -1.235  52.528  1.00  0.00     0.006 C 
ENDBRANCH  18  20
ENDBRANCH  17  18
ENDBRANCH  15  17
ENDBRANCH   1  15
TORSDOF 7
ENDMDL
MODEL 6
REMARK VINA RESULT:      -6.7      4.518      6.295
REMARK  7 active torsions:
REMARK  status: ('A' for Active; 'I' for Inactive)
REMARK    1  A    between atoms: C2_2  and  C3_3 
REMARK    2  A    between atoms: C3_3  and  C4_5 
REMARK    3  A    between atoms: C4_5  and  N1_6 
REMARK    4  A    between atoms: N1_6  and  C5_7 
REMARK    5  A    between atoms: C8_10  and  O1_11 
REMARK    6  A    between atoms: O1_11  and  C9_12 
REMARK    7  A    between atoms: C9_12  and  C10_13 
ROOT
HETATM    1  C5  UNL     1      24.448  -0.637  54.256  1.00  0.00     0.028 A 
HETATM    2  C6  UNL     1      24.010   0.043  53.120  1.00  0.00     0.032 A 
HETATM    3  C7  UNL     1      22.641   0.119  52.895  1.00  0.00     0.039 A 
HETATM    4  C8  UNL     1      21.684  -0.452  53.750  1.00  0.00     0.069 A 
HETATM    5  C16 UNL     1      22.181  -1.108  54.850  1.00  0.00     0.039 A 
HETATM    6  C17 UNL     1      23.528  -1.205  55.107  1.00  0.00     0.032 A 
ENDROOT
BRANCH   4   7
HETATM    7  O1  UNL     1      20.465  -0.185  53.226  1.00  0.00    -0.347 OA
BRANCH   7   8
HETATM    8  C9  UNL     1      20.009   0.366  52.065  1.00  0.00     0.214 C 
BRANCH   8   9
HETATM    9  C10 UNL     1      18.635  -0.090  51.753  1.00  0.00    -0.034 A 
HETATM   10  C11 UNL     1      17.825   0.118  50.664  1.00  0.00     0.009 A 
HETATM   11  C12 UNL     1      16.568  -0.412  50.559  1.00  0.00     0.001 A 
HETATM   12  C13 UNL     1      16.026  -1.195  51.540  1.00  0.00     0.000 A 
HETATM   13  C14 UNL     1      16.784  -1.445  52.661  1.00  0.00     0.001 A 
HETATM   14  C15 UNL     1      18.027  -0.899  52.726  1.00  0.00     0.009 A 
ENDBRANCH   8   9
ENDBRANCH   7   8
ENDBRANCH   4   7
BRANCH   1  15
HETATM   15  N1  UNL     1      25.812  -0.767  54.610  1.00  0.00    -0.388 N 
HETATM   16  H9  UNL     1      26.147  -1.760  54.651  1.00  0.00     0.159 HD
BRANCH  15  17
HETATM   17  C4  UNL     1      26.827   0.216  54.928  1.00  0.00     0.140 C 
BRANCH  17  18
HETATM   18  C3  UNL     1      27.744   0.367  53.736  1.00  0.00     0.099 C 
HETATM   19 CL1  UNL     1      29.133   1.382  54.253  1.00  0.00    -0.123 Cl
BRANCH  18  20
HETATM   20  C2  UNL     1      28.266  -0.987  53.279  1.00  0.00     0.017 C 
HETATM   21  C1  UNL     1      29.775  -0.981  53.469  1.00  0.00     0.006 C 
ENDBRANCH  18  20
ENDBRANCH  17  18
ENDBRANCH  15  17
ENDBRANCH   1  15
TORSDOF 7
ENDMDL
MODEL 7
REMARK VINA RESULT:      -6.7      3.371      5.256
REMARK  7 active torsions:
REMARK  status: ('A' for Active; 'I' for Inactive)
REMARK    1  A    between atoms: C2_2  and  C3_3 
REMARK    2  A    between atoms: C3_3  and  C4_5 
REMARK    3  A    between atoms: C4_5  and  N1_6 
REMARK    4  A    between atoms: N1_6  and  C5_7 
REMARK    5  A    between atoms: C8_10  and  O1_11 
REMARK    6  A    between atoms: O1_11  and  C9_12 
REMARK    7  A    between atoms: C9_12  and  C10_13 
ROOT
HETATM    1  C5  UNL     1      25.388   1.388  53.882  1.00  0.00     0.028 A 
HETATM    2  C6  UNL     1      24.844   2.587  53.421  1.00  0.00     0.032 A 
HETATM    3  C7  UNL     1      23.676   2.526  52.672  1.00  0.00     0.039 A 
HETATM    4  C8  UNL     1      23.021   1.324  52.359  1.00  0.00     0.069 A 
HETATM    5  C16 UNL     1      23.607   0.180  52.843  1.00  0.00     0.039 A 
HETATM    6  C17 UNL     1      24.762   0.199  53.587  1.00  0.00     0.032 A 
ENDROOT
BRANCH   4   7
HETATM    7  O1  UNL     1      21.929   1.639  51.624  1.00  0.00    -0.347 OA
BRANCH   7   8
HETATM    8  C9  UNL     1      21.123   0.971  50.750  1.00  0.00     0.214 C 
BRANCH   8   9
HETATM    9  C10 UNL     1      19.982   0.334  51.447  1.00  0.00    -0.034 A 
HETATM   10  C11 UNL     1      19.879  -0.266  52.677  1.00  0.00     0.009 A 
HETATM   11  C12 UNL     1      18.709  -0.792  53.154  1.00  0.00     0.001 A 
HETATM   12  C13 UNL     1      17.549  -0.754  52.432  1.00  0.00     0.000 A 
HETATM   13  C14 UNL     1      17.580  -0.166  51.187  1.00  0.00     0.001 A 
HETATM   14  C15 UNL     1      18.763   0.343  50.751  1.00  0.00     0.009 A 
ENDBRANCH   8   9
ENDBRANCH   7   8
ENDBRANCH   4   7
BRANCH   1  15
HETATM   15  N1  UNL     1      26.560   1.315  54.673  1.00  0.00    -0.388 N 
HETATM   16  H9  UNL     1      26.630   2.071  55.397  1.00  0.00     0.159 HD
BRANCH  15  17
HETATM   17  C4  UNL     1      27.676   0.394  54.666  1.00  0.00     0.140 C 
BRANCH  17  18
HETATM   18  C3  UNL     1      28.576   0.733  53.501  1.00  0.00     0.099 C 
HETATM   19 CL1  UNL     1      28.885   2.502  53.557  1.00  0.00    -0.123 Cl
BRANCH  18  20
HETATM   20  C2  UNL     1      29.904  -0.002  53.610  1.00  0.00     0.017 C 
HETATM   21  C1  UNL     1      29.618  -1.486  53.445  1.00  0.00     0.006 C 
ENDBRANCH  18  20
ENDBRANCH  17  18
ENDBRANCH  15  17
ENDBRANCH   1  15
TORSDOF 7
ENDMDL
MODEL 8
REMARK VINA RESULT:      -6.5      2.652      6.516
REMARK  7 active torsions:
REMARK  status: ('A' for Active; 'I' for Inactive)
REMARK    1  A    between atoms: C2_2  and  C3_3 
REMARK    2  A    between atoms: C3_3  and  C4_5 
REMARK    3  A    between atoms: C4_5  and  N1_6 
REMARK    4  A    between atoms: N1_6  and  C5_7 
REMARK    5  A    between atoms: C8_10  and  O1_11 
REMARK    6  A    between atoms: O1_11  and  C9_12 
REMARK    7  A    between atoms: C9_12  and  C10_13 
ROOT
HETATM    1  C5  UNL     1      24.823   3.771  50.859  1.00  0.00     0.028 A 
HETATM    2  C6  UNL     1      23.710   3.200  51.477  1.00  0.00     0.032 A 
HETATM    3  C7  UNL     1      23.854   1.938  52.038  1.00  0.00     0.039 A 
HETATM    4  C8  UNL     1      25.058   1.214  52.015  1.00  0.00     0.069 A 
HETATM    5  C16 UNL     1      26.115   1.832  51.392  1.00  0.00     0.039 A 
HETATM    6  C17 UNL     1      26.012   3.080  50.824  1.00  0.00     0.032 A 
ENDROOT
BRANCH   4   7
HETATM    7  O1  UNL     1      24.835   0.039  52.648  1.00  0.00    -0.347 OA
BRANCH   7   8
HETATM    8  C9  UNL     1      25.305  -0.554  53.782  1.00  0.00     0.214 C 
BRANCH   8   9
HETATM    9  C10 UNL     1      26.782  -0.663  53.762  1.00  0.00    -0.034 A 
HETATM   10  C11 UNL     1      27.630  -1.480  53.055  1.00  0.00     0.009 A 
HETATM   11  C12 UNL     1      28.993  -1.415  53.169  1.00  0.00     0.001 A 
HETATM   12  C13 UNL     1      29.610  -0.523  54.002  1.00  0.00     0.000 A 
HETATM   13  C14 UNL     1      28.818   0.326  54.741  1.00  0.00     0.001 A 
HETATM   14  C15 UNL     1      27.470   0.228  54.599  1.00  0.00     0.009 A 
ENDBRANCH   8   9
ENDBRANCH   7   8
ENDBRANCH   4   7
BRANCH   1  15
HETATM   15  N1  UNL     1      24.814   5.059  50.270  1.00  0.00    -0.388 N 
HETATM   16  H9  UNL     1      24.793   5.843  50.966  1.00  0.00     0.159 HD
BRANCH  15  17
HETATM   17  C4  UNL     1      24.827   5.490  48.889  1.00  0.00     0.140 C 
BRANCH  17  18
HETATM   18  C3  UNL     1      26.023   6.389  48.674  1.00  0.00     0.099 C 
HETATM   19 CL1  UNL     1      26.153   7.462  50.108  1.00  0.00    -0.123 Cl
BRANCH  18  20
HETATM   20  C2  UNL     1      27.301   5.571  48.553  1.00  0.00     0.017 C 
HETATM   21  C1  UNL     1      28.395   6.507  48.066  1.00  0.00     0.006 C 
ENDBRANCH  18  20
ENDBRANCH  17  18
ENDBRANCH  15  17
ENDBRANCH   1  15
TORSDOF 7
ENDMDL
MODEL 9
REMARK VINA RESULT:      -6.5      4.448      6.270
REMARK  7 active torsions:
REMARK  status: ('A' for Active; 'I' for Inactive)
REMARK    1  A    between atoms: C2_2  and  C3_3 
REMARK    2  A    between atoms: C3_3  and  C4_5 
REMARK    3  A    between atoms: C4_5  and  N1_6 
REMARK    4  A    between atoms: N1_6  and  C5_7 
REMARK    5  A    between atoms: C8_10  and  O1_11 
REMARK    6  A    between atoms: O1_11  and  C9_12 
REMARK    7  A    between atoms: C9_12  and  C10_13 
ROOT
HETATM    1  C5  UNL     1      24.842   0.672  53.083  1.00  0.00     0.028 A 
HETATM    2  C6  UNL     1      23.970  -0.257  53.650  1.00  0.00     0.032 A 
HETATM    3  C7  UNL     1      22.690  -0.356  53.120  1.00  0.00     0.039 A 
HETATM    4  C8  UNL     1      22.235   0.429  52.048  1.00  0.00     0.069 A 
HETATM    5  C16 UNL     1      23.141   1.324  51.535  1.00  0.00     0.039 A 
HETATM    6  C17 UNL     1      24.416   1.452  52.032  1.00  0.00     0.032 A 
ENDROOT
BRANCH   4   7
HETATM    7  O1  UNL     1      20.954   0.069  51.799  1.00  0.00    -0.347 OA
BRANCH   7   8
HETATM    8  C9  UNL     1      19.877   0.664  51.211  1.00  0.00     0.214 C 
BRANCH   8   9
HETATM    9  C10 UNL     1      18.618  -0.039  51.553  1.00  0.00    -0.034 A 
HETATM   10  C11 UNL     1      17.431  -0.173  50.876  1.00  0.00     0.009 A 
HETATM   11  C12 UNL     1      16.372  -0.890  51.365  1.00  0.00     0.001 A 
HETATM   12  C13 UNL     1      16.423  -1.527  52.573  1.00  0.00     0.000 A 
HETATM   13  C14 UNL     1      17.585  -1.434  53.306  1.00  0.00     0.001 A 
HETATM   14  C15 UNL     1      18.613  -0.713  52.784  1.00  0.00     0.009 A 
ENDBRANCH   8   9
ENDBRANCH   7   8
ENDBRANCH   4   7
BRANCH   1  15
HETATM   15  N1  UNL     1      26.177   0.855  53.515  1.00  0.00    -0.388 N 
HETATM   16  H9  UNL     1      26.264   1.422  54.393  1.00  0.00     0.159 HD
BRANCH  15  17
HETATM   17  C4  UNL     1      27.441   0.407  52.969  1.00  0.00     0.140 C 
BRANCH  17  18
HETATM   18  C3  UNL     1      27.675  -1.022  53.400  1.00  0.00     0.099 C 
HETATM   19 CL1  UNL     1      26.836  -2.084  52.219  1.00  0.00    -0.123 Cl
BRANCH  18  20
HETATM   20  C2  UNL     1      29.160  -1.355  53.393  1.00  0.00     0.017 C 
HETATM   21  C1  UNL     1      29.920  -0.046  53.526  1.00  0.00     0.006 C 
ENDBRANCH  18  20
ENDBRANCH  17  18
ENDBRANCH  15  17
ENDBRANCH   1  15
TORSDOF 7
ENDMDL
