MODEL 1
REMARK VINA RESULT:      -8.7      0.000      0.000
REMARK  9 active torsions:
REMARK  status: ('A' for Active; 'I' for Inactive)
REMARK    1  A    between atoms: C5_5  and  O1_6 
REMARK    2  A    between atoms: C6_7  and  C7_8 
REMARK    3  A    between atoms: C7_8  and  N1_9 
REMARK    4  A    between atoms: N1_9  and  C8_10 
REMARK    5  A    between atoms: N1_9  and  C15_18 
REMARK    6  A    between atoms: C8_10  and  C9_11 
REMARK    7  A    between atoms: C12_14  and  O2_15 
REMARK    8  A    between atoms: C15_18  and  N2_20 
REMARK    9  A    between atoms: N2_20  and  C16_21 
ROOT
HETATM    1  N1  UNL     1      25.520   2.272  51.524  1.00  0.00    -0.349 N 
ENDROOT
BRANCH   1   2
HETATM    2  C7  UNL     1      25.454   2.413  50.107  1.00  0.00     0.167 C 
BRANCH   2   3
HETATM    3  C6  UNL     1      25.849   3.707  49.555  1.00  0.00    -0.007 A 
HETATM    4  C5  UNL     1      24.928   4.748  49.382  1.00  0.00     0.073 A 
HETATM    5  C4  UNL     1      25.258   5.981  48.883  1.00  0.00     0.037 A 
HETATM    6  C3  UNL     1      26.557   6.263  48.515  1.00  0.00     0.009 A 
HETATM    7  C2  UNL     1      27.519   5.285  48.659  1.00  0.00    -0.061 A 
HETATM    8  C1  UNL     1      28.918   5.558  48.275  1.00  0.00     0.048 C 
HETATM    9  C22 UNL     1      27.120   4.074  49.165  1.00  0.00     0.018 A 
BRANCH   4  10
HETATM   10  O1  UNL     1      23.605   4.612  49.703  1.00  0.00    -0.360 OA
HETATM   11  H6  UNL     1      23.119   3.755  49.924  1.00  0.00     0.217 HD
ENDBRANCH   4  10
ENDBRANCH   2   3
ENDBRANCH   1   2
BRANCH   1  12
HETATM   12  C8  UNL     1      26.785   2.010  52.175  1.00  0.00     0.164 C 
BRANCH  12  13
HETATM   13  C9  UNL     1      27.072   0.579  52.398  1.00  0.00    -0.040 A 
HETATM   14  C10 UNL     1      26.426  -0.579  52.047  1.00  0.00     0.011 A 
HETATM   15  C11 UNL     1      26.951  -1.806  52.391  1.00  0.00     0.037 A 
HETATM   16  C12 UNL     1      28.125  -1.957  53.092  1.00  0.00     0.065 A 
HETATM   17  C13 UNL     1      28.792  -0.803  53.457  1.00  0.00     0.037 A 
HETATM   18  C14 UNL     1      28.270   0.446  53.115  1.00  0.00     0.011 A 
BRANCH  16  19
HETATM   19  O2  UNL     1      28.540  -3.252  53.373  1.00  0.00    -0.361 OA
HETATM   20  H13 UNL     1      29.390  -3.651  53.026  1.00  0.00     0.217 HD
ENDBRANCH  16  19
ENDBRANCH  12  13
ENDBRANCH   1  12
BRANCH   1  21
HETATM   21  C15 UNL     1      24.269   2.423  52.238  1.00  0.00     0.174 C 
HETATM   22  S1  UNL     1      24.117   3.725  53.226  1.00  0.00    -0.041 SA
BRANCH  21  23
HETATM   23  N2  UNL     1      23.096   1.633  52.267  1.00  0.00    -0.333 N 
HETATM   24  H16 UNL     1      22.634   1.974  51.398  1.00  0.00     0.168 HD
BRANCH  23  25
HETATM   25  C16 UNL     1      22.445   0.639  53.027  1.00  0.00     0.034 A 
HETATM   26  C17 UNL     1      21.093   0.398  53.011  1.00  0.00     0.029 A 
HETATM   27  C18 UNL     1      20.496  -0.584  53.770  1.00  0.00     0.002 A 
HETATM   28  C19 UNL     1      21.388  -1.292  54.537  1.00  0.00     0.000 A 
HETATM   29  C20 UNL     1      22.734  -1.117  54.610  1.00  0.00     0.002 A 
HETATM   30  C21 UNL     1      23.275  -0.125  53.834  1.00  0.00     0.029 A 
ENDBRANCH  23  25
ENDBRANCH  21  23
ENDBRANCH   1  21
TORSDOF 9
ENDMDL
MODEL 2
REMARK VINA RESULT:      -8.7      1.861      5.905
REMARK  9 active torsions:
REMARK  status: ('A' for Active; 'I' for Inactive)
REMARK    1  A    between atoms: C5_5  and  O1_6 
REMARK    2  A    between atoms: C6_7  and  C7_8 
REMARK    3  A    between atoms: C7_8  and  N1_9 
REMARK    4  A    between atoms: N1_9  and  C8_10 
REMARK    5  A    between atoms: N1_9  and  C15_18 
REMARK    6  A    between atoms: C8_10  and  C9_11 
REMARK    7  A    between atoms: C12_14  and  O2_15 
REMARK    8  A    between atoms: C15_18  and  N2_20 
REMARK    9  A    between atoms: N2_20  and  C16_21 
ROOT
HETATM    1  N1  UNL     1      25.116   2.606  51.192  1.00  0.00    -0.349 N 
ENDROOT
BRANCH   1   2
HETATM    2  C7  UNL     1      25.823   2.650  52.430  1.00  0.00     0.167 C 
BRANCH   2   3
HETATM    3  C6  UNL     1      26.672   1.504  52.744  1.00  0.00    -0.007 A 
HETATM    4  C5  UNL     1      27.846   1.640  53.498  1.00  0.00     0.073 A 
HETATM    5  C4  UNL     1      28.663   0.591  53.828  1.00  0.00     0.037 A 
HETATM    6  C3  UNL     1      28.359  -0.690  53.420  1.00  0.00     0.009 A 
HETATM    7  C2  UNL     1      27.218  -0.900  52.674  1.00  0.00    -0.061 A 
HETATM    8  C1  UNL     1      26.865  -2.260  52.223  1.00  0.00     0.048 C 
HETATM    9  C22 UNL     1      26.443   0.194  52.379  1.00  0.00     0.018 A 
BRANCH   4  10
HETATM   10  O1  UNL     1      28.272   2.851  53.970  1.00  0.00    -0.360 OA
HETATM   11  H6  UNL     1      29.009   3.427  53.589  1.00  0.00     0.217 HD
ENDBRANCH   4  10
ENDBRANCH   2   3
ENDBRANCH   1   2
BRANCH   1  12
HETATM   12  C8  UNL     1      25.812   2.826  49.944  1.00  0.00     0.164 C 
BRANCH  12  13
HETATM   13  C9  UNL     1      26.075   4.245  49.633  1.00  0.00    -0.040 A 
HETATM   14  C10 UNL     1      25.414   5.412  49.920  1.00  0.00     0.011 A 
HETATM   15  C11 UNL     1      25.917   6.624  49.500  1.00  0.00     0.037 A 
HETATM   16  C12 UNL     1      27.083   6.752  48.782  1.00  0.00     0.065 A 
HETATM   17  C13 UNL     1      27.766   5.588  48.481  1.00  0.00     0.037 A 
HETATM   18  C14 UNL     1      27.266   4.354  48.901  1.00  0.00     0.011 A 
BRANCH  16  19
HETATM   19  O2  UNL     1      27.476   8.034  48.422  1.00  0.00    -0.361 OA
HETATM   20  H13 UNL     1      27.184   8.861  48.903  1.00  0.00     0.217 HD
ENDBRANCH  16  19
ENDBRANCH  12  13
ENDBRANCH   1  12
BRANCH   1  21
HETATM   21  C15 UNL     1      23.699   2.316  51.278  1.00  0.00     0.174 C 
HETATM   22  S1  UNL     1      22.836   2.355  49.882  1.00  0.00    -0.041 SA
BRANCH  21  23
HETATM   23  N2  UNL     1      22.864   1.998  52.374  1.00  0.00    -0.333 N 
HETATM   24  H16 UNL     1      22.570   2.957  52.654  1.00  0.00     0.168 HD
BRANCH  23  25
HETATM   25  C16 UNL     1      22.368   0.904  53.111  1.00  0.00     0.034 A 
HETATM   26  C17 UNL     1      23.143  -0.069  53.694  1.00  0.00     0.029 A 
HETATM   27  C18 UNL     1      22.617  -1.123  54.406  1.00  0.00     0.002 A 
HETATM   28  C19 UNL     1      21.246  -1.100  54.474  1.00  0.00     0.000 A 
HETATM   29  C20 UNL     1      20.409  -0.179  53.928  1.00  0.00     0.002 A 
HETATM   30  C21 UNL     1      20.986   0.850  53.229  1.00  0.00     0.029 A 
ENDBRANCH  23  25
ENDBRANCH  21  23
ENDBRANCH   1  21
TORSDOF 9
ENDMDL
MODEL 3
REMARK VINA RESULT:      -8.5      2.865      5.548
REMARK  9 active torsions:
REMARK  status: ('A' for Active; 'I' for Inactive)
REMARK    1  A    between atoms: C5_5  and  O1_6 
REMARK    2  A    between atoms: C6_7  and  C7_8 
REMARK    3  A    between atoms: C7_8  and  N1_9 
REMARK    4  A    between atoms: N1_9  and  C8_10 
REMARK    5  A    between atoms: N1_9  and  C15_18 
REMARK    6  A    between atoms: C8_10  and  C9_11 
REMARK    7  A    between atoms: C12_14  and  O2_15 
REMARK    8  A    between atoms: C15_18  and  N2_20 
REMARK    9  A    between atoms: N2_20  and  C16_21 
ROOT
HETATM    1  N1  UNL     1      24.286   2.888  51.519  1.00  0.00    -0.349 N 
ENDROOT
BRANCH   1   2
HETATM    2  C7  UNL     1      23.667   3.876  52.340  1.00  0.00     0.167 C 
BRANCH   2   3
HETATM    3  C6  UNL     1      22.851   4.879  51.660  1.00  0.00    -0.007 A 
HETATM    4  C5  UNL     1      23.292   6.198  51.490  1.00  0.00     0.073 A 
HETATM    5  C4  UNL     1      22.566   7.166  50.848  1.00  0.00     0.037 A 
HETATM    6  C3  UNL     1      21.325   6.878  50.319  1.00  0.00     0.009 A 
HETATM    7  C2  UNL     1      20.827   5.598  50.448  1.00  0.00    -0.061 A 
HETATM    8  C1  UNL     1      19.502   5.258  49.893  1.00  0.00     0.048 C 
HETATM    9  C22 UNL     1      21.606   4.677  51.103  1.00  0.00     0.018 A 
BRANCH   4  10
HETATM   10  O1  UNL     1      24.502   6.628  51.963  1.00  0.00    -0.360 OA
HETATM   11  H6  UNL     1      24.695   7.497  52.440  1.00  0.00     0.217 HD
ENDBRANCH   4  10
ENDBRANCH   2   3
ENDBRANCH   1   2
BRANCH   1  12
HETATM   12  C8  UNL     1      23.538   1.731  51.077  1.00  0.00     0.164 C 
BRANCH  12  13
HETATM   13  C9  UNL     1      23.080   0.848  52.167  1.00  0.00    -0.040 A 
HETATM   14  C10 UNL     1      23.718   0.228  53.211  1.00  0.00     0.011 A 
HETATM   15  C11 UNL     1      23.010  -0.548  54.104  1.00  0.00     0.037 A 
HETATM   16  C12 UNL     1      21.652  -0.754  54.017  1.00  0.00     0.065 A 
HETATM   17  C13 UNL     1      20.989  -0.139  52.972  1.00  0.00     0.037 A 
HETATM   18  C14 UNL     1      21.695   0.649  52.060  1.00  0.00     0.011 A 
BRANCH  16  19
HETATM   19  O2  UNL     1      21.064  -1.559  54.984  1.00  0.00    -0.361 OA
HETATM   20  H13 UNL     1      20.452  -1.214  55.697  1.00  0.00     0.217 HD
ENDBRANCH  16  19
ENDBRANCH  12  13
ENDBRANCH   1  12
BRANCH   1  21
HETATM   21  C15 UNL     1      25.668   3.132  51.159  1.00  0.00     0.174 C 
HETATM   22  S1  UNL     1      25.956   3.817  49.695  1.00  0.00    -0.041 SA
BRANCH  21  23
HETATM   23  N2  UNL     1      26.880   2.881  51.842  1.00  0.00    -0.333 N 
HETATM   24  H16 UNL     1      27.383   3.769  51.639  1.00  0.00     0.168 HD
BRANCH  23  25
HETATM   25  C16 UNL     1      27.532   1.905  52.625  1.00  0.00     0.034 A 
HETATM   26  C17 UNL     1      28.482   2.170  53.580  1.00  0.00     0.029 A 
HETATM   27  C18 UNL     1      29.095   1.187  54.324  1.00  0.00     0.002 A 
HETATM   28  C19 UNL     1      28.659  -0.077  54.013  1.00  0.00     0.000 A 
HETATM   29  C20 UNL     1      27.728  -0.424  53.086  1.00  0.00     0.002 A 
HETATM   30  C21 UNL     1      27.150   0.596  52.373  1.00  0.00     0.029 A 
ENDBRANCH  23  25
ENDBRANCH  21  23
ENDBRANCH   1  21
TORSDOF 9
ENDMDL
MODEL 4
REMARK VINA RESULT:      -8.3      1.542      6.644
REMARK  9 active torsions:
REMARK  status: ('A' for Active; 'I' for Inactive)
REMARK    1  A    between atoms: C5_5  and  O1_6 
REMARK    2  A    between atoms: C6_7  and  C7_8 
REMARK    3  A    between atoms: C7_8  and  N1_9 
REMARK    4  A    between atoms: N1_9  and  C8_10 
REMARK    5  A    between atoms: N1_9  and  C15_18 
REMARK    6  A    between atoms: C8_10  and  C9_11 
REMARK    7  A    between atoms: C12_14  and  O2_15 
REMARK    8  A    between atoms: C15_18  and  N2_20 
REMARK    9  A    between atoms: N2_20  and  C16_21 
ROOT
HETATM    1  N1  UNL     1      25.036   3.288  51.144  1.00  0.00    -0.349 N 
ENDROOT
BRANCH   1   2
HETATM    2  C7  UNL     1      24.185   3.182  52.284  1.00  0.00     0.167 C 
BRANCH   2   3
HETATM    3  C6  UNL     1      23.309   2.015  52.345  1.00  0.00    -0.007 A 
HETATM    4  C5  UNL     1      22.320   1.783  51.379  1.00  0.00     0.073 A 
HETATM    5  C4  UNL     1      21.487   0.695  51.390  1.00  0.00     0.037 A 
HETATM    6  C3  UNL     1      21.586  -0.255  52.385  1.00  0.00     0.009 A 
HETATM    7  C2  UNL     1      22.538  -0.092  53.369  1.00  0.00    -0.061 A 
HETATM    8  C1  UNL     1      22.669  -1.092  54.447  1.00  0.00     0.048 C 
HETATM    9  C22 UNL     1      23.340   1.019  53.299  1.00  0.00     0.018 A 
BRANCH   4  10
HETATM   10  O1  UNL     1      22.107   2.640  50.335  1.00  0.00    -0.360 OA
HETATM   11  H6  UNL     1      21.337   3.283  50.223  1.00  0.00     0.217 HD
ENDBRANCH   4  10
ENDBRANCH   2   3
ENDBRANCH   1   2
BRANCH   1  12
HETATM   12  C8  UNL     1      25.895   2.188  50.768  1.00  0.00     0.164 C 
BRANCH  12  13
HETATM   13  C9  UNL     1      26.733   1.664  51.865  1.00  0.00    -0.040 A 
HETATM   14  C10 UNL     1      27.583   2.253  52.767  1.00  0.00     0.011 A 
HETATM   15  C11 UNL     1      28.237   1.494  53.712  1.00  0.00     0.037 A 
HETATM   16  C12 UNL     1      28.094   0.129  53.818  1.00  0.00     0.065 A 
HETATM   17  C13 UNL     1      27.243  -0.485  52.919  1.00  0.00     0.037 A 
HETATM   18  C14 UNL     1      26.575   0.274  51.956  1.00  0.00     0.011 A 
BRANCH  16  19
HETATM   19  O2  UNL     1      28.813  -0.513  54.817  1.00  0.00    -0.361 OA
HETATM   20  H13 UNL     1      29.769  -0.795  54.721  1.00  0.00     0.217 HD
ENDBRANCH  16  19
ENDBRANCH  12  13
ENDBRANCH   1  12
BRANCH   1  21
HETATM   21  C15 UNL     1      24.961   4.533  50.408  1.00  0.00     0.174 C 
HETATM   22  S1  UNL     1      24.038   5.732  51.046  1.00  0.00    -0.041 SA
BRANCH  21  23
HETATM   23  N2  UNL     1      25.541   4.944  49.185  1.00  0.00    -0.333 N 
HETATM   24  H16 UNL     1      24.822   4.588  48.522  1.00  0.00     0.168 HD
BRANCH  23  25
HETATM   25  C16 UNL     1      26.665   5.614  48.660  1.00  0.00     0.034 A 
HETATM   26  C17 UNL     1      26.657   6.897  48.170  1.00  0.00     0.029 A 
HETATM   27  C18 UNL     1      27.778   7.517  47.665  1.00  0.00     0.002 A 
HETATM   28  C19 UNL     1      28.897   6.722  47.702  1.00  0.00     0.000 A 
HETATM   29  C20 UNL     1      28.989   5.448  48.167  1.00  0.00     0.002 A 
HETATM   30  C21 UNL     1      27.842   4.881  48.659  1.00  0.00     0.029 A 
ENDBRANCH  23  25
ENDBRANCH  21  23
ENDBRANCH   1  21
TORSDOF 9
ENDMDL
MODEL 5
REMARK VINA RESULT:      -8.2      2.137      6.643
REMARK  9 active torsions:
REMARK  status: ('A' for Active; 'I' for Inactive)
REMARK    1  A    between atoms: C5_5  and  O1_6 
REMARK    2  A    between atoms: C6_7  and  C7_8 
REMARK    3  A    between atoms: C7_8  and  N1_9 
REMARK    4  A    between atoms: N1_9  and  C8_10 
REMARK    5  A    between atoms: N1_9  and  C15_18 
REMARK    6  A    between atoms: C8_10  and  C9_11 
REMARK    7  A    between atoms: C12_14  and  O2_15 
REMARK    8  A    between atoms: C15_18  and  N2_20 
REMARK    9  A    between atoms: N2_20  and  C16_21 
ROOT
HETATM    1  N1  UNL     1      24.310   2.114  52.599  1.00  0.00    -0.349 N 
ENDROOT
BRANCH   1   2
HETATM    2  C7  UNL     1      23.991   0.778  52.213  1.00  0.00     0.167 C 
BRANCH   2   3
HETATM    3  C6  UNL     1      22.726   0.237  52.703  1.00  0.00    -0.007 A 
HETATM    4  C5  UNL     1      22.661  -0.564  53.852  1.00  0.00     0.073 A 
HETATM    5  C4  UNL     1      21.495  -1.080  54.354  1.00  0.00     0.037 A 
HETATM    6  C3  UNL     1      20.291  -0.827  53.731  1.00  0.00     0.009 A 
HETATM    7  C2  UNL     1      20.278  -0.045  52.595  1.00  0.00    -0.061 A 
HETATM    8  C1  UNL     1      19.005   0.244  51.907  1.00  0.00     0.048 C 
HETATM    9  C22 UNL     1      21.481   0.440  52.146  1.00  0.00     0.018 A 
BRANCH   4  10
HETATM   10  O1  UNL     1      23.775  -0.897  54.571  1.00  0.00    -0.360 OA
HETATM   11  H6  UNL     1      24.664  -1.207  54.206  1.00  0.00     0.217 HD
ENDBRANCH   4  10
ENDBRANCH   2   3
ENDBRANCH   1   2
BRANCH   1  12
HETATM   12  C8  UNL     1      25.038   2.368  53.823  1.00  0.00     0.164 C 
BRANCH  12  13
HETATM   13  C9  UNL     1      26.346   1.689  53.907  1.00  0.00    -0.040 A 
HETATM   14  C10 UNL     1      26.781   0.553  54.542  1.00  0.00     0.011 A 
HETATM   15  C11 UNL     1      28.092   0.145  54.428  1.00  0.00     0.037 A 
HETATM   16  C12 UNL     1      29.036   0.826  53.693  1.00  0.00     0.065 A 
HETATM   17  C13 UNL     1      28.619   1.974  53.046  1.00  0.00     0.037 A 
HETATM   18  C14 UNL     1      27.294   2.398  53.154  1.00  0.00     0.011 A 
BRANCH  16  19
HETATM   19  O2  UNL     1      30.322   0.303  53.663  1.00  0.00    -0.361 OA
HETATM   20  H13 UNL     1      30.524  -0.670  53.547  1.00  0.00     0.217 HD
ENDBRANCH  16  19
ENDBRANCH  12  13
ENDBRANCH   1  12
BRANCH   1  21
HETATM   21  C15 UNL     1      23.880   3.158  51.692  1.00  0.00     0.174 C 
HETATM   22  S1  UNL     1      22.639   4.116  52.180  1.00  0.00    -0.041 SA
BRANCH  21  23
HETATM   23  N2  UNL     1      24.327   3.535  50.405  1.00  0.00    -0.333 N 
HETATM   24  H16 UNL     1      23.603   3.064  49.823  1.00  0.00     0.168 HD
BRANCH  23  25
HETATM   25  C16 UNL     1      25.336   4.272  49.751  1.00  0.00     0.034 A 
HETATM   26  C17 UNL     1      26.599   3.806  49.480  1.00  0.00     0.029 A 
HETATM   27  C18 UNL     1      27.557   4.560  48.839  1.00  0.00     0.002 A 
HETATM   28  C19 UNL     1      27.120   5.817  48.501  1.00  0.00     0.000 A 
HETATM   29  C20 UNL     1      25.892   6.352  48.732  1.00  0.00     0.002 A 
HETATM   30  C21 UNL     1      24.977   5.558  49.375  1.00  0.00     0.029 A 
ENDBRANCH  23  25
ENDBRANCH  21  23
ENDBRANCH   1  21
TORSDOF 9
ENDMDL
MODEL 6
REMARK VINA RESULT:      -8.1      2.093      4.610
REMARK  9 active torsions:
REMARK  status: ('A' for Active; 'I' for Inactive)
REMARK    1  A    between atoms: C5_5  and  O1_6 
REMARK    2  A    between atoms: C6_7  and  C7_8 
REMARK    3  A    between atoms: C7_8  and  N1_9 
REMARK    4  A    between atoms: N1_9  and  C8_10 
REMARK    5  A    between atoms: N1_9  and  C15_18 
REMARK    6  A    between atoms: C8_10  and  C9_11 
REMARK    7  A    between atoms: C12_14  and  O2_15 
REMARK    8  A    between atoms: C15_18  and  N2_20 
REMARK    9  A    between atoms: N2_20  and  C16_21 
ROOT
HETATM    1  N1  UNL     1      23.309   2.871  51.020  1.00  0.00    -0.349 N 
ENDROOT
BRANCH   1   2
HETATM    2  C7  UNL     1      23.891   2.886  49.719  1.00  0.00     0.167 C 
BRANCH   2   3
HETATM    3  C6  UNL     1      24.588   4.107  49.323  1.00  0.00    -0.007 A 
HETATM    4  C5  UNL     1      25.986   4.201  49.352  1.00  0.00     0.073 A 
HETATM    5  C4  UNL     1      26.681   5.321  48.977  1.00  0.00     0.037 A 
HETATM    6  C3  UNL     1      26.014   6.445  48.537  1.00  0.00     0.009 A 
HETATM    7  C2  UNL     1      24.637   6.424  48.481  1.00  0.00    -0.061 A 
HETATM    8  C1  UNL     1      23.895   7.612  48.014  1.00  0.00     0.048 C 
HETATM    9  C22 UNL     1      24.003   5.271  48.871  1.00  0.00     0.018 A 
BRANCH   4  10
HETATM   10  O1  UNL     1      26.777   3.165  49.766  1.00  0.00    -0.360 OA
HETATM   11  H6  UNL     1      26.997   2.910  50.719  1.00  0.00     0.217 HD
ENDBRANCH   4  10
ENDBRANCH   2   3
ENDBRANCH   1   2
BRANCH   1  12
HETATM   12  C8  UNL     1      21.968   2.365  51.217  1.00  0.00     0.164 C 
BRANCH  12  13
HETATM   13  C9  UNL     1      21.880   1.209  52.131  1.00  0.00    -0.040 A 
HETATM   14  C10 UNL     1      22.649   0.087  52.310  1.00  0.00     0.011 A 
HETATM   15  C11 UNL     1      22.321  -0.840  53.276  1.00  0.00     0.037 A 
HETATM   16  C12 UNL     1      21.233  -0.714  54.108  1.00  0.00     0.065 A 
HETATM   17  C13 UNL     1      20.444   0.410  53.945  1.00  0.00     0.037 A 
HETATM   18  C14 UNL     1      20.765   1.356  52.969  1.00  0.00     0.011 A 
BRANCH  16  19
HETATM   19  O2  UNL     1      21.019  -1.722  55.039  1.00  0.00    -0.361 OA
HETATM   20  H13 UNL     1      20.166  -2.241  55.110  1.00  0.00     0.217 HD
ENDBRANCH  16  19
ENDBRANCH  12  13
ENDBRANCH   1  12
BRANCH   1  21
HETATM   21  C15 UNL     1      24.142   3.369  52.096  1.00  0.00     0.174 C 
HETATM   22  S1  UNL     1      23.688   4.774  52.813  1.00  0.00    -0.041 SA
BRANCH  21  23
HETATM   23  N2  UNL     1      25.331   2.872  52.677  1.00  0.00    -0.333 N 
HETATM   24  H16 UNL     1      25.757   3.766  52.998  1.00  0.00     0.168 HD
BRANCH  23  25
HETATM   25  C16 UNL     1      26.027   1.671  52.927  1.00  0.00     0.034 A 
HETATM   26  C17 UNL     1      26.225   0.671  52.007  1.00  0.00     0.029 A 
HETATM   27  C18 UNL     1      26.911  -0.488  52.292  1.00  0.00     0.002 A 
HETATM   28  C19 UNL     1      27.374  -0.539  53.584  1.00  0.00     0.000 A 
HETATM   29  C20 UNL     1      27.222   0.403  54.552  1.00  0.00     0.002 A 
HETATM   30  C21 UNL     1      26.529   1.537  54.213  1.00  0.00     0.029 A 
ENDBRANCH  23  25
ENDBRANCH  21  23
ENDBRANCH   1  21
TORSDOF 9
ENDMDL
MODEL 7
REMARK VINA RESULT:      -8.1      2.699      6.080
REMARK  9 active torsions:
REMARK  status: ('A' for Active; 'I' for Inactive)
REMARK    1  A    between atoms: C5_5  and  O1_6 
REMARK    2  A    between atoms: C6_7  and  C7_8 
REMARK    3  A    between atoms: C7_8  and  N1_9 
REMARK    4  A    between atoms: N1_9  and  C8_10 
REMARK    5  A    between atoms: N1_9  and  C15_18 
REMARK    6  A    between atoms: C8_10  and  C9_11 
REMARK    7  A    between atoms: C12_14  and  O2_15 
REMARK    8  A    between atoms: C15_18  and  N2_20 
REMARK    9  A    between atoms: N2_20  and  C16_21 
ROOT
HETATM    1  N1  UNL     1      24.828  -0.016  53.297  1.00  0.00    -0.349 N 
ENDROOT
BRANCH   1   2
HETATM    2  C7  UNL     1      25.762  -0.987  52.830  1.00  0.00     0.167 C 
BRANCH   2   3
HETATM    3  C6  UNL     1      27.163  -0.777  53.185  1.00  0.00    -0.007 A 
HETATM    4  C5  UNL     1      28.108  -1.809  53.106  1.00  0.00     0.073 A 
HETATM    5  C4  UNL     1      29.433  -1.652  53.414  1.00  0.00     0.037 A 
HETATM    6  C3  UNL     1      29.917  -0.430  53.831  1.00  0.00     0.009 A 
HETATM    7  C2  UNL     1      29.044   0.633  53.932  1.00  0.00    -0.061 A 
HETATM    8  C1  UNL     1      29.531   1.955  54.374  1.00  0.00     0.048 C 
HETATM    9  C22 UNL     1      27.730   0.408  53.607  1.00  0.00     0.018 A 
BRANCH   4  10
HETATM   10  O1  UNL     1      27.772  -3.074  52.708  1.00  0.00    -0.360 OA
HETATM   11  H6  UNL     1      28.378  -3.756  52.276  1.00  0.00     0.217 HD
ENDBRANCH   4  10
ENDBRANCH   2   3
ENDBRANCH   1   2
BRANCH   1  12
HETATM   12  C8  UNL     1      25.204   1.378  53.386  1.00  0.00     0.164 C 
BRANCH  12  13
HETATM   13  C9  UNL     1      24.520   2.257  52.417  1.00  0.00    -0.040 A 
HETATM   14  C10 UNL     1      24.302   2.183  51.065  1.00  0.00     0.011 A 
HETATM   15  C11 UNL     1      23.599   3.173  50.413  1.00  0.00     0.037 A 
HETATM   16  C12 UNL     1      23.081   4.277  51.049  1.00  0.00     0.065 A 
HETATM   17  C13 UNL     1      23.289   4.373  52.412  1.00  0.00     0.037 A 
HETATM   18  C14 UNL     1      24.000   3.376  53.084  1.00  0.00     0.011 A 
BRANCH  16  19
HETATM   19  O2  UNL     1      22.393   5.200  50.270  1.00  0.00    -0.361 OA
HETATM   20  H13 UNL     1      21.436   5.094  49.999  1.00  0.00     0.217 HD
ENDBRANCH  16  19
ENDBRANCH  12  13
ENDBRANCH   1  12
BRANCH   1  21
HETATM   21  C15 UNL     1      23.514  -0.514  53.647  1.00  0.00     0.174 C 
HETATM   22  S1  UNL     1      23.354  -1.267  55.097  1.00  0.00    -0.041 SA
BRANCH  21  23
HETATM   23  N2  UNL     1      22.280  -0.490  52.957  1.00  0.00    -0.333 N 
HETATM   24  H16 UNL     1      21.978  -1.476  53.103  1.00  0.00     0.168 HD
BRANCH  23  25
HETATM   25  C16 UNL     1      21.435   0.367  52.222  1.00  0.00     0.034 A 
HETATM   26  C17 UNL     1      21.149   0.233  50.885  1.00  0.00     0.029 A 
HETATM   27  C18 UNL     1      20.318   1.093  50.204  1.00  0.00     0.002 A 
HETATM   28  C19 UNL     1      19.807   2.092  50.995  1.00  0.00     0.000 A 
HETATM   29  C20 UNL     1      20.039   2.295  52.319  1.00  0.00     0.002 A 
HETATM   30  C21 UNL     1      20.875   1.408  52.948  1.00  0.00     0.029 A 
ENDBRANCH  23  25
ENDBRANCH  21  23
ENDBRANCH   1  21
TORSDOF 9
ENDMDL
MODEL 8
REMARK VINA RESULT:      -8.1      2.381      3.055
REMARK  9 active torsions:
REMARK  status: ('A' for Active; 'I' for Inactive)
REMARK    1  A    between atoms: C5_5  and  O1_6 
REMARK    2  A    between atoms: C6_7  and  C7_8 
REMARK    3  A    between atoms: C7_8  and  N1_9 
REMARK    4  A    between atoms: N1_9  and  C8_10 
REMARK    5  A    between atoms: N1_9  and  C15_18 
REMARK    6  A    between atoms: C8_10  and  C9_11 
REMARK    7  A    between atoms: C12_14  and  O2_15 
REMARK    8  A    between atoms: C15_18  and  N2_20 
REMARK    9  A    between atoms: N2_20  and  C16_21 
ROOT
HETATM    1  N1  UNL     1      23.680   3.144  50.879  1.00  0.00    -0.349 N 
ENDROOT
BRANCH   1   2
HETATM    2  C7  UNL     1      23.101   4.378  51.298  1.00  0.00     0.167 C 
BRANCH   2   3
HETATM    3  C6  UNL     1      23.474   5.571  50.541  1.00  0.00    -0.007 A 
HETATM    4  C5  UNL     1      24.104   6.665  51.151  1.00  0.00     0.073 A 
HETATM    5  C4  UNL     1      24.484   7.796  50.478  1.00  0.00     0.037 A 
HETATM    6  C3  UNL     1      24.257   7.915  49.123  1.00  0.00     0.009 A 
HETATM    7  C2  UNL     1      23.642   6.876  48.456  1.00  0.00    -0.061 A 
HETATM    8  C1  UNL     1      23.387   6.974  47.005  1.00  0.00     0.048 C 
HETATM    9  C22 UNL     1      23.288   5.772  49.190  1.00  0.00     0.018 A 
BRANCH   4  10
HETATM   10  O1  UNL     1      24.391   6.687  52.489  1.00  0.00    -0.360 OA
HETATM   11  H6  UNL     1      25.033   6.084  52.983  1.00  0.00     0.217 HD
ENDBRANCH   4  10
ENDBRANCH   2   3
ENDBRANCH   1   2
BRANCH   1  12
HETATM   12  C8  UNL     1      25.116   2.968  50.892  1.00  0.00     0.164 C 
BRANCH  12  13
HETATM   13  C9  UNL     1      25.623   2.176  52.031  1.00  0.00    -0.040 A 
HETATM   14  C10 UNL     1      25.526   2.312  53.392  1.00  0.00     0.011 A 
HETATM   15  C11 UNL     1      26.105   1.385  54.232  1.00  0.00     0.037 A 
HETATM   16  C12 UNL     1      26.804   0.289  53.782  1.00  0.00     0.065 A 
HETATM   17  C13 UNL     1      26.915   0.133  52.413  1.00  0.00     0.037 A 
HETATM   18  C14 UNL     1      26.332   1.065  51.552  1.00  0.00     0.011 A 
BRANCH  16  19
HETATM   19  O2  UNL     1      27.337  -0.566  54.737  1.00  0.00    -0.361 OA
HETATM   20  H13 UNL     1      28.220  -1.028  54.640  1.00  0.00     0.217 HD
ENDBRANCH  16  19
ENDBRANCH  12  13
ENDBRANCH   1  12
BRANCH   1  21
HETATM   21  C15 UNL     1      22.751   2.111  50.470  1.00  0.00     0.174 C 
HETATM   22  S1  UNL     1      22.308   2.078  48.889  1.00  0.00    -0.041 SA
BRANCH  21  23
HETATM   23  N2  UNL     1      22.109   1.079  51.191  1.00  0.00    -0.333 N 
HETATM   24  H16 UNL     1      21.482   0.709  50.447  1.00  0.00     0.168 HD
BRANCH  23  25
HETATM   25  C16 UNL     1      22.070   0.471  52.463  1.00  0.00     0.034 A 
HETATM   26  C17 UNL     1      23.044  -0.354  52.970  1.00  0.00     0.029 A 
HETATM   27  C18 UNL     1      22.968  -0.928  54.219  1.00  0.00     0.002 A 
HETATM   28  C19 UNL     1      21.825  -0.591  54.901  1.00  0.00     0.000 A 
HETATM   29  C20 UNL     1      20.817   0.214  54.473  1.00  0.00     0.002 A 
HETATM   30  C21 UNL     1      20.944   0.759  53.221  1.00  0.00     0.029 A 
ENDBRANCH  23  25
ENDBRANCH  21  23
ENDBRANCH   1  21
TORSDOF 9
ENDMDL
MODEL 9
REMARK VINA RESULT:      -7.9      2.573      7.057
REMARK  9 active torsions:
REMARK  status: ('A' for Active; 'I' for Inactive)
REMARK    1  A    between atoms: C5_5  and  O1_6 
REMARK    2  A    between atoms: C6_7  and  C7_8 
REMARK    3  A    between atoms: C7_8  and  N1_9 
REMARK    4  A    between atoms: N1_9  and  C8_10 
REMARK    5  A    between atoms: N1_9  and  C15_18 
REMARK    6  A    between atoms: C8_10  and  C9_11 
REMARK    7  A    between atoms: C12_14  and  O2_15 
REMARK    8  A    between atoms: C15_18  and  N2_20 
REMARK    9  A    between atoms: N2_20  and  C16_21 
ROOT
HETATM    1  N1  UNL     1      22.222   2.398  51.564  1.00  0.00    -0.349 N 
ENDROOT
BRANCH   1   2
HETATM    2  C7  UNL     1      21.219   2.367  52.578  1.00  0.00     0.167 C 
BRANCH   2   3
HETATM    3  C6  UNL     1      20.266   1.261  52.528  1.00  0.00    -0.007 A 
HETATM    4  C5  UNL     1      20.246   0.259  53.508  1.00  0.00     0.073 A 
HETATM    5  C4  UNL     1      19.361  -0.787  53.508  1.00  0.00     0.037 A 
HETATM    6  C3  UNL     1      18.417  -0.907  52.510  1.00  0.00     0.009 A 
HETATM    7  C2  UNL     1      18.377   0.044  51.511  1.00  0.00    -0.061 A 
HETATM    8  C1  UNL     1      17.378  -0.057  50.430  1.00  0.00     0.048 C 
HETATM    9  C22 UNL     1      19.292   1.065  51.572  1.00  0.00     0.018 A 
BRANCH   4  10
HETATM   10  O1  UNL     1      21.123   0.249  54.557  1.00  0.00    -0.360 OA
HETATM   11  H6  UNL     1      21.086  -0.341  55.375  1.00  0.00     0.217 HD
ENDBRANCH   4  10
ENDBRANCH   2   3
ENDBRANCH   1   2
BRANCH   1  12
HETATM   12  C8  UNL     1      23.150   1.298  51.420  1.00  0.00     0.164 C 
BRANCH  12  13
HETATM   13  C9  UNL     1      24.254   1.299  52.400  1.00  0.00    -0.040 A 
HETATM   14  C10 UNL     1      25.091   2.276  52.878  1.00  0.00     0.011 A 
HETATM   15  C11 UNL     1      26.046   1.978  53.825  1.00  0.00     0.037 A 
HETATM   16  C12 UNL     1      26.228   0.717  54.347  1.00  0.00     0.065 A 
HETATM   17  C13 UNL     1      25.396  -0.282  53.879  1.00  0.00     0.037 A 
HETATM   18  C14 UNL     1      24.425   0.007  52.918  1.00  0.00     0.011 A 
BRANCH  16  19
HETATM   19  O2  UNL     1      27.229   0.556  55.296  1.00  0.00    -0.361 OA
HETATM   20  H13 UNL     1      27.857  -0.223  55.315  1.00  0.00     0.217 HD
ENDBRANCH  16  19
ENDBRANCH  12  13
ENDBRANCH   1  12
BRANCH   1  21
HETATM   21  C15 UNL     1      22.227   3.566  50.709  1.00  0.00     0.174 C 
HETATM   22  S1  UNL     1      21.024   4.663  50.923  1.00  0.00    -0.041 SA
BRANCH  21  23
HETATM   23  N2  UNL     1      23.094   3.971  49.668  1.00  0.00    -0.333 N 
HETATM   24  H16 UNL     1      22.420   3.989  48.875  1.00  0.00     0.168 HD
BRANCH  23  25
HETATM   25  C16 UNL     1      24.436   4.321  49.414  1.00  0.00     0.034 A 
HETATM   26  C17 UNL     1      25.509   3.476  49.555  1.00  0.00     0.029 A 
HETATM   27  C18 UNL     1      26.807   3.857  49.297  1.00  0.00     0.002 A 
HETATM   28  C19 UNL     1      26.915   5.162  48.886  1.00  0.00     0.000 A 
HETATM   29  C20 UNL     1      25.908   6.061  48.722  1.00  0.00     0.002 A 
HETATM   30  C21 UNL     1      24.636   5.628  48.994  1.00  0.00     0.029 A 
ENDBRANCH  23  25
ENDBRANCH  21  23
ENDBRANCH   1  21
TORSDOF 9
ENDMDL
