MODEL 1
REMARK VINA RESULT:      -7.4      0.000      0.000
REMARK  4 active torsions:
REMARK  status: ('A' for Active; 'I' for Inactive)
REMARK    1  A    between atoms: N1_2  and  C2_3 
REMARK    2  A    between atoms: C2_3  and  C3_4 
REMARK    3  A    between atoms: C3_4  and  C4_5 
REMARK    4  A    between atoms: C9_11  and  C10_12 
REMARK       I    between atoms: C10_12  and  N3_13 
ROOT
HETATM    1  C4  UNL     1      22.797   0.184  53.315  1.00  0.00    -0.022 C 
HETATM    2  C5  UNL     1      23.925  -0.495  53.714  1.00  0.00     0.170 C 
HETATM    3  N2  UNL     1      25.091  -0.942  54.209  1.00  0.00    -0.289 NA
HETATM    4  C6  UNL     1      26.170  -1.142  53.426  1.00  0.00     0.111 C 
HETATM    5  C7  UNL     1      26.635  -0.811  52.174  1.00  0.00     0.020 C 
HETATM    6  C8  UNL     1      26.781   0.485  51.787  1.00  0.00     0.018 C 
HETATM    7  C9  UNL     1      26.113   1.585  52.277  1.00  0.00     0.032 C 
HETATM    8  C11 UNL     1      24.898   2.169  51.984  1.00  0.00     0.031 C 
HETATM    9  C12 UNL     1      23.693   1.675  51.522  1.00  0.00     0.004 A 
HETATM   10  C13 UNL     1      22.743   0.810  52.062  1.00  0.00    -0.013 A 
HETATM   11  C14 UNL     1      21.859   0.803  51.047  1.00  0.00     0.044 A 
HETATM   12  C15 UNL     1      22.772   1.720  50.365  1.00  0.00     0.060 A 
HETATM   13  N4  UNL     1      22.713   2.302  49.192  1.00  0.00    -0.299 NA
HETATM   14  H14 UNL     1      23.516   2.920  48.956  1.00  0.00     0.187 HD
ENDROOT
BRANCH   7  15
HETATM   15  C10 UNL     1      26.925   2.205  53.317  1.00  0.00     0.249 C 
HETATM   16  N3  UNL     1      28.209   2.811  53.179  1.00  0.00    -0.366 N 
HETATM   17  H10 UNL     1      28.444   3.775  53.528  1.00  0.00     0.159 HD
HETATM   18  H11 UNL     1      28.752   2.070  52.684  1.00  0.00     0.159 HD
HETATM   19  O1  UNL     1      26.426   2.198  54.464  1.00  0.00    -0.268 OA
ENDBRANCH   7  15
BRANCH   1  20
HETATM   20  C3  UNL     1      21.781   0.199  54.192  1.00  0.00     0.005 C 
BRANCH  20  21
HETATM   21  C2  UNL     1      21.346  -1.161  54.594  1.00  0.00     0.175 C 
BRANCH  21  22
HETATM   22  N1  UNL     1      20.197  -1.569  53.842  1.00  0.00    -0.309 NA
HETATM   23  C1  UNL     1      19.313  -0.740  53.419  1.00  0.00     0.142 C 
ENDBRANCH  21  22
ENDBRANCH  20  21
ENDBRANCH   1  20
TORSDOF 4
ENDMDL
MODEL 2
REMARK VINA RESULT:      -7.2      2.557      5.539
REMARK  4 active torsions:
REMARK  status: ('A' for Active; 'I' for Inactive)
REMARK    1  A    between atoms: N1_2  and  C2_3 
REMARK    2  A    between atoms: C2_3  and  C3_4 
REMARK    3  A    between atoms: C3_4  and  C4_5 
REMARK    4  A    between atoms: C9_11  and  C10_12 
REMARK       I    between atoms: C10_12  and  N3_13 
ROOT
HETATM    1  C4  UNL     1      26.551   1.709  52.063  1.00  0.00    -0.022 C 
HETATM    2  C5  UNL     1      26.296   2.553  51.007  1.00  0.00     0.170 C 
HETATM    3  N2  UNL     1      25.995   3.545  50.152  1.00  0.00    -0.289 NA
HETATM    4  C6  UNL     1      24.834   3.570  49.468  1.00  0.00     0.111 C 
HETATM    5  C7  UNL     1      23.590   2.982  49.487  1.00  0.00     0.020 C 
HETATM    6  C8  UNL     1      22.778   3.067  50.575  1.00  0.00     0.018 C 
HETATM    7  C9  UNL     1      23.152   3.273  51.884  1.00  0.00     0.032 C 
HETATM    8  C11 UNL     1      23.567   2.435  52.898  1.00  0.00     0.031 C 
HETATM    9  C12 UNL     1      24.253   1.235  52.918  1.00  0.00     0.004 A 
HETATM   10  C13 UNL     1      25.549   0.867  52.566  1.00  0.00    -0.013 A 
HETATM   11  C14 UNL     1      25.486  -0.445  52.855  1.00  0.00     0.044 A 
HETATM   12  C15 UNL     1      24.103  -0.197  53.260  1.00  0.00     0.060 A 
HETATM   13  N4  UNL     1      23.172  -0.992  53.730  1.00  0.00    -0.299 NA
HETATM   14  H14 UNL     1      22.259  -0.539  53.940  1.00  0.00     0.187 HD
ENDROOT
BRANCH   7  15
HETATM   15  C10 UNL     1      23.060   4.697  52.182  1.00  0.00     0.249 C 
HETATM   16  N3  UNL     1      24.064   5.539  52.744  1.00  0.00    -0.366 N 
HETATM   17  H10 UNL     1      24.367   6.454  52.323  1.00  0.00     0.159 HD
HETATM   18  H11 UNL     1      24.350   5.007  53.595  1.00  0.00     0.159 HD
HETATM   19  O1  UNL     1      21.965   5.234  51.905  1.00  0.00    -0.268 OA
ENDBRANCH   7  15
BRANCH   1  20
HETATM   20  C3  UNL     1      27.797   1.752  52.560  1.00  0.00     0.005 C 
BRANCH  20  21
HETATM   21  C2  UNL     1      27.854   2.335  53.924  1.00  0.00     0.175 C 
BRANCH  21  22
HETATM   22  N1  UNL     1      28.686   1.543  54.779  1.00  0.00    -0.309 NA
HETATM   23  C1  UNL     1      28.701   0.259  54.740  1.00  0.00     0.142 C 
ENDBRANCH  21  22
ENDBRANCH  20  21
ENDBRANCH   1  20
TORSDOF 4
ENDMDL
MODEL 3
REMARK VINA RESULT:      -7.1      2.478      5.733
REMARK  4 active torsions:
REMARK  status: ('A' for Active; 'I' for Inactive)
REMARK    1  A    between atoms: N1_2  and  C2_3 
REMARK    2  A    between atoms: C2_3  and  C3_4 
REMARK    3  A    between atoms: C3_4  and  C4_5 
REMARK    4  A    between atoms: C9_11  and  C10_12 
REMARK       I    between atoms: C10_12  and  N3_13 
ROOT
HETATM    1  C4  UNL     1      23.930   1.197  52.675  1.00  0.00    -0.022 C 
HETATM    2  C5  UNL     1      23.603   1.631  51.411  1.00  0.00     0.170 C 
HETATM    3  N2  UNL     1      23.178   2.247  50.295  1.00  0.00    -0.289 NA
HETATM    4  C6  UNL     1      22.117   1.802  49.593  1.00  0.00     0.111 C 
HETATM    5  C7  UNL     1      21.040   0.957  49.740  1.00  0.00     0.020 C 
HETATM    6  C8  UNL     1      20.121   1.137  50.727  1.00  0.00     0.018 C 
HETATM    7  C9  UNL     1      20.304   1.778  51.933  1.00  0.00     0.032 C 
HETATM    8  C11 UNL     1      20.790   1.377  53.159  1.00  0.00     0.031 C 
HETATM    9  C12 UNL     1      21.719   0.431  53.551  1.00  0.00     0.004 A 
HETATM   10  C13 UNL     1      23.094   0.307  53.366  1.00  0.00    -0.013 A 
HETATM   11  C14 UNL     1      23.296  -0.850  54.021  1.00  0.00     0.044 A 
HETATM   12  C15 UNL     1      21.858  -0.844  54.289  1.00  0.00     0.060 A 
HETATM   13  N4  UNL     1      21.085  -1.681  54.937  1.00  0.00    -0.299 NA
HETATM   14  H14 UNL     1      20.077  -1.423  54.975  1.00  0.00     0.187 HD
ENDROOT
BRANCH   7  15
HETATM   15  C10 UNL     1      19.868   3.163  51.801  1.00  0.00     0.249 C 
HETATM   16  N3  UNL     1      20.656   4.298  51.449  1.00  0.00    -0.366 N 
HETATM   17  H10 UNL     1      20.402   4.976  50.686  1.00  0.00     0.159 HD
HETATM   18  H11 UNL     1      21.454   4.229  52.117  1.00  0.00     0.159 HD
HETATM   19  O1  UNL     1      18.654   3.367  52.024  1.00  0.00    -0.268 OA
ENDBRANCH   7  15
BRANCH   1  20
HETATM   20  C3  UNL     1      25.077   1.675  53.181  1.00  0.00     0.005 C 
BRANCH  20  21
HETATM   21  C2  UNL     1      26.279   1.052  52.575  1.00  0.00     0.175 C 
BRANCH  21  22
HETATM   22  N1  UNL     1      26.822   0.050  53.442  1.00  0.00    -0.309 NA
HETATM   23  C1  UNL     1      26.904   0.202  54.714  1.00  0.00     0.142 C 
ENDBRANCH  21  22
ENDBRANCH  20  21
ENDBRANCH   1  20
TORSDOF 4
ENDMDL
MODEL 4
REMARK VINA RESULT:      -7.1      2.549      5.389
REMARK  4 active torsions:
REMARK  status: ('A' for Active; 'I' for Inactive)
REMARK    1  A    between atoms: N1_2  and  C2_3 
REMARK    2  A    between atoms: C2_3  and  C3_4 
REMARK    3  A    between atoms: C3_4  and  C4_5 
REMARK    4  A    between atoms: C9_11  and  C10_12 
REMARK       I    between atoms: C10_12  and  N3_13 
ROOT
HETATM    1  C4  UNL     1      24.660   0.499  52.949  1.00  0.00    -0.022 C 
HETATM    2  C5  UNL     1      23.678  -0.394  53.310  1.00  0.00     0.170 C 
HETATM    3  N2  UNL     1      22.658  -1.261  53.421  1.00  0.00    -0.289 NA
HETATM    4  C6  UNL     1      21.472  -0.906  53.954  1.00  0.00     0.111 C 
HETATM    5  C7  UNL     1      20.763   0.228  54.277  1.00  0.00     0.020 C 
HETATM    6  C8  UNL     1      20.453   1.166  53.341  1.00  0.00     0.018 C 
HETATM    7  C9  UNL     1      21.116   1.422  52.161  1.00  0.00     0.032 C 
HETATM    8  C11 UNL     1      22.210   2.194  51.833  1.00  0.00     0.031 C 
HETATM    9  C12 UNL     1      23.344   2.578  52.523  1.00  0.00     0.004 A 
HETATM   10  C13 UNL     1      24.438   1.881  53.030  1.00  0.00    -0.013 A 
HETATM   11  C14 UNL     1      25.120   2.910  53.564  1.00  0.00     0.044 A 
HETATM   12  C15 UNL     1      24.033   3.762  53.083  1.00  0.00     0.060 A 
HETATM   13  N4  UNL     1      23.834   5.055  53.163  1.00  0.00    -0.299 NA
HETATM   14  H14 UNL     1      22.957   5.403  52.723  1.00  0.00     0.187 HD
ENDROOT
BRANCH   7  15
HETATM   15  C10 UNL     1      20.463   0.686  51.086  1.00  0.00     0.249 C 
HETATM   16  N3  UNL     1      19.089   0.318  50.987  1.00  0.00    -0.366 N 
HETATM   17  H10 UNL     1      18.486   0.515  50.148  1.00  0.00     0.159 HD
HETATM   18  H11 UNL     1      18.918  -0.149  51.904  1.00  0.00     0.159 HD
HETATM   19  O1  UNL     1      21.207   0.342  50.140  1.00  0.00    -0.268 OA
ENDBRANCH   7  15
BRANCH   1  20
HETATM   20  C3  UNL     1      25.815  -0.039  52.527  1.00  0.00     0.005 C 
BRANCH  20  21
HETATM   21  C2  UNL     1      26.387  -1.008  53.495  1.00  0.00     0.175 C 
BRANCH  21  22
HETATM   22  N1  UNL     1      26.959  -0.326  54.617  1.00  0.00    -0.309 NA
HETATM   23  C1  UNL     1      28.153   0.147  54.608  1.00  0.00     0.142 C 
ENDBRANCH  21  22
ENDBRANCH  20  21
ENDBRANCH   1  20
TORSDOF 4
ENDMDL
MODEL 5
REMARK VINA RESULT:      -6.8      1.866      3.787
REMARK  4 active torsions:
REMARK  status: ('A' for Active; 'I' for Inactive)
REMARK    1  A    between atoms: N1_2  and  C2_3 
REMARK    2  A    between atoms: C2_3  and  C3_4 
REMARK    3  A    between atoms: C3_4  and  C4_5 
REMARK    4  A    between atoms: C9_11  and  C10_12 
REMARK       I    between atoms: C10_12  and  N3_13 
ROOT
HETATM    1  C4  UNL     1      21.930   0.557  51.997  1.00  0.00    -0.022 C 
HETATM    2  C5  UNL     1      22.513   1.777  51.743  1.00  0.00     0.170 C 
HETATM    3  N2  UNL     1      23.252   2.836  51.370  1.00  0.00    -0.289 NA
HETATM    4  C6  UNL     1      24.065   3.479  52.231  1.00  0.00     0.111 C 
HETATM    5  C7  UNL     1      24.650   3.292  53.463  1.00  0.00     0.020 C 
HETATM    6  C8  UNL     1      25.473   2.237  53.708  1.00  0.00     0.018 C 
HETATM    7  C9  UNL     1      25.493   1.022  53.058  1.00  0.00     0.032 C 
HETATM    8  C11 UNL     1      24.784  -0.151  53.213  1.00  0.00     0.031 C 
HETATM    9  C12 UNL     1      23.508  -0.439  53.657  1.00  0.00     0.004 A 
HETATM   10  C13 UNL     1      22.236  -0.154  53.166  1.00  0.00    -0.013 A 
HETATM   11  C14 UNL     1      21.498  -0.748  54.122  1.00  0.00     0.044 A 
HETATM   12  C15 UNL     1      22.769  -1.115  54.747  1.00  0.00     0.060 A 
HETATM   13  N4  UNL     1      23.045  -1.781  55.841  1.00  0.00    -0.299 NA
HETATM   14  H14 UNL     1      24.058  -1.899  56.052  1.00  0.00     0.187 HD
ENDROOT
BRANCH   7  15
HETATM   15  C10 UNL     1      26.498   1.069  52.004  1.00  0.00     0.249 C 
HETATM   16  N3  UNL     1      26.552   1.952  50.885  1.00  0.00    -0.366 N 
HETATM   17  H10 UNL     1      27.398   2.521  50.626  1.00  0.00     0.159 HD
HETATM   18  H11 UNL     1      25.598   1.849  50.476  1.00  0.00     0.159 HD
HETATM   19  O1  UNL     1      27.420   0.229  52.103  1.00  0.00    -0.268 OA
ENDBRANCH   7  15
BRANCH   1  20
HETATM   20  C3  UNL     1      21.070   0.114  51.067  1.00  0.00     0.005 C 
BRANCH  20  21
HETATM   21  C2  UNL     1      19.882   0.990  50.915  1.00  0.00     0.175 C 
BRANCH  21  22
HETATM   22  N1  UNL     1      18.674   0.227  51.005  1.00  0.00    -0.309 NA
HETATM   23  C1  UNL     1      18.329  -0.406  52.068  1.00  0.00     0.142 C 
ENDBRANCH  21  22
ENDBRANCH  20  21
ENDBRANCH   1  20
TORSDOF 4
ENDMDL
MODEL 6
REMARK VINA RESULT:      -6.8      1.874      4.129
REMARK  4 active torsions:
REMARK  status: ('A' for Active; 'I' for Inactive)
REMARK    1  A    between atoms: N1_2  and  C2_3 
REMARK    2  A    between atoms: C2_3  and  C3_4 
REMARK    3  A    between atoms: C3_4  and  C4_5 
REMARK    4  A    between atoms: C9_11  and  C10_12 
REMARK       I    between atoms: C10_12  and  N3_13 
ROOT
HETATM    1  C4  UNL     1      23.122   1.405  51.506  1.00  0.00    -0.022 C 
HETATM    2  C5  UNL     1      24.365   1.988  51.581  1.00  0.00     0.170 C 
HETATM    3  N2  UNL     1      25.662   2.340  51.566  1.00  0.00    -0.289 NA
HETATM    4  C6  UNL     1      26.393   2.420  52.696  1.00  0.00     0.111 C 
HETATM    5  C7  UNL     1      26.343   2.016  54.010  1.00  0.00     0.020 C 
HETATM    6  C8  UNL     1      26.240   0.702  54.349  1.00  0.00     0.018 C 
HETATM    7  C9  UNL     1      25.715  -0.319  53.588  1.00  0.00     0.032 C 
HETATM    8  C11 UNL     1      24.437  -0.797  53.389  1.00  0.00     0.031 C 
HETATM    9  C12 UNL     1      23.187  -0.207  53.413  1.00  0.00     0.004 A 
HETATM   10  C13 UNL     1      22.568   0.754  52.617  1.00  0.00    -0.013 A 
HETATM   11  C14 UNL     1      21.378   0.816  53.243  1.00  0.00     0.044 A 
HETATM   12  C15 UNL     1      21.907  -0.199  54.155  1.00  0.00     0.060 A 
HETATM   13  N4  UNL     1      21.381  -0.803  55.192  1.00  0.00    -0.299 NA
HETATM   14  H14 UNL     1      21.994  -1.497  55.666  1.00  0.00     0.187 HD
ENDROOT
BRANCH   7  15
HETATM   15  C10 UNL     1      26.802  -0.983  52.878  1.00  0.00     0.249 C 
HETATM   16  N3  UNL     1      27.893  -1.713  53.435  1.00  0.00    -0.366 N 
HETATM   17  H10 UNL     1      28.163  -2.684  53.136  1.00  0.00     0.159 HD
HETATM   18  H11 UNL     1      28.273  -1.042  54.138  1.00  0.00     0.159 HD
HETATM   19  O1  UNL     1      26.760  -0.896  51.631  1.00  0.00    -0.268 OA
ENDBRANCH   7  15
BRANCH   1  20
HETATM   20  C3  UNL     1      22.497   1.505  50.323  1.00  0.00     0.005 C 
BRANCH  20  21
HETATM   21  C2  UNL     1      22.250   2.911  49.918  1.00  0.00     0.175 C 
BRANCH  21  22
HETATM   22  N1  UNL     1      21.158   3.467  50.660  1.00  0.00    -0.309 NA
HETATM   23  C1  UNL     1      21.126   4.694  51.036  1.00  0.00     0.142 C 
ENDBRANCH  21  22
ENDBRANCH  20  21
ENDBRANCH   1  20
TORSDOF 4
ENDMDL
MODEL 7
REMARK VINA RESULT:      -6.7      2.597      3.658
REMARK  4 active torsions:
REMARK  status: ('A' for Active; 'I' for Inactive)
REMARK    1  A    between atoms: N1_2  and  C2_3 
REMARK    2  A    between atoms: C2_3  and  C3_4 
REMARK    3  A    between atoms: C3_4  and  C4_5 
REMARK    4  A    between atoms: C9_11  and  C10_12 
REMARK       I    between atoms: C10_12  and  N3_13 
ROOT
HETATM    1  C4  UNL     1      24.001   2.285  51.938  1.00  0.00    -0.022 C 
HETATM    2  C5  UNL     1      24.124   1.051  52.536  1.00  0.00     0.170 C 
HETATM    3  N2  UNL     1      24.353  -0.027  53.304  1.00  0.00    -0.289 NA
HETATM    4  C6  UNL     1      25.334  -0.908  53.023  1.00  0.00     0.111 C 
HETATM    5  C7  UNL     1      26.470  -1.005  52.253  1.00  0.00     0.020 C 
HETATM    6  C8  UNL     1      27.503  -0.130  52.392  1.00  0.00     0.018 C 
HETATM    7  C9  UNL     1      27.448   1.158  52.878  1.00  0.00     0.032 C 
HETATM    8  C11 UNL     1      27.160   2.379  52.305  1.00  0.00     0.031 C 
HETATM    9  C12 UNL     1      26.353   2.769  51.253  1.00  0.00     0.004 A 
HETATM   10  C13 UNL     1      24.976   2.749  51.044  1.00  0.00    -0.013 A 
HETATM   11  C14 UNL     1      24.938   3.279  49.809  1.00  0.00     0.044 A 
HETATM   12  C15 UNL     1      26.396   3.358  49.896  1.00  0.00     0.060 A 
HETATM   13  N4  UNL     1      27.301   3.795  49.054  1.00  0.00    -0.299 NA
HETATM   14  H14 UNL     1      28.287   3.734  49.383  1.00  0.00     0.187 HD
ENDROOT
BRANCH   7  15
HETATM   15  C10 UNL     1      27.776   1.140  54.298  1.00  0.00     0.249 C 
HETATM   16  N3  UNL     1      26.960   0.690  55.378  1.00  0.00    -0.366 N 
HETATM   17  H10 UNL     1      27.277   0.001  56.106  1.00  0.00     0.159 HD
HETATM   18  H11 UNL     1      26.070   1.211  55.216  1.00  0.00     0.159 HD
HETATM   19  O1  UNL     1      28.912   1.572  54.593  1.00  0.00    -0.268 OA
ENDBRANCH   7  15
BRANCH   1  20
HETATM   20  C3  UNL     1      22.906   2.988  52.267  1.00  0.00     0.005 C 
BRANCH  20  21
HETATM   21  C2  UNL     1      23.213   4.392  52.639  1.00  0.00     0.175 C 
BRANCH  21  22
HETATM   22  N1  UNL     1      22.433   5.305  51.858  1.00  0.00    -0.309 NA
HETATM   23  C1  UNL     1      21.449   4.928  51.125  1.00  0.00     0.142 C 
ENDBRANCH  21  22
ENDBRANCH  20  21
ENDBRANCH   1  20
TORSDOF 4
ENDMDL
MODEL 8
REMARK VINA RESULT:      -6.6      2.635      5.622
REMARK  4 active torsions:
REMARK  status: ('A' for Active; 'I' for Inactive)
REMARK    1  A    between atoms: N1_2  and  C2_3 
REMARK    2  A    between atoms: C2_3  and  C3_4 
REMARK    3  A    between atoms: C3_4  and  C4_5 
REMARK    4  A    between atoms: C9_11  and  C10_12 
REMARK       I    between atoms: C10_12  and  N3_13 
ROOT
HETATM    1  C4  UNL     1      23.368   3.260  52.388  1.00  0.00    -0.022 C 
HETATM    2  C5  UNL     1      22.060   2.876  52.200  1.00  0.00     0.170 C 
HETATM    3  N2  UNL     1      20.787   2.453  52.261  1.00  0.00    -0.289 NA
HETATM    4  C6  UNL     1      20.412   1.245  51.794  1.00  0.00     0.111 C 
HETATM    5  C7  UNL     1      20.971   0.045  51.418  1.00  0.00     0.020 C 
HETATM    6  C8  UNL     1      21.728  -0.690  52.278  1.00  0.00     0.018 C 
HETATM    7  C9  UNL     1      22.436  -0.234  53.368  1.00  0.00     0.032 C 
HETATM    8  C11 UNL     1      23.695   0.306  53.527  1.00  0.00     0.031 C 
HETATM    9  C12 UNL     1      24.514   1.064  52.711  1.00  0.00     0.004 A 
HETATM   10  C13 UNL     1      24.417   2.351  52.188  1.00  0.00    -0.013 A 
HETATM   11  C14 UNL     1      25.572   2.391  51.500  1.00  0.00     0.044 A 
HETATM   12  C15 UNL     1      25.800   1.028  51.981  1.00  0.00     0.060 A 
HETATM   13  N4  UNL     1      26.786   0.185  51.788  1.00  0.00    -0.299 NA
HETATM   14  H14 UNL     1      26.688  -0.736  52.262  1.00  0.00     0.187 HD
ENDROOT
BRANCH   7  15
HETATM   15  C10 UNL     1      21.614  -0.390  54.562  1.00  0.00     0.249 C 
HETATM   16  N3  UNL     1      20.565   0.461  55.020  1.00  0.00    -0.366 N 
HETATM   17  H10 UNL     1      19.604   0.122  55.277  1.00  0.00     0.159 HD
HETATM   18  H11 UNL     1      21.022   1.399  55.012  1.00  0.00     0.159 HD
HETATM   19  O1  UNL     1      21.868  -1.397  55.261  1.00  0.00    -0.268 OA
ENDBRANCH   7  15
BRANCH   1  20
HETATM   20  C3  UNL     1      23.557   4.534  52.765  1.00  0.00     0.005 C 
BRANCH  20  21
HETATM   21  C2  UNL     1      22.963   5.510  51.819  1.00  0.00     0.175 C 
BRANCH  21  22
HETATM   22  N1  UNL     1      23.747   5.600  50.624  1.00  0.00    -0.309 NA
HETATM   23  C1  UNL     1      24.862   6.236  50.571  1.00  0.00     0.142 C 
ENDBRANCH  21  22
ENDBRANCH  20  21
ENDBRANCH   1  20
TORSDOF 4
ENDMDL
MODEL 9
REMARK VINA RESULT:      -6.5      2.649      3.599
REMARK  4 active torsions:
REMARK  status: ('A' for Active; 'I' for Inactive)
REMARK    1  A    between atoms: N1_2  and  C2_3 
REMARK    2  A    between atoms: C2_3  and  C3_4 
REMARK    3  A    between atoms: C3_4  and  C4_5 
REMARK    4  A    between atoms: C9_11  and  C10_12 
REMARK       I    between atoms: C10_12  and  N3_13 
ROOT
HETATM    1  C4  UNL     1      23.137   1.349  51.812  1.00  0.00    -0.022 C 
HETATM    2  C5  UNL     1      24.457   1.735  51.858  1.00  0.00     0.170 C 
HETATM    3  N2  UNL     1      25.656   2.323  52.001  1.00  0.00    -0.289 NA
HETATM    4  C6  UNL     1      26.333   2.829  50.952  1.00  0.00     0.111 C 
HETATM    5  C7  UNL     1      26.120   3.200  49.644  1.00  0.00     0.020 C 
HETATM    6  C8  UNL     1      25.196   4.143  49.311  1.00  0.00     0.018 C 
HETATM    7  C9  UNL     1      24.076   4.505  50.026  1.00  0.00     0.032 C 
HETATM    8  C11 UNL     1      22.792   4.008  50.099  1.00  0.00     0.031 C 
HETATM    9  C12 UNL     1      22.251   2.746  49.941  1.00  0.00     0.004 A 
HETATM   10  C13 UNL     1      22.369   1.557  50.657  1.00  0.00    -0.013 A 
HETATM   11  C14 UNL     1      21.566   0.777  49.912  1.00  0.00     0.044 A 
HETATM   12  C15 UNL     1      21.352   1.954  49.071  1.00  0.00     0.060 A 
HETATM   13  N4  UNL     1      20.632   2.140  47.992  1.00  0.00    -0.299 NA
HETATM   14  H14 UNL     1      20.663   3.100  47.591  1.00  0.00     0.187 HD
ENDROOT
BRANCH   7  15
HETATM   15  C10 UNL     1      24.399   5.663  50.851  1.00  0.00     0.249 C 
HETATM   16  N3  UNL     1      24.009   5.911  52.201  1.00  0.00    -0.366 N 
HETATM   17  H10 UNL     1      24.680   6.172  52.967  1.00  0.00     0.159 HD
HETATM   18  H11 UNL     1      22.976   5.766  52.163  1.00  0.00     0.159 HD
HETATM   19  O1  UNL     1      25.103   6.537  50.299  1.00  0.00    -0.268 OA
ENDBRANCH   7  15
BRANCH   1  20
HETATM   20  C3  UNL     1      22.655   0.772  52.924  1.00  0.00     0.005 C 
BRANCH  20  21
HETATM   21  C2  UNL     1      23.519  -0.325  53.426  1.00  0.00     0.175 C 
BRANCH  21  22
HETATM   22  N1  UNL     1      22.919  -0.965  54.558  1.00  0.00    -0.309 NA
HETATM   23  C1  UNL     1      21.693  -1.344  54.573  1.00  0.00     0.142 C 
ENDBRANCH  21  22
ENDBRANCH  20  21
ENDBRANCH   1  20
TORSDOF 4
ENDMDL
