MODEL 1
REMARK VINA RESULT:      -8.2      0.000      0.000
REMARK  7 active torsions:
REMARK  status: ('A' for Active; 'I' for Inactive)
REMARK    1  A    between atoms: C3_3  and  C4_4 
REMARK    2  A    between atoms: C3_3  and  C15_18 
REMARK    3  A    between atoms: C4_4  and  C5_5 
REMARK    4  A    between atoms: C5_5  and  C6_6 
REMARK    5  A    between atoms: C6_6  and  C7_7 
REMARK    6  A    between atoms: C11_11  and  C12_12 
REMARK    7  A    between atoms: C12_12  and  C14_15 
REMARK       I    between atoms: C14_15  and  N2_16 
ROOT
HETATM    1  C12 UNL     1      23.480  -0.376  53.904  1.00  0.00     0.103 C 
HETATM    2  C13 UNL     1      22.457  -0.189  52.837  1.00  0.00     0.026 C 
HETATM    3  N1  UNL     1      21.617  -0.043  51.951  1.00  0.00    -0.096 N 
ENDROOT
BRANCH   1   4
HETATM    4  C11 UNL     1      24.385   0.339  53.485  1.00  0.00    -0.005 A 
HETATM    5  C7  UNL     1      25.346   1.276  53.040  1.00  0.00    -0.043 A 
HETATM    6  C8  UNL     1      26.469   0.917  52.438  1.00  0.00     0.008 A 
HETATM    7  C9  UNL     1      26.401  -0.562  52.390  1.00  0.00     0.002 A 
HETATM    8  C10 UNL     1      25.207  -0.899  52.991  1.00  0.00     0.013 A 
BRANCH   5   9
HETATM    9  C6  UNL     1      24.665   2.554  53.459  1.00  0.00     0.066 C 
BRANCH   9  10
HETATM   10  C5  UNL     1      23.910   3.147  52.375  1.00  0.00    -0.021 C 
BRANCH  10  11
HETATM   11  C4  UNL     1      23.506   3.530  51.212  1.00  0.00     0.008 C 
BRANCH  11  12
HETATM   12  C3  UNL     1      24.051   3.619  49.856  1.00  0.00    -0.030 C 
HETATM   13  C2  UNL     1      23.421   2.935  48.924  1.00  0.00    -0.019 C 
HETATM   14  C1  UNL     1      22.207   2.095  49.189  1.00  0.00     0.037 C 
BRANCH  12  15
HETATM   15  C15 UNL     1      25.182   4.371  49.342  1.00  0.00    -0.026 A 
HETATM   16  C16 UNL     1      26.431   3.872  49.286  1.00  0.00     0.012 A 
HETATM   17  C17 UNL     1      27.551   4.576  48.871  1.00  0.00     0.001 A 
HETATM   18  C18 UNL     1      27.421   5.903  48.467  1.00  0.00     0.000 A 
HETATM   19  C19 UNL     1      26.192   6.454  48.505  1.00  0.00     0.001 A 
HETATM   20  C20 UNL     1      25.121   5.690  48.933  1.00  0.00     0.012 A 
ENDBRANCH  12  15
ENDBRANCH  11  12
ENDBRANCH  10  11
ENDBRANCH   9  10
ENDBRANCH   5   9
ENDBRANCH   1   4
BRANCH   1  21
HETATM   21  C14 UNL     1      22.800  -1.230  54.738  1.00  0.00     0.239 C 
HETATM   22  N2  UNL     1      23.544  -1.536  55.938  1.00  0.00    -0.268 NA
HETATM   23  H12 UNL     1      23.922  -1.651  56.933  1.00  0.00     0.127 HD
HETATM   24  H13 UNL     1      23.401  -1.220  56.965  1.00  0.00     0.127 HD
HETATM   25  O1  UNL     1      22.021  -1.929  55.224  1.00  0.00    -0.273 OA
ENDBRANCH   1  21
TORSDOF 7
ENDMDL
MODEL 2
REMARK VINA RESULT:      -8.0      3.504      6.902
REMARK  7 active torsions:
REMARK  status: ('A' for Active; 'I' for Inactive)
REMARK    1  A    between atoms: C3_3  and  C4_4 
REMARK    2  A    between atoms: C3_3  and  C15_18 
REMARK    3  A    between atoms: C4_4  and  C5_5 
REMARK    4  A    between atoms: C5_5  and  C6_6 
REMARK    5  A    between atoms: C6_6  and  C7_7 
REMARK    6  A    between atoms: C11_11  and  C12_12 
REMARK    7  A    between atoms: C12_12  and  C14_15 
REMARK       I    between atoms: C14_15  and  N2_16 
ROOT
HETATM    1  C12 UNL     1      24.733   5.669  49.890  1.00  0.00     0.103 C 
HETATM    2  C13 UNL     1      23.802   5.337  48.776  1.00  0.00     0.026 C 
HETATM    3  N1  UNL     1      23.031   5.053  47.860  1.00  0.00    -0.096 N 
ENDROOT
BRANCH   1   4
HETATM    4  C11 UNL     1      25.772   5.155  49.486  1.00  0.00    -0.005 A 
HETATM    5  C7  UNL     1      26.916   4.437  49.069  1.00  0.00    -0.043 A 
HETATM    6  C8  UNL     1      27.972   5.025  48.530  1.00  0.00     0.008 A 
HETATM    7  C9  UNL     1      27.618   6.464  48.510  1.00  0.00     0.002 A 
HETATM    8  C10 UNL     1      26.355   6.543  49.056  1.00  0.00     0.013 A 
BRANCH   5   9
HETATM    9  C6  UNL     1      26.485   3.040  49.436  1.00  0.00     0.066 C 
BRANCH   9  10
HETATM   10  C5  UNL     1      26.334   2.878  50.867  1.00  0.00    -0.021 C 
BRANCH  10  11
HETATM   11  C4  UNL     1      26.172   2.385  52.048  1.00  0.00     0.008 C 
BRANCH  11  12
HETATM   12  C3  UNL     1      26.308   1.081  52.699  1.00  0.00    -0.030 C 
HETATM   13  C2  UNL     1      25.196   0.519  53.126  1.00  0.00    -0.019 C 
HETATM   14  C1  UNL     1      23.841   1.143  52.976  1.00  0.00     0.037 C 
BRANCH  12  15
HETATM   15  C15 UNL     1      27.486   0.265  52.940  1.00  0.00    -0.026 A 
HETATM   16  C16 UNL     1      27.472  -1.079  52.878  1.00  0.00     0.012 A 
HETATM   17  C17 UNL     1      28.551  -1.900  53.170  1.00  0.00     0.001 A 
HETATM   18  C18 UNL     1      29.764  -1.333  53.555  1.00  0.00     0.000 A 
HETATM   19  C19 UNL     1      29.833   0.010  53.634  1.00  0.00     0.001 A 
HETATM   20  C20 UNL     1      28.714   0.764  53.330  1.00  0.00     0.012 A 
ENDBRANCH  12  15
ENDBRANCH  11  12
ENDBRANCH  10  11
ENDBRANCH   9  10
ENDBRANCH   5   9
ENDBRANCH   1   4
BRANCH   1  21
HETATM   21  C14 UNL     1      23.882   6.371  50.709  1.00  0.00     0.239 C 
HETATM   22  N2  UNL     1      24.216   6.221  52.107  1.00  0.00    -0.268 NA
HETATM   23  H12 UNL     1      24.508   6.337  53.130  1.00  0.00     0.127 HD
HETATM   24  H13 UNL     1      24.661   6.915  52.811  1.00  0.00     0.127 HD
HETATM   25  O1  UNL     1      23.043   7.037  51.136  1.00  0.00    -0.273 OA
ENDBRANCH   1  21
TORSDOF 7
ENDMDL
MODEL 3
REMARK VINA RESULT:      -8.0      3.431      5.020
REMARK  7 active torsions:
REMARK  status: ('A' for Active; 'I' for Inactive)
REMARK    1  A    between atoms: C3_3  and  C4_4 
REMARK    2  A    between atoms: C3_3  and  C15_18 
REMARK    3  A    between atoms: C4_4  and  C5_5 
REMARK    4  A    between atoms: C5_5  and  C6_6 
REMARK    5  A    between atoms: C6_6  and  C7_7 
REMARK    6  A    between atoms: C11_11  and  C12_12 
REMARK    7  A    between atoms: C12_12  and  C14_15 
REMARK       I    between atoms: C14_15  and  N2_16 
ROOT
HETATM    1  C12 UNL     1      27.432  -0.983  53.358  1.00  0.00     0.103 C 
HETATM    2  C13 UNL     1      28.111  -0.005  54.255  1.00  0.00     0.026 C 
HETATM    3  N1  UNL     1      28.668   0.796  55.003  1.00  0.00    -0.096 N 
ENDROOT
BRANCH   1   4
HETATM    4  C11 UNL     1      26.366  -0.409  53.157  1.00  0.00    -0.005 A 
HETATM    5  C7  UNL     1      25.079   0.160  53.021  1.00  0.00    -0.043 A 
HETATM    6  C8  UNL     1      24.810   1.119  52.150  1.00  0.00     0.008 A 
HETATM    7  C9  UNL     1      26.102   1.364  51.466  1.00  0.00     0.002 A 
HETATM    8  C10 UNL     1      26.998   0.490  52.042  1.00  0.00     0.013 A 
BRANCH   5   9
HETATM    9  C6  UNL     1      24.339  -0.637  54.064  1.00  0.00     0.066 C 
BRANCH   9  10
HETATM   10  C5  UNL     1      22.903  -0.521  53.917  1.00  0.00    -0.021 C 
BRANCH  10  11
HETATM   11  C4  UNL     1      21.717  -0.106  53.625  1.00  0.00     0.008 C 
BRANCH  11  12
HETATM   12  C3  UNL     1      21.027   0.450  52.460  1.00  0.00    -0.030 C 
HETATM   13  C2  UNL     1      19.764   0.107  52.308  1.00  0.00    -0.019 C 
HETATM   14  C1  UNL     1      19.032  -0.802  53.249  1.00  0.00     0.037 C 
BRANCH  12  15
HETATM   15  C15 UNL     1      21.497   1.359  51.429  1.00  0.00    -0.026 A 
HETATM   16  C16 UNL     1      21.766   0.965  50.171  1.00  0.00     0.012 A 
HETATM   17  C17 UNL     1      22.283   1.780  49.176  1.00  0.00     0.001 A 
HETATM   18  C18 UNL     1      22.556   3.119  49.454  1.00  0.00     0.000 A 
HETATM   19  C19 UNL     1      22.307   3.565  50.699  1.00  0.00     0.001 A 
HETATM   20  C20 UNL     1      21.792   2.693  51.641  1.00  0.00     0.012 A 
ENDBRANCH  12  15
ENDBRANCH  11  12
ENDBRANCH  10  11
ENDBRANCH   9  10
ENDBRANCH   5   9
ENDBRANCH   1   4
BRANCH   1  21
HETATM   21  C14 UNL     1      28.408  -1.945  53.273  1.00  0.00     0.239 C 
HETATM   22  N2  UNL     1      27.919  -3.175  52.694  1.00  0.00    -0.268 NA
HETATM   23  H12 UNL     1      27.706  -4.036  52.094  1.00  0.00     0.127 HD
HETATM   24  H13 UNL     1      28.094  -3.624  51.722  1.00  0.00     0.127 HD
HETATM   25  O1  UNL     1      29.396  -2.538  53.323  1.00  0.00    -0.273 OA
ENDBRANCH   1  21
TORSDOF 7
ENDMDL
MODEL 4
REMARK VINA RESULT:      -7.9      3.576      7.095
REMARK  7 active torsions:
REMARK  status: ('A' for Active; 'I' for Inactive)
REMARK    1  A    between atoms: C3_3  and  C4_4 
REMARK    2  A    between atoms: C3_3  and  C15_18 
REMARK    3  A    between atoms: C4_4  and  C5_5 
REMARK    4  A    between atoms: C5_5  and  C6_6 
REMARK    5  A    between atoms: C6_6  and  C7_7 
REMARK    6  A    between atoms: C11_11  and  C12_12 
REMARK    7  A    between atoms: C12_12  and  C14_15 
REMARK       I    between atoms: C14_15  and  N2_16 
ROOT
HETATM    1  C12 UNL     1      24.824   6.006  49.839  1.00  0.00     0.103 C 
HETATM    2  C13 UNL     1      23.863   5.757  48.729  1.00  0.00     0.026 C 
HETATM    3  N1  UNL     1      23.065   5.542  47.818  1.00  0.00    -0.096 N 
ENDROOT
BRANCH   1   4
HETATM    4  C11 UNL     1      25.784   5.337  49.468  1.00  0.00    -0.005 A 
HETATM    5  C7  UNL     1      26.823   4.453  49.097  1.00  0.00    -0.043 A 
HETATM    6  C8  UNL     1      27.946   4.866  48.532  1.00  0.00     0.008 A 
HETATM    7  C9  UNL     1      27.785   6.336  48.432  1.00  0.00     0.002 A 
HETATM    8  C10 UNL     1      26.545   6.611  48.967  1.00  0.00     0.013 A 
BRANCH   5   9
HETATM    9  C6  UNL     1      26.212   3.147  49.537  1.00  0.00     0.066 C 
BRANCH   9  10
HETATM   10  C5  UNL     1      26.679   2.745  50.847  1.00  0.00    -0.021 C 
BRANCH  10  11
HETATM   11  C4  UNL     1      26.774   2.217  52.020  1.00  0.00     0.008 C 
BRANCH  11  12
HETATM   12  C3  UNL     1      26.141   1.128  52.766  1.00  0.00    -0.030 C 
HETATM   13  C2  UNL     1      26.949   0.305  53.401  1.00  0.00    -0.019 C 
HETATM   14  C1  UNL     1      28.443   0.435  53.389  1.00  0.00     0.037 C 
BRANCH  12  15
HETATM   15  C15 UNL     1      24.738   0.804  52.954  1.00  0.00    -0.026 A 
HETATM   16  C16 UNL     1      24.312  -0.413  53.339  1.00  0.00     0.012 A 
HETATM   17  C17 UNL     1      22.983  -0.788  53.462  1.00  0.00     0.001 A 
HETATM   18  C18 UNL     1      21.977   0.135  53.180  1.00  0.00     0.000 A 
HETATM   19  C19 UNL     1      22.348   1.369  52.788  1.00  0.00     0.001 A 
HETATM   20  C20 UNL     1      23.694   1.670  52.686  1.00  0.00     0.012 A 
ENDBRANCH  12  15
ENDBRANCH  11  12
ENDBRANCH  10  11
ENDBRANCH   9  10
ENDBRANCH   5   9
ENDBRANCH   1   4
BRANCH   1  21
HETATM   21  C14 UNL     1      24.073   6.851  50.619  1.00  0.00     0.239 C 
HETATM   22  N2  UNL     1      24.385   6.726  52.024  1.00  0.00    -0.268 NA
HETATM   23  H12 UNL     1      24.691   6.853  53.042  1.00  0.00     0.127 HD
HETATM   24  H13 UNL     1      24.918   7.389  52.697  1.00  0.00     0.127 HD
HETATM   25  O1  UNL     1      23.329   7.641  51.009  1.00  0.00    -0.273 OA
ENDBRANCH   1  21
TORSDOF 7
ENDMDL
MODEL 5
REMARK VINA RESULT:      -7.7      2.864      4.871
REMARK  7 active torsions:
REMARK  status: ('A' for Active; 'I' for Inactive)
REMARK    1  A    between atoms: C3_3  and  C4_4 
REMARK    2  A    between atoms: C3_3  and  C15_18 
REMARK    3  A    between atoms: C4_4  and  C5_5 
REMARK    4  A    between atoms: C5_5  and  C6_6 
REMARK    5  A    between atoms: C6_6  and  C7_7 
REMARK    6  A    between atoms: C11_11  and  C12_12 
REMARK    7  A    between atoms: C12_12  and  C14_15 
REMARK       I    between atoms: C14_15  and  N2_16 
ROOT
HETATM    1  C12 UNL     1      27.658  -0.767  53.160  1.00  0.00     0.103 C 
HETATM    2  C13 UNL     1      28.343   0.120  54.141  1.00  0.00     0.026 C 
HETATM    3  N1  UNL     1      28.902   0.850  54.959  1.00  0.00    -0.096 N 
ENDROOT
BRANCH   1   4
HETATM    4  C11 UNL     1      26.759  -0.029  52.768  1.00  0.00    -0.005 A 
HETATM    5  C7  UNL     1      25.823   0.890  52.242  1.00  0.00    -0.043 A 
HETATM    6  C8  UNL     1      24.551   0.902  52.604  1.00  0.00     0.008 A 
HETATM    7  C9  UNL     1      24.442  -0.195  53.594  1.00  0.00     0.002 A 
HETATM    8  C10 UNL     1      25.707  -0.734  53.691  1.00  0.00     0.013 A 
BRANCH   5   9
HETATM    9  C6  UNL     1      26.724   1.661  51.311  1.00  0.00     0.066 C 
BRANCH   9  10
HETATM   10  C5  UNL     1      26.019   2.731  50.637  1.00  0.00    -0.021 C 
BRANCH  10  11
HETATM   11  C4  UNL     1      25.201   3.404  49.901  1.00  0.00     0.008 C 
BRANCH  11  12
HETATM   12  C3  UNL     1      23.753   3.582  49.783  1.00  0.00    -0.030 C 
HETATM   13  C2  UNL     1      23.343   4.660  49.148  1.00  0.00    -0.019 C 
HETATM   14  C1  UNL     1      24.272   5.680  48.561  1.00  0.00     0.037 C 
BRANCH  12  15
HETATM   15  C15 UNL     1      22.659   2.738  50.235  1.00  0.00    -0.026 A 
HETATM   16  C16 UNL     1      22.300   1.604  49.606  1.00  0.00     0.012 A 
HETATM   17  C17 UNL     1      21.221   0.808  49.959  1.00  0.00     0.001 A 
HETATM   18  C18 UNL     1      20.423   1.168  51.043  1.00  0.00     0.000 A 
HETATM   19  C19 UNL     1      20.737   2.296  51.707  1.00  0.00     0.001 A 
HETATM   20  C20 UNL     1      21.828   3.042  51.297  1.00  0.00     0.012 A 
ENDBRANCH  12  15
ENDBRANCH  11  12
ENDBRANCH  10  11
ENDBRANCH   9  10
ENDBRANCH   5   9
ENDBRANCH   1   4
BRANCH   1  21
HETATM   21  C14 UNL     1      28.449  -1.886  53.260  1.00  0.00     0.239 C 
HETATM   22  N2  UNL     1      27.816  -3.059  52.700  1.00  0.00    -0.268 NA
HETATM   23  H12 UNL     1      27.521  -3.917  52.132  1.00  0.00     0.127 HD
HETATM   24  H13 UNL     1      28.017  -3.610  51.788  1.00  0.00     0.127 HD
HETATM   25  O1  UNL     1      29.301  -2.633  53.473  1.00  0.00    -0.273 OA
ENDBRANCH   1  21
TORSDOF 7
ENDMDL
MODEL 6
REMARK VINA RESULT:      -7.7      3.647      6.594
REMARK  7 active torsions:
REMARK  status: ('A' for Active; 'I' for Inactive)
REMARK    1  A    between atoms: C3_3  and  C4_4 
REMARK    2  A    between atoms: C3_3  and  C15_18 
REMARK    3  A    between atoms: C4_4  and  C5_5 
REMARK    4  A    between atoms: C5_5  and  C6_6 
REMARK    5  A    between atoms: C6_6  and  C7_7 
REMARK    6  A    between atoms: C11_11  and  C12_12 
REMARK    7  A    between atoms: C12_12  and  C14_15 
REMARK       I    between atoms: C14_15  and  N2_16 
ROOT
HETATM    1  C12 UNL     1      23.943   5.714  49.943  1.00  0.00     0.103 C 
HETATM    2  C13 UNL     1      23.519   5.932  48.532  1.00  0.00     0.026 C 
HETATM    3  N1  UNL     1      23.160   6.107  47.368  1.00  0.00    -0.096 N 
ENDROOT
BRANCH   1   4
HETATM    4  C11 UNL     1      24.516   4.632  49.848  1.00  0.00    -0.005 A 
HETATM    5  C7  UNL     1      25.053   3.326  49.786  1.00  0.00    -0.043 A 
HETATM    6  C8  UNL     1      26.313   3.087  49.461  1.00  0.00     0.008 A 
HETATM    7  C9  UNL     1      26.891   4.430  49.222  1.00  0.00     0.002 A 
HETATM    8  C10 UNL     1      25.862   5.321  49.441  1.00  0.00     0.013 A 
BRANCH   5   9
HETATM    9  C6  UNL     1      23.831   2.532  50.170  1.00  0.00     0.066 C 
BRANCH   9  10
HETATM   10  C5  UNL     1      23.787   2.258  51.591  1.00  0.00    -0.021 C 
BRANCH  10  11
HETATM   11  C4  UNL     1      24.078   1.880  52.789  1.00  0.00     0.008 C 
BRANCH  11  12
HETATM   12  C3  UNL     1      25.021   0.963  53.430  1.00  0.00    -0.030 C 
HETATM   13  C2  UNL     1      24.558  -0.228  53.748  1.00  0.00    -0.019 C 
HETATM   14  C1  UNL     1      23.148  -0.666  53.487  1.00  0.00     0.037 C 
BRANCH  12  15
HETATM   15  C15 UNL     1      26.425   1.134  53.764  1.00  0.00    -0.026 A 
HETATM   16  C16 UNL     1      27.168   2.158  53.305  1.00  0.00     0.012 A 
HETATM   17  C17 UNL     1      28.524   2.323  53.538  1.00  0.00     0.001 A 
HETATM   18  C18 UNL     1      29.212   1.383  54.305  1.00  0.00     0.000 A 
HETATM   19  C19 UNL     1      28.516   0.336  54.787  1.00  0.00     0.001 A 
HETATM   20  C20 UNL     1      27.164   0.237  54.512  1.00  0.00     0.012 A 
ENDBRANCH  12  15
ENDBRANCH  11  12
ENDBRANCH  10  11
ENDBRANCH   9  10
ENDBRANCH   5   9
ENDBRANCH   1   4
BRANCH   1  21
HETATM   21  C14 UNL     1      23.454   6.862  50.518  1.00  0.00     0.239 C 
HETATM   22  N2  UNL     1      24.301   7.347  51.584  1.00  0.00    -0.268 NA
HETATM   23  H12 UNL     1      24.960   7.887  52.232  1.00  0.00     0.127 HD
HETATM   24  H13 UNL     1      24.966   8.202  51.632  1.00  0.00     0.127 HD
HETATM   25  O1  UNL     1      22.828   7.789  50.798  1.00  0.00    -0.273 OA
ENDBRANCH   1  21
TORSDOF 7
ENDMDL
MODEL 7
REMARK VINA RESULT:      -7.7      3.594      5.649
REMARK  7 active torsions:
REMARK  status: ('A' for Active; 'I' for Inactive)
REMARK    1  A    between atoms: C3_3  and  C4_4 
REMARK    2  A    between atoms: C3_3  and  C15_18 
REMARK    3  A    between atoms: C4_4  and  C5_5 
REMARK    4  A    between atoms: C5_5  and  C6_6 
REMARK    5  A    between atoms: C6_6  and  C7_7 
REMARK    6  A    between atoms: C11_11  and  C12_12 
REMARK    7  A    between atoms: C12_12  and  C14_15 
REMARK       I    between atoms: C14_15  and  N2_16 
ROOT
HETATM    1  C12 UNL     1      26.154  -0.209  53.800  1.00  0.00     0.103 C 
HETATM    2  C13 UNL     1      26.509  -1.357  52.919  1.00  0.00     0.026 C 
HETATM    3  N1  UNL     1      26.805  -2.298  52.184  1.00  0.00    -0.096 N 
ENDROOT
BRANCH   1   4
HETATM    4  C11 UNL     1      24.992  -0.007  53.459  1.00  0.00    -0.005 A 
HETATM    5  C7  UNL     1      23.617   0.123  53.160  1.00  0.00    -0.043 A 
HETATM    6  C8  UNL     1      23.163   0.936  52.220  1.00  0.00     0.008 A 
HETATM    7  C9  UNL     1      24.383   1.570  51.665  1.00  0.00     0.002 A 
HETATM    8  C10 UNL     1      25.435   1.033  52.374  1.00  0.00     0.013 A 
BRANCH   5   9
HETATM    9  C6  UNL     1      23.048  -0.854  54.157  1.00  0.00     0.066 C 
BRANCH   9  10
HETATM   10  C5  UNL     1      21.609  -0.742  54.265  1.00  0.00    -0.021 C 
BRANCH  10  11
HETATM   11  C4  UNL     1      20.360  -0.543  54.014  1.00  0.00     0.008 C 
BRANCH  11  12
HETATM   12  C3  UNL     1      19.541  -0.141  52.869  1.00  0.00    -0.030 C 
HETATM   13  C2  UNL     1      18.429  -0.818  52.676  1.00  0.00    -0.019 C 
HETATM   14  C1  UNL     1      17.983  -1.948  53.556  1.00  0.00     0.037 C 
BRANCH  12  15
HETATM   15  C15 UNL     1      19.736   0.920  51.896  1.00  0.00    -0.026 A 
HETATM   16  C16 UNL     1      19.940   0.687  50.587  1.00  0.00     0.012 A 
HETATM   17  C17 UNL     1      20.201   1.662  49.636  1.00  0.00     0.001 A 
HETATM   18  C18 UNL     1      20.260   3.000  50.020  1.00  0.00     0.000 A 
HETATM   19  C19 UNL     1      20.064   3.291  51.320  1.00  0.00     0.001 A 
HETATM   20  C20 UNL     1      19.810   2.264  52.212  1.00  0.00     0.012 A 
ENDBRANCH  12  15
ENDBRANCH  11  12
ENDBRANCH  10  11
ENDBRANCH   9  10
ENDBRANCH   5   9
ENDBRANCH   1   4
BRANCH   1  21
HETATM   21  C14 UNL     1      27.334  -0.063  54.487  1.00  0.00     0.239 C 
HETATM   22  N2  UNL     1      27.682   1.324  54.694  1.00  0.00    -0.268 NA
HETATM   23  H12 UNL     1      27.909   2.300  55.072  1.00  0.00     0.127 HD
HETATM   24  H13 UNL     1      27.665   1.936  55.589  1.00  0.00     0.127 HD
HETATM   25  O1  UNL     1      28.319  -0.239  55.061  1.00  0.00    -0.273 OA
ENDBRANCH   1  21
TORSDOF 7
ENDMDL
MODEL 8
REMARK VINA RESULT:      -7.7      3.274      6.438
REMARK  7 active torsions:
REMARK  status: ('A' for Active; 'I' for Inactive)
REMARK    1  A    between atoms: C3_3  and  C4_4 
REMARK    2  A    between atoms: C3_3  and  C15_18 
REMARK    3  A    between atoms: C4_4  and  C5_5 
REMARK    4  A    between atoms: C5_5  and  C6_6 
REMARK    5  A    between atoms: C6_6  and  C7_7 
REMARK    6  A    between atoms: C11_11  and  C12_12 
REMARK    7  A    between atoms: C12_12  and  C14_15 
REMARK       I    between atoms: C14_15  and  N2_16 
ROOT
HETATM    1  C12 UNL     1      24.910   3.551  50.237  1.00  0.00     0.103 C 
HETATM    2  C13 UNL     1      24.559   4.967  50.539  1.00  0.00     0.026 C 
HETATM    3  N1  UNL     1      24.272   6.134  50.798  1.00  0.00    -0.096 N 
ENDROOT
BRANCH   1   4
HETATM    4  C11 UNL     1      23.829   3.000  50.422  1.00  0.00    -0.005 A 
HETATM    5  C7  UNL     1      22.615   2.366  50.775  1.00  0.00    -0.043 A 
HETATM    6  C8  UNL     1      21.742   1.944  49.876  1.00  0.00     0.008 A 
HETATM    7  C9  UNL     1      22.357   2.296  48.574  1.00  0.00     0.002 A 
HETATM    8  C10 UNL     1      23.554   2.904  48.883  1.00  0.00     0.013 A 
BRANCH   5   9
HETATM    9  C6  UNL     1      22.748   2.387  52.276  1.00  0.00     0.066 C 
BRANCH   9  10
HETATM   10  C5  UNL     1      23.587   1.311  52.761  1.00  0.00    -0.021 C 
BRANCH  10  11
HETATM   11  C4  UNL     1      24.327   0.257  52.842  1.00  0.00     0.008 C 
BRANCH  11  12
HETATM   12  C3  UNL     1      25.342  -0.280  53.749  1.00  0.00    -0.030 C 
HETATM   13  C2  UNL     1      24.900  -0.937  54.801  1.00  0.00    -0.019 C 
HETATM   14  C1  UNL     1      23.445  -1.149  55.096  1.00  0.00     0.037 C 
BRANCH  12  15
HETATM   15  C15 UNL     1      26.792  -0.234  53.675  1.00  0.00    -0.026 A 
HETATM   16  C16 UNL     1      27.537  -1.267  53.237  1.00  0.00     0.012 A 
HETATM   17  C17 UNL     1      28.922  -1.294  53.217  1.00  0.00     0.001 A 
HETATM   18  C18 UNL     1      29.642  -0.190  53.670  1.00  0.00     0.000 A 
HETATM   19  C19 UNL     1      28.946   0.871  54.121  1.00  0.00     0.001 A 
HETATM   20  C20 UNL     1      27.563   0.826  54.113  1.00  0.00     0.012 A 
ENDBRANCH  12  15
ENDBRANCH  11  12
ENDBRANCH  10  11
ENDBRANCH   9  10
ENDBRANCH   5   9
ENDBRANCH   1   4
BRANCH   1  21
HETATM   21  C14 UNL     1      26.237   3.698  49.915  1.00  0.00     0.239 C 
HETATM   22  N2  UNL     1      27.113   3.299  50.993  1.00  0.00    -0.268 NA
HETATM   23  H12 UNL     1      27.827   2.837  51.643  1.00  0.00     0.127 HD
HETATM   24  H13 UNL     1      27.753   2.430  51.106  1.00  0.00     0.127 HD
HETATM   25  O1  UNL     1      27.238   3.918  49.385  1.00  0.00    -0.273 OA
ENDBRANCH   1  21
TORSDOF 7
ENDMDL
MODEL 9
REMARK VINA RESULT:      -7.6      4.092      7.498
REMARK  7 active torsions:
REMARK  status: ('A' for Active; 'I' for Inactive)
REMARK    1  A    between atoms: C3_3  and  C4_4 
REMARK    2  A    between atoms: C3_3  and  C15_18 
REMARK    3  A    between atoms: C4_4  and  C5_5 
REMARK    4  A    between atoms: C5_5  and  C6_6 
REMARK    5  A    between atoms: C6_6  and  C7_7 
REMARK    6  A    between atoms: C11_11  and  C12_12 
REMARK    7  A    between atoms: C12_12  and  C14_15 
REMARK       I    between atoms: C14_15  and  N2_16 
ROOT
HETATM    1  C12 UNL     1      25.796   5.937  49.402  1.00  0.00     0.103 C 
HETATM    2  C13 UNL     1      27.133   5.778  48.764  1.00  0.00     0.026 C 
HETATM    3  N1  UNL     1      28.232   5.648  48.227  1.00  0.00    -0.096 N 
ENDROOT
BRANCH   1   4
HETATM    4  C11 UNL     1      25.428   4.767  49.462  1.00  0.00    -0.005 A 
HETATM    5  C7  UNL     1      25.140   3.387  49.561  1.00  0.00    -0.043 A 
HETATM    6  C8  UNL     1      23.945   2.885  49.297  1.00  0.00     0.008 A 
HETATM    7  C9  UNL     1      23.129   4.063  48.918  1.00  0.00     0.002 A 
HETATM    8  C10 UNL     1      23.976   5.146  49.013  1.00  0.00     0.013 A 
BRANCH   5   9
HETATM    9  C6  UNL     1      26.492   2.879  49.996  1.00  0.00     0.066 C 
BRANCH   9  10
HETATM   10  C5  UNL     1      26.464   2.349  51.343  1.00  0.00    -0.021 C 
BRANCH  10  11
HETATM   11  C4  UNL     1      26.161   1.686  52.407  1.00  0.00     0.008 C 
BRANCH  11  12
HETATM   12  C3  UNL     1      25.280   0.575  52.771  1.00  0.00    -0.030 C 
HETATM   13  C2  UNL     1      25.857  -0.593  52.963  1.00  0.00    -0.019 C 
HETATM   14  C1  UNL     1      27.333  -0.821  52.827  1.00  0.00     0.037 C 
BRANCH  12  15
HETATM   15  C15 UNL     1      23.844   0.542  52.988  1.00  0.00    -0.026 A 
HETATM   16  C16 UNL     1      23.007   1.476  52.500  1.00  0.00     0.012 A 
HETATM   17  C17 UNL     1      21.643   1.524  52.741  1.00  0.00     0.001 A 
HETATM   18  C18 UNL     1      21.048   0.549  53.539  1.00  0.00     0.000 A 
HETATM   19  C19 UNL     1      21.841  -0.410  54.055  1.00  0.00     0.001 A 
HETATM   20  C20 UNL     1      23.195  -0.392  53.773  1.00  0.00     0.012 A 
ENDBRANCH  12  15
ENDBRANCH  11  12
ENDBRANCH  10  11
ENDBRANCH   9  10
ENDBRANCH   5   9
ENDBRANCH   1   4
BRANCH   1  21
HETATM   21  C14 UNL     1      25.770   7.301  49.562  1.00  0.00     0.239 C 
HETATM   22  N2  UNL     1      26.281   7.714  50.849  1.00  0.00    -0.268 NA
HETATM   23  H12 UNL     1      26.828   8.119  51.676  1.00  0.00     0.127 HD
HETATM   24  H13 UNL     1      27.211   8.202  51.123  1.00  0.00     0.127 HD
HETATM   25  O1  UNL     1      25.634   8.437  49.420  1.00  0.00    -0.273 OA
ENDBRANCH   1  21
TORSDOF 7
ENDMDL
