MODEL 1
REMARK VINA RESULT:      -7.3      0.000      0.000
REMARK  5 active torsions:
REMARK  status: ('A' for Active; 'I' for Inactive)
REMARK    1  A    between atoms: C2_2  and  C3_3 
REMARK    2  A    between atoms: C7_7  and  N1_8 
REMARK    3  A    between atoms: N1_8  and  C8_9 
REMARK    4  A    between atoms: C16_18  and  O1_19 
REMARK    5  A    between atoms: C17_20  and  O2_21 
ROOT
HETATM    1  C8  UNL     1      23.779   3.700  52.451  1.00  0.00     0.311 A 
HETATM    2  C9  UNL     1      23.566   5.058  51.920  1.00  0.00     0.268 A 
HETATM    3  C10 UNL     1      23.008   6.034  51.201  1.00  0.00     0.305 A 
HETATM    4  N2  UNL     1      22.522   4.712  51.142  1.00  0.00     0.134 N 
HETATM    5  C11 UNL     1      22.613   3.337  51.577  1.00  0.00     0.245 A 
HETATM    6  C12 UNL     1      21.432   2.887  52.379  1.00  0.00     0.078 A 
HETATM    7  C13 UNL     1      20.804   1.641  51.847  1.00  0.00    -0.024 A 
HETATM    8  C14 UNL     1      21.178   0.939  50.789  1.00  0.00    -0.001 A 
HETATM    9  C15 UNL     1      22.320   1.361  50.003  1.00  0.00     0.034 A 
HETATM   10  C16 UNL     1      22.919   2.462  50.428  1.00  0.00     0.084 A 
ENDROOT
BRANCH   1  11
HETATM   11  N1  UNL     1      25.026   3.083  52.137  1.00  0.00     0.105 N 
HETATM   12  H8  UNL     1      24.992   2.651  51.208  1.00  0.00     0.317 HD
BRANCH  11  13
HETATM   13  C7  UNL     1      25.517   2.214  53.183  1.00  0.00     0.277 A 
HETATM   14  C6  UNL     1      24.786   0.923  53.223  1.00  0.00     0.011 A 
HETATM   15  C5  UNL     1      25.242  -0.319  53.257  1.00  0.00    -0.001 A 
HETATM   16  C4  UNL     1      26.697  -0.433  53.256  1.00  0.00     0.009 A 
HETATM   17  C3  UNL     1      27.457   0.674  53.222  1.00  0.00    -0.028 A 
HETATM   18  C17 UNL     1      26.996   2.067  53.185  1.00  0.00     0.188 A 
BRANCH  17  19
HETATM   19  C2  UNL     1      28.890   0.398  53.226  1.00  0.00    -0.001 C 
HETATM   20  C1  UNL     1      29.353  -0.727  53.747  1.00  0.00     0.012 C 
ENDBRANCH  17  19
BRANCH  18  21
HETATM   21  O2  UNL     1      27.627   2.780  54.201  1.00  0.00    -0.388 OA
HETATM   22  H18 UNL     1      27.894   2.070  54.868  1.00  0.00     0.210 HD
ENDBRANCH  18  21
ENDBRANCH  11  13
ENDBRANCH   1  11
BRANCH  10  23
HETATM   23  O1  UNL     1      24.022   2.929  49.726  1.00  0.00    -0.362 OA
HETATM   24  H16 UNL     1      23.961   3.833  49.279  1.00  0.00     0.217 HD
ENDBRANCH  10  23
TORSDOF 5
ENDMDL
MODEL 2
REMARK VINA RESULT:      -7.2      8.622     10.777
REMARK  5 active torsions:
REMARK  status: ('A' for Active; 'I' for Inactive)
REMARK    1  A    between atoms: C2_2  and  C3_3 
REMARK    2  A    between atoms: C7_7  and  N1_8 
REMARK    3  A    between atoms: N1_8  and  C8_9 
REMARK    4  A    between atoms: C16_18  and  O1_19 
REMARK    5  A    between atoms: C17_20  and  O2_21 
ROOT
HETATM    1  C8  UNL     1      32.169   6.023  46.285  1.00  0.00     0.311 A 
HETATM    2  C9  UNL     1      32.680   6.383  44.950  1.00  0.00     0.268 A 
HETATM    3  C10 UNL     1      33.415   6.299  43.840  1.00  0.00     0.305 A 
HETATM    4  N2  UNL     1      33.550   5.357  44.881  1.00  0.00     0.134 N 
HETATM    5  C11 UNL     1      33.146   4.886  46.186  1.00  0.00     0.245 A 
HETATM    6  C12 UNL     1      32.456   3.557  46.151  1.00  0.00     0.078 A 
HETATM    7  C13 UNL     1      33.071   2.554  47.070  1.00  0.00    -0.024 A 
HETATM    8  C14 UNL     1      34.113   2.726  47.868  1.00  0.00    -0.001 A 
HETATM    9  C15 UNL     1      34.791   4.006  47.914  1.00  0.00     0.034 A 
HETATM   10  C16 UNL     1      34.289   4.936  47.118  1.00  0.00     0.084 A 
ENDROOT
BRANCH   1  11
HETATM   11  N1  UNL     1      32.397   6.967  47.329  1.00  0.00     0.105 N 
HETATM   12  H8  UNL     1      33.234   6.718  47.865  1.00  0.00     0.317 HD
BRANCH  11  13
HETATM   13  C7  UNL     1      31.225   7.225  48.136  1.00  0.00     0.277 A 
HETATM   14  C6  UNL     1      30.397   8.323  47.579  1.00  0.00     0.011 A 
HETATM   15  C5  UNL     1      29.097   8.377  47.335  1.00  0.00    -0.001 A 
HETATM   16  C4  UNL     1      28.365   7.159  47.669  1.00  0.00     0.009 A 
HETATM   17  C3  UNL     1      29.018   6.102  48.181  1.00  0.00    -0.028 A 
HETATM   18  C17 UNL     1      30.453   5.999  48.469  1.00  0.00     0.188 A 
BRANCH  17  19
HETATM   19  C2  UNL     1      28.151   4.962  48.462  1.00  0.00    -0.001 C 
HETATM   20  C1  UNL     1      26.903   5.152  48.859  1.00  0.00     0.012 C 
ENDBRANCH  17  19
BRANCH  18  21
HETATM   21  O2  UNL     1      30.622   5.572  49.783  1.00  0.00    -0.388 OA
HETATM   22  H18 UNL     1      30.972   4.630  49.691  1.00  0.00     0.210 HD
ENDBRANCH  18  21
ENDBRANCH  11  13
ENDBRANCH   1  11
BRANCH  10  23
HETATM   23  O1  UNL     1      34.886   6.191  47.107  1.00  0.00    -0.362 OA
HETATM   24  H16 UNL     1      35.005   6.659  46.220  1.00  0.00     0.217 HD
ENDBRANCH  10  23
TORSDOF 5
ENDMDL
MODEL 3
REMARK VINA RESULT:      -7.1      2.265      3.843
REMARK  5 active torsions:
REMARK  status: ('A' for Active; 'I' for Inactive)
REMARK    1  A    between atoms: C2_2  and  C3_3 
REMARK    2  A    between atoms: C7_7  and  N1_8 
REMARK    3  A    between atoms: N1_8  and  C8_9 
REMARK    4  A    between atoms: C16_18  and  O1_19 
REMARK    5  A    between atoms: C17_20  and  O2_21 
ROOT
HETATM    1  C8  UNL     1      24.947   3.497  50.773  1.00  0.00     0.311 A 
HETATM    2  C9  UNL     1      23.883   2.968  49.902  1.00  0.00     0.268 A 
HETATM    3  C10 UNL     1      23.050   2.904  48.861  1.00  0.00     0.305 A 
HETATM    4  N2  UNL     1      23.972   3.963  48.998  1.00  0.00     0.134 N 
HETATM    5  C11 UNL     1      25.030   4.596  49.752  1.00  0.00     0.245 A 
HETATM    6  C12 UNL     1      26.347   4.600  49.039  1.00  0.00     0.078 A 
HETATM    7  C13 UNL     1      26.951   5.961  48.936  1.00  0.00    -0.024 A 
HETATM    8  C14 UNL     1      26.454   7.100  49.393  1.00  0.00    -0.001 A 
HETATM    9  C15 UNL     1      25.182   7.112  50.086  1.00  0.00     0.034 A 
HETATM   10  C16 UNL     1      24.597   5.931  50.207  1.00  0.00     0.084 A 
ENDROOT
BRANCH   1  11
HETATM   11  N1  UNL     1      24.560   3.882  52.090  1.00  0.00     0.105 N 
HETATM   12  H8  UNL     1      25.003   4.768  52.353  1.00  0.00     0.317 HD
BRANCH  11  13
HETATM   13  C7  UNL     1      24.710   2.825  53.066  1.00  0.00     0.277 A 
HETATM   14  C6  UNL     1      23.541   1.911  53.079  1.00  0.00     0.011 A 
HETATM   15  C5  UNL     1      23.486   0.589  53.029  1.00  0.00    -0.001 A 
HETATM   16  C4  UNL     1      24.786  -0.070  52.948  1.00  0.00     0.009 A 
HETATM   17  C3  UNL     1      25.911   0.663  52.930  1.00  0.00    -0.028 A 
HETATM   18  C17 UNL     1      26.019   2.126  52.984  1.00  0.00     0.188 A 
BRANCH  17  19
HETATM   19  C2  UNL     1      27.128  -0.138  52.846  1.00  0.00    -0.001 C 
HETATM   20  C1  UNL     1      27.056  -1.455  52.741  1.00  0.00     0.012 C 
ENDBRANCH  17  19
BRANCH  18  21
HETATM   21  O2  UNL     1      26.903   2.477  54.001  1.00  0.00    -0.388 OA
HETATM   22  H18 UNL     1      27.815   2.331  53.593  1.00  0.00     0.210 HD
ENDBRANCH  18  21
ENDBRANCH  11  13
ENDBRANCH   1  11
BRANCH  10  23
HETATM   23  O1  UNL     1      23.372   5.862  50.859  1.00  0.00    -0.362 OA
HETATM   24  H16 UNL     1      23.361   5.614  51.838  1.00  0.00     0.217 HD
ENDBRANCH  10  23
TORSDOF 5
ENDMDL
MODEL 4
REMARK VINA RESULT:      -6.9      1.544      2.271
REMARK  5 active torsions:
REMARK  status: ('A' for Active; 'I' for Inactive)
REMARK    1  A    between atoms: C2_2  and  C3_3 
REMARK    2  A    between atoms: C7_7  and  N1_8 
REMARK    3  A    between atoms: N1_8  and  C8_9 
REMARK    4  A    between atoms: C16_18  and  O1_19 
REMARK    5  A    between atoms: C17_20  and  O2_21 
ROOT
HETATM    1  C8  UNL     1      23.023   1.383  51.599  1.00  0.00     0.311 A 
HETATM    2  C9  UNL     1      21.963   1.898  52.484  1.00  0.00     0.268 A 
HETATM    3  C10 UNL     1      20.838   2.522  52.837  1.00  0.00     0.305 A 
HETATM    4  N2  UNL     1      21.246   2.454  51.489  1.00  0.00     0.134 N 
HETATM    5  C11 UNL     1      22.206   2.010  50.505  1.00  0.00     0.245 A 
HETATM    6  C12 UNL     1      21.659   0.987  49.559  1.00  0.00     0.078 A 
HETATM    7  C13 UNL     1      21.843   1.358  48.125  1.00  0.00    -0.024 A 
HETATM    8  C14 UNL     1      22.416   2.449  47.643  1.00  0.00    -0.001 A 
HETATM    9  C15 UNL     1      22.952   3.449  48.545  1.00  0.00     0.034 A 
HETATM   10  C16 UNL     1      22.816   3.173  49.832  1.00  0.00     0.084 A 
ENDROOT
BRANCH   1  11
HETATM   11  N1  UNL     1      24.332   1.913  51.797  1.00  0.00     0.105 N 
HETATM   12  H8  UNL     1      24.865   1.897  50.922  1.00  0.00     0.317 HD
BRANCH  11  13
HETATM   13  C7  UNL     1      25.022   1.334  52.929  1.00  0.00     0.277 A 
HETATM   14  C6  UNL     1      24.874  -0.142  52.974  1.00  0.00     0.011 A 
HETATM   15  C5  UNL     1      25.786  -1.090  53.117  1.00  0.00    -0.001 A 
HETATM   16  C4  UNL     1      27.155  -0.601  53.251  1.00  0.00     0.009 A 
HETATM   17  C3  UNL     1      27.403   0.719  53.223  1.00  0.00    -0.028 A 
HETATM   18  C17 UNL     1      26.425   1.803  53.069  1.00  0.00     0.188 A 
BRANCH  17  19
HETATM   19  C2  UNL     1      28.816   1.050  53.369  1.00  0.00    -0.001 C 
HETATM   20  C1  UNL     1      29.704   0.101  53.620  1.00  0.00     0.012 C 
ENDBRANCH  17  19
BRANCH  18  21
HETATM   21  O2  UNL     1      26.605   2.725  54.097  1.00  0.00    -0.388 OA
HETATM   22  H18 UNL     1      25.739   3.242  54.116  1.00  0.00     0.210 HD
ENDBRANCH  18  21
ENDBRANCH  11  13
ENDBRANCH   1  11
BRANCH  10  23
HETATM   23  O1  UNL     1      23.305   4.085  50.759  1.00  0.00    -0.362 OA
HETATM   24  H16 UNL     1      22.733   4.881  51.000  1.00  0.00     0.217 HD
ENDBRANCH  10  23
TORSDOF 5
ENDMDL
MODEL 5
REMARK VINA RESULT:      -6.8      2.343      4.961
REMARK  5 active torsions:
REMARK  status: ('A' for Active; 'I' for Inactive)
REMARK    1  A    between atoms: C2_2  and  C3_3 
REMARK    2  A    between atoms: C7_7  and  N1_8 
REMARK    3  A    between atoms: N1_8  and  C8_9 
REMARK    4  A    between atoms: C16_18  and  O1_19 
REMARK    5  A    between atoms: C17_20  and  O2_21 
ROOT
HETATM    1  C8  UNL     1      23.517   3.625  49.991  1.00  0.00     0.311 A 
HETATM    2  C9  UNL     1      24.469   4.623  49.471  1.00  0.00     0.268 A 
HETATM    3  C10 UNL     1      25.602   5.319  49.369  1.00  0.00     0.305 A 
HETATM    4  N2  UNL     1      25.446   4.312  50.343  1.00  0.00     0.134 N 
HETATM    5  C11 UNL     1      24.622   3.295  50.954  1.00  0.00     0.245 A 
HETATM    6  C12 UNL     1      25.143   1.906  50.753  1.00  0.00     0.078 A 
HETATM    7  C13 UNL     1      25.297   1.148  52.029  1.00  0.00    -0.024 A 
HETATM    8  C14 UNL     1      25.029   1.570  53.254  1.00  0.00    -0.001 A 
HETATM    9  C15 UNL     1      24.522   2.911  53.466  1.00  0.00     0.034 A 
HETATM   10  C16 UNL     1      24.365   3.632  52.368  1.00  0.00     0.084 A 
ENDROOT
BRANCH   1  11
HETATM   11  N1  UNL     1      22.310   4.131  50.558  1.00  0.00     0.105 N 
HETATM   12  H8  UNL     1      22.508   4.668  51.408  1.00  0.00     0.317 HD
BRANCH  11  13
HETATM   13  C7  UNL     1      21.281   3.127  50.710  1.00  0.00     0.277 A 
HETATM   14  C6  UNL     1      21.461   1.998  49.764  1.00  0.00     0.011 A 
HETATM   15  C5  UNL     1      21.465   0.692  49.979  1.00  0.00    -0.001 A 
HETATM   16  C4  UNL     1      21.259   0.305  51.372  1.00  0.00     0.009 A 
HETATM   17  C3  UNL     1      21.085   1.249  52.312  1.00  0.00    -0.028 A 
HETATM   18  C17 UNL     1      21.071   2.703  52.119  1.00  0.00     0.188 A 
BRANCH  17  19
HETATM   19  C2  UNL     1      20.891   0.706  53.653  1.00  0.00    -0.001 C 
HETATM   20  C1  UNL     1      21.791  -0.107  54.182  1.00  0.00     0.012 C 
ENDBRANCH  17  19
BRANCH  18  21
HETATM   21  O2  UNL     1      19.915   3.226  52.693  1.00  0.00    -0.388 OA
HETATM   22  H18 UNL     1      19.808   4.127  52.250  1.00  0.00     0.210 HD
ENDBRANCH  18  21
ENDBRANCH  11  13
ENDBRANCH   1  11
BRANCH  10  23
HETATM   23  O1  UNL     1      23.883   4.930  52.490  1.00  0.00    -0.362 OA
HETATM   24  H16 UNL     1      23.941   5.382  53.392  1.00  0.00     0.217 HD
ENDBRANCH  10  23
TORSDOF 5
ENDMDL
MODEL 6
REMARK VINA RESULT:      -6.6      2.494      4.691
REMARK  5 active torsions:
REMARK  status: ('A' for Active; 'I' for Inactive)
REMARK    1  A    between atoms: C2_2  and  C3_3 
REMARK    2  A    between atoms: C7_7  and  N1_8 
REMARK    3  A    between atoms: N1_8  and  C8_9 
REMARK    4  A    between atoms: C16_18  and  O1_19 
REMARK    5  A    between atoms: C17_20  and  O2_21 
ROOT
HETATM    1  C8  UNL     1      24.764   3.367  49.984  1.00  0.00     0.311 A 
HETATM    2  C9  UNL     1      23.650   3.106  49.054  1.00  0.00     0.268 A 
HETATM    3  C10 UNL     1      22.662   3.372  48.198  1.00  0.00     0.305 A 
HETATM    4  N2  UNL     1      23.425   4.406  48.781  1.00  0.00     0.134 N 
HETATM    5  C11 UNL     1      24.495   4.809  49.664  1.00  0.00     0.245 A 
HETATM    6  C12 UNL     1      25.646   5.448  48.951  1.00  0.00     0.078 A 
HETATM    7  C13 UNL     1      26.011   6.784  49.509  1.00  0.00    -0.024 A 
HETATM    8  C14 UNL     1      25.441   7.417  50.521  1.00  0.00    -0.001 A 
HETATM    9  C15 UNL     1      24.327   6.812  51.223  1.00  0.00     0.034 A 
HETATM   10  C16 UNL     1      23.957   5.625  50.771  1.00  0.00     0.084 A 
ENDROOT
BRANCH   1  11
HETATM   11  N1  UNL     1      24.567   2.969  51.339  1.00  0.00     0.105 N 
HETATM   12  H8  UNL     1      25.318   3.333  51.935  1.00  0.00     0.317 HD
BRANCH  11  13
HETATM   13  C7  UNL     1      24.315   1.554  51.493  1.00  0.00     0.277 A 
HETATM   14  C6  UNL     1      25.465   0.847  52.109  1.00  0.00     0.011 A 
HETATM   15  C5  UNL     1      25.506   0.004  53.129  1.00  0.00    -0.001 A 
HETATM   16  C4  UNL     1      24.211  -0.272  53.742  1.00  0.00     0.009 A 
HETATM   17  C3  UNL     1      23.102   0.315  53.262  1.00  0.00    -0.028 A 
HETATM   18  C17 UNL     1      23.009   1.252  52.136  1.00  0.00     0.188 A 
BRANCH  17  19
HETATM   19  C2  UNL     1      21.888  -0.060  53.978  1.00  0.00    -0.001 C 
HETATM   20  C1  UNL     1      21.932  -0.964  54.945  1.00  0.00     0.012 C 
ENDBRANCH  17  19
BRANCH  18  21
HETATM   21  O2  UNL     1      22.041   0.796  51.246  1.00  0.00    -0.388 OA
HETATM   22  H18 UNL     1      22.363   1.122  50.347  1.00  0.00     0.210 HD
ENDBRANCH  18  21
ENDBRANCH  11  13
ENDBRANCH   1  11
BRANCH  10  23
HETATM   23  O1  UNL     1      22.895   4.981  51.393  1.00  0.00    -0.362 OA
HETATM   24  H16 UNL     1      22.535   5.367  52.254  1.00  0.00     0.217 HD
ENDBRANCH  10  23
TORSDOF 5
ENDMDL
MODEL 7
REMARK VINA RESULT:      -6.6      7.862     10.029
REMARK  5 active torsions:
REMARK  status: ('A' for Active; 'I' for Inactive)
REMARK    1  A    between atoms: C2_2  and  C3_3 
REMARK    2  A    between atoms: C7_7  and  N1_8 
REMARK    3  A    between atoms: N1_8  and  C8_9 
REMARK    4  A    between atoms: C16_18  and  O1_19 
REMARK    5  A    between atoms: C17_20  and  O2_21 
ROOT
HETATM    1  C8  UNL     1      29.697  10.325  47.961  1.00  0.00     0.311 A 
HETATM    2  C9  UNL     1      30.828  11.269  47.917  1.00  0.00     0.268 A 
HETATM    3  C10 UNL     1      32.094  11.684  47.834  1.00  0.00     0.305 A 
HETATM    4  N2  UNL     1      31.768  10.312  47.791  1.00  0.00     0.134 N 
HETATM    5  C11 UNL     1      30.762   9.275  47.820  1.00  0.00     0.245 A 
HETATM    6  C12 UNL     1      30.643   8.526  46.529  1.00  0.00     0.078 A 
HETATM    7  C13 UNL     1      30.757   7.048  46.697  1.00  0.00    -0.024 A 
HETATM    8  C14 UNL     1      30.944   6.377  47.823  1.00  0.00    -0.001 A 
HETATM    9  C15 UNL     1      31.060   7.087  49.081  1.00  0.00     0.034 A 
HETATM   10  C16 UNL     1      30.967   8.404  48.994  1.00  0.00     0.084 A 
ENDROOT
BRANCH   1  11
HETATM   11  N1  UNL     1      28.936  10.300  49.167  1.00  0.00     0.105 N 
HETATM   12  H8  UNL     1      29.476   9.872  49.926  1.00  0.00     0.317 HD
BRANCH  11  13
HETATM   13  C7  UNL     1      27.608   9.755  48.997  1.00  0.00     0.277 A 
HETATM   14  C6  UNL     1      27.083   9.984  47.628  1.00  0.00     0.011 A 
HETATM   15  C5  UNL     1      26.530   9.141  46.771  1.00  0.00    -0.001 A 
HETATM   16  C4  UNL     1      26.420   7.768  47.253  1.00  0.00     0.009 A 
HETATM   17  C3  UNL     1      26.864   7.450  48.481  1.00  0.00    -0.028 A 
HETATM   18  C17 UNL     1      27.481   8.349  49.463  1.00  0.00     0.188 A 
BRANCH  17  19
HETATM   19  C2  UNL     1      26.685   6.042  48.818  1.00  0.00    -0.001 C 
HETATM   20  C1  UNL     1      27.638   5.163  48.552  1.00  0.00     0.012 C 
ENDBRANCH  17  19
BRANCH  18  21
HETATM   21  O2  UNL     1      26.811   8.221  50.677  1.00  0.00    -0.388 OA
HETATM   22  H18 UNL     1      27.338   7.518  51.174  1.00  0.00     0.210 HD
ENDBRANCH  18  21
ENDBRANCH  11  13
ENDBRANCH   1  11
BRANCH  10  23
HETATM   23  O1  UNL     1      31.070   9.154  50.158  1.00  0.00    -0.362 OA
HETATM   24  H16 UNL     1      31.432   8.707  50.989  1.00  0.00     0.217 HD
ENDBRANCH  10  23
TORSDOF 5
ENDMDL
MODEL 8
REMARK VINA RESULT:      -6.6      1.736      2.372
REMARK  5 active torsions:
REMARK  status: ('A' for Active; 'I' for Inactive)
REMARK    1  A    between atoms: C2_2  and  C3_3 
REMARK    2  A    between atoms: C7_7  and  N1_8 
REMARK    3  A    between atoms: N1_8  and  C8_9 
REMARK    4  A    between atoms: C16_18  and  O1_19 
REMARK    5  A    between atoms: C17_20  and  O2_21 
ROOT
HETATM    1  C8  UNL     1      25.157   3.708  51.219  1.00  0.00     0.311 A 
HETATM    2  C9  UNL     1      26.043   4.122  50.117  1.00  0.00     0.268 A 
HETATM    3  C10 UNL     1      26.418   4.723  48.986  1.00  0.00     0.305 A 
HETATM    4  N2  UNL     1      25.102   4.844  49.480  1.00  0.00     0.134 N 
HETATM    5  C11 UNL     1      24.123   4.519  50.491  1.00  0.00     0.245 A 
HETATM    6  C12 UNL     1      23.678   5.705  51.291  1.00  0.00     0.078 A 
HETATM    7  C13 UNL     1      22.195   5.871  51.315  1.00  0.00    -0.024 A 
HETATM    8  C14 UNL     1      21.289   5.106  50.727  1.00  0.00    -0.001 A 
HETATM    9  C15 UNL     1      21.703   3.954  49.951  1.00  0.00     0.034 A 
HETATM   10  C16 UNL     1      23.010   3.757  49.893  1.00  0.00     0.084 A 
ENDROOT
BRANCH   1  11
HETATM   11  N1  UNL     1      24.899   2.310  51.338  1.00  0.00     0.105 N 
HETATM   12  H8  UNL     1      24.041   2.057  50.837  1.00  0.00     0.317 HD
BRANCH  11  13
HETATM   13  C7  UNL     1      24.961   1.828  52.700  1.00  0.00     0.277 A 
HETATM   14  C6  UNL     1      24.065   0.666  52.919  1.00  0.00     0.011 A 
HETATM   15  C5  UNL     1      24.308  -0.511  53.475  1.00  0.00    -0.001 A 
HETATM   16  C4  UNL     1      25.678  -0.689  53.946  1.00  0.00     0.009 A 
HETATM   17  C3  UNL     1      26.573   0.301  53.798  1.00  0.00    -0.028 A 
HETATM   18  C17 UNL     1      26.348   1.618  53.191  1.00  0.00     0.188 A 
BRANCH  17  19
HETATM   19  C2  UNL     1      27.896  -0.027  54.317  1.00  0.00    -0.001 C 
HETATM   20  C1  UNL     1      28.777  -0.656  53.555  1.00  0.00     0.012 C 
ENDBRANCH  17  19
BRANCH  18  21
HETATM   21  O2  UNL     1      26.782   2.604  54.073  1.00  0.00    -0.388 OA
HETATM   22  H18 UNL     1      27.083   3.356  53.471  1.00  0.00     0.210 HD
ENDBRANCH  18  21
ENDBRANCH  11  13
ENDBRANCH   1  11
BRANCH  10  23
HETATM   23  O1  UNL     1      23.484   2.672  49.166  1.00  0.00    -0.362 OA
HETATM   24  H16 UNL     1      22.848   2.193  48.545  1.00  0.00     0.217 HD
ENDBRANCH  10  23
TORSDOF 5
ENDMDL
MODEL 9
REMARK VINA RESULT:      -6.6      2.662      4.688
REMARK  5 active torsions:
REMARK  status: ('A' for Active; 'I' for Inactive)
REMARK    1  A    between atoms: C2_2  and  C3_3 
REMARK    2  A    between atoms: C7_7  and  N1_8 
REMARK    3  A    between atoms: N1_8  and  C8_9 
REMARK    4  A    between atoms: C16_18  and  O1_19 
REMARK    5  A    between atoms: C17_20  and  O2_21 
ROOT
HETATM    1  C8  UNL     1      22.889   5.514  50.103  1.00  0.00     0.311 A 
HETATM    2  C9  UNL     1      21.818   6.429  50.537  1.00  0.00     0.268 A 
HETATM    3  C10 UNL     1      21.193   7.585  50.764  1.00  0.00     0.305 A 
HETATM    4  N2  UNL     1      22.483   7.550  50.195  1.00  0.00     0.134 N 
HETATM    5  C11 UNL     1      23.611   6.776  49.728  1.00  0.00     0.245 A 
HETATM    6  C12 UNL     1      23.831   6.878  48.251  1.00  0.00     0.078 A 
HETATM    7  C13 UNL     1      25.222   7.283  47.893  1.00  0.00    -0.024 A 
HETATM    8  C14 UNL     1      26.222   7.545  48.719  1.00  0.00    -0.001 A 
HETATM    9  C15 UNL     1      26.026   7.451  50.152  1.00  0.00     0.034 A 
HETATM   10  C16 UNL     1      24.809   7.095  50.529  1.00  0.00     0.084 A 
ENDROOT
BRANCH   1  11
HETATM   11  N1  UNL     1      23.493   4.714  51.117  1.00  0.00     0.105 N 
HETATM   12  H8  UNL     1      24.151   5.270  51.673  1.00  0.00     0.317 HD
BRANCH  11  13
HETATM   13  C7  UNL     1      24.033   3.467  50.622  1.00  0.00     0.277 A 
HETATM   14  C6  UNL     1      25.224   3.680  49.764  1.00  0.00     0.011 A 
HETATM   15  C5  UNL     1      26.418   3.109  49.798  1.00  0.00    -0.001 A 
HETATM   16  C4  UNL     1      26.584   2.110  50.850  1.00  0.00     0.009 A 
HETATM   17  C3  UNL     1      25.567   1.839  51.685  1.00  0.00    -0.028 A 
HETATM   18  C17 UNL     1      24.230   2.445  51.682  1.00  0.00     0.188 A 
BRANCH  17  19
HETATM   19  C2  UNL     1      25.886   0.821  52.680  1.00  0.00    -0.001 C 
HETATM   20  C1  UNL     1      26.547  -0.272  52.332  1.00  0.00     0.012 C 
ENDBRANCH  17  19
BRANCH  18  21
HETATM   21  O2  UNL     1      23.274   1.433  51.667  1.00  0.00    -0.388 OA
HETATM   22  H18 UNL     1      22.464   1.868  51.252  1.00  0.00     0.210 HD
ENDBRANCH  18  21
ENDBRANCH  11  13
ENDBRANCH   1  11
BRANCH  10  23
HETATM   23  O1  UNL     1      24.543   6.983  51.888  1.00  0.00    -0.362 OA
HETATM   24  H16 UNL     1      24.854   7.722  52.502  1.00  0.00     0.217 HD
ENDBRANCH  10  23
TORSDOF 5
ENDMDL
