MODEL 1
REMARK VINA RESULT:      -7.8      0.000      0.000
REMARK  9 active torsions:
REMARK  status: ('A' for Active; 'I' for Inactive)
REMARK    1  A    between atoms: N1_2  and  C3_4 
REMARK    2  A    between atoms: C3_4  and  C4_5 
REMARK    3  A    between atoms: C4_5  and  N2_6 
REMARK    4  A    between atoms: C4_5  and  C13_19 
REMARK    5  A    between atoms: N2_6  and  N3_7 
REMARK       I    between atoms: N3_7  and  C5_8 
REMARK       I    between atoms: C5_8  and  N4_10 
REMARK    6  A    between atoms: N4_10  and  O2_11 
REMARK    7  A    between atoms: O2_11  and  C6_12 
REMARK    8  A    between atoms: C6_12  and  C7_13 
REMARK    9  A    between atoms: C13_19  and  C14_21 
ROOT
HETATM    1  N2  UNL     1      26.567  -0.424  52.042  1.00  0.00    -0.318 N 
HETATM    2  H10 UNL     1      26.336  -1.183  51.407  1.00  0.00     0.181 HD
ENDROOT
BRANCH   1   3
HETATM    3  C4  UNL     1      26.498  -0.718  53.457  1.00  0.00     0.202 C 
BRANCH   3   4
HETATM    4  C3  UNL     1      27.666  -0.213  54.217  1.00  0.00     0.306 C 
BRANCH   4   5
HETATM    5  N1  UNL     1      28.824   0.149  53.474  1.00  0.00     0.082 N 
HETATM    6  C1  UNL     1      29.847  -0.893  53.671  1.00  0.00     0.309 C 
HETATM    7  C2  UNL     1      29.455   1.367  54.008  1.00  0.00     0.309 C 
ENDBRANCH   4   5
ENDBRANCH   3   4
BRANCH   3   8
HETATM    8  C13 UNL     1      25.170  -0.336  53.950  1.00  0.00     0.181 C 
HETATM    9  O3  UNL     1      25.860   0.512  54.564  1.00  0.00    -0.290 OA
BRANCH   8  10
HETATM   10  C14 UNL     1      23.739  -0.538  53.970  1.00  0.00    -0.007 A 
HETATM   11  C15 UNL     1      22.996  -1.194  54.842  1.00  0.00     0.011 A 
HETATM   12  C16 UNL     1      21.642  -1.052  54.344  1.00  0.00    -0.003 A 
HETATM   13  C17 UNL     1      21.596  -0.343  53.228  1.00  0.00    -0.022 A 
HETATM   14  C18 UNL     1      22.967   0.079  52.850  1.00  0.00     0.069 A 
ENDBRANCH   8  10
ENDBRANCH   3   8
ENDBRANCH   1   3
BRANCH   1  15
HETATM   15  N3  UNL     1      26.228   0.856  51.687  1.00  0.00    -0.254 N 
HETATM   16  C5  UNL     1      26.211   2.242  51.399  1.00  0.00     0.358 C 
HETATM   17  O1  UNL     1      27.302   2.787  51.591  1.00  0.00    -0.243 OA
HETATM   18  N4  UNL     1      25.048   2.895  50.943  1.00  0.00    -0.215 N 
HETATM   19  H12 UNL     1      24.130   2.425  50.784  1.00  0.00     0.199 HD
HETATM   20  H11 UNL     1      25.316   0.326  51.545  1.00  0.00     0.191 HD
BRANCH  18  21
HETATM   21  O2  UNL     1      25.344   4.215  50.756  1.00  0.00    -0.272 OA
BRANCH  21  22
HETATM   22  C6  UNL     1      25.174   4.396  49.363  1.00  0.00     0.240 C 
BRANCH  22  23
HETATM   23  C7  UNL     1      26.361   5.174  48.890  1.00  0.00    -0.032 A 
HETATM   24  C8  UNL     1      26.115   6.504  48.618  1.00  0.00     0.009 A 
HETATM   25  C9  UNL     1      27.096   7.385  48.169  1.00  0.00     0.001 A 
HETATM   26  C10 UNL     1      28.368   6.849  48.002  1.00  0.00     0.000 A 
HETATM   27  C11 UNL     1      28.645   5.517  48.267  1.00  0.00     0.001 A 
HETATM   28  C12 UNL     1      27.632   4.684  48.712  1.00  0.00     0.009 A 
ENDBRANCH  22  23
ENDBRANCH  21  22
ENDBRANCH  18  21
ENDBRANCH   1  15
TORSDOF 9
ENDMDL
MODEL 2
REMARK VINA RESULT:      -7.6      3.283      4.646
REMARK  9 active torsions:
REMARK  status: ('A' for Active; 'I' for Inactive)
REMARK    1  A    between atoms: N1_2  and  C3_4 
REMARK    2  A    between atoms: C3_4  and  C4_5 
REMARK    3  A    between atoms: C4_5  and  N2_6 
REMARK    4  A    between atoms: C4_5  and  C13_19 
REMARK    5  A    between atoms: N2_6  and  N3_7 
REMARK       I    between atoms: N3_7  and  C5_8 
REMARK       I    between atoms: C5_8  and  N4_10 
REMARK    6  A    between atoms: N4_10  and  O2_11 
REMARK    7  A    between atoms: O2_11  and  C6_12 
REMARK    8  A    between atoms: C6_12  and  C7_13 
REMARK    9  A    between atoms: C13_19  and  C14_21 
ROOT
HETATM    1  N2  UNL     1      26.544   1.815  54.301  1.00  0.00    -0.318 N 
HETATM    2  H10 UNL     1      27.404   2.281  54.576  1.00  0.00     0.181 HD
ENDROOT
BRANCH   1   3
HETATM    3  C4  UNL     1      26.645   0.409  53.972  1.00  0.00     0.202 C 
BRANCH   3   4
HETATM    4  C3  UNL     1      27.943  -0.191  54.363  1.00  0.00     0.306 C 
BRANCH   4   5
HETATM    5  N1  UNL     1      28.827  -0.579  53.318  1.00  0.00     0.082 N 
HETATM    6  C1  UNL     1      28.892  -2.050  53.286  1.00  0.00     0.309 C 
HETATM    7  C2  UNL     1      30.214  -0.171  53.599  1.00  0.00     0.309 C 
ENDBRANCH   4   5
ENDBRANCH   3   4
BRANCH   3   8
HETATM    8  C13 UNL     1      25.433  -0.270  54.441  1.00  0.00     0.181 C 
HETATM    9  O3  UNL     1      26.193  -0.540  55.400  1.00  0.00    -0.290 OA
BRANCH   8  10
HETATM   10  C14 UNL     1      24.048  -0.637  54.241  1.00  0.00    -0.007 A 
HETATM   11  C15 UNL     1      23.273  -0.445  53.190  1.00  0.00     0.011 A 
HETATM   12  C16 UNL     1      21.999  -1.023  53.571  1.00  0.00    -0.003 A 
HETATM   13  C17 UNL     1      22.030  -1.530  54.792  1.00  0.00    -0.022 A 
HETATM   14  C18 UNL     1      23.378  -1.338  55.377  1.00  0.00     0.069 A 
ENDBRANCH   8  10
ENDBRANCH   3   8
ENDBRANCH   1   3
BRANCH   1  15
HETATM   15  N3  UNL     1      25.612   2.523  53.589  1.00  0.00    -0.254 N 
HETATM   16  C5  UNL     1      24.728   3.025  52.604  1.00  0.00     0.358 C 
HETATM   17  O1  UNL     1      24.777   2.392  51.545  1.00  0.00    -0.243 OA
HETATM   18  N4  UNL     1      23.894   4.136  52.846  1.00  0.00    -0.215 N 
HETATM   19  H12 UNL     1      23.860   4.664  53.744  1.00  0.00     0.199 HD
HETATM   20  H11 UNL     1      25.620   3.028  54.526  1.00  0.00     0.191 HD
BRANCH  18  21
HETATM   21  O2  UNL     1      23.165   4.378  51.716  1.00  0.00    -0.272 OA
BRANCH  21  22
HETATM   22  C6  UNL     1      21.827   4.326  52.172  1.00  0.00     0.240 C 
BRANCH  22  23
HETATM   23  C7  UNL     1      21.256   3.041  51.662  1.00  0.00    -0.032 A 
HETATM   24  C8  UNL     1      20.299   2.465  52.474  1.00  0.00     0.009 A 
HETATM   25  C9  UNL     1      19.655   1.269  52.164  1.00  0.00     0.001 A 
HETATM   26  C10 UNL     1      20.031   0.665  50.969  1.00  0.00     0.000 A 
HETATM   27  C11 UNL     1      20.988   1.218  50.135  1.00  0.00     0.001 A 
HETATM   28  C12 UNL     1      21.598   2.411  50.490  1.00  0.00     0.009 A 
ENDBRANCH  22  23
ENDBRANCH  21  22
ENDBRANCH  18  21
ENDBRANCH   1  15
TORSDOF 9
ENDMDL
MODEL 3
REMARK VINA RESULT:      -7.6      2.545      7.855
REMARK  9 active torsions:
REMARK  status: ('A' for Active; 'I' for Inactive)
REMARK    1  A    between atoms: N1_2  and  C3_4 
REMARK    2  A    between atoms: C3_4  and  C4_5 
REMARK    3  A    between atoms: C4_5  and  N2_6 
REMARK    4  A    between atoms: C4_5  and  C13_19 
REMARK    5  A    between atoms: N2_6  and  N3_7 
REMARK       I    between atoms: N3_7  and  C5_8 
REMARK       I    between atoms: C5_8  and  N4_10 
REMARK    6  A    between atoms: N4_10  and  O2_11 
REMARK    7  A    between atoms: O2_11  and  C6_12 
REMARK    8  A    between atoms: C6_12  and  C7_13 
REMARK    9  A    between atoms: C13_19  and  C14_21 
ROOT
HETATM    1  N2  UNL     1      23.532   4.130  52.067  1.00  0.00    -0.318 N 
HETATM    2  H10 UNL     1      22.598   4.160  52.465  1.00  0.00     0.181 HD
ENDROOT
BRANCH   1   3
HETATM    3  C4  UNL     1      23.623   4.123  50.623  1.00  0.00     0.202 C 
BRANCH   3   4
HETATM    4  C3  UNL     1      22.306   4.250  49.954  1.00  0.00     0.306 C 
BRANCH   4   5
HETATM    5  N1  UNL     1      21.169   3.747  50.645  1.00  0.00     0.082 N 
HETATM    6  C1  UNL     1      20.754   2.488  50.003  1.00  0.00     0.309 C 
HETATM    7  C2  UNL     1      20.000   4.627  50.484  1.00  0.00     0.309 C 
ENDBRANCH   4   5
ENDBRANCH   3   4
BRANCH   3   8
HETATM    8  C13 UNL     1      24.668   5.069  50.216  1.00  0.00     0.181 C 
HETATM    9  O3  UNL     1      23.962   5.841  50.906  1.00  0.00    -0.290 OA
BRANCH   8  10
HETATM   10  C14 UNL     1      25.890   5.347  49.495  1.00  0.00    -0.007 A 
HETATM   11  C15 UNL     1      26.326   6.486  48.992  1.00  0.00     0.011 A 
HETATM   12  C16 UNL     1      27.602   6.150  48.390  1.00  0.00    -0.003 A 
HETATM   13  C17 UNL     1      27.898   4.869  48.536  1.00  0.00    -0.022 A 
HETATM   14  C18 UNL     1      26.810   4.189  49.280  1.00  0.00     0.069 A 
ENDBRANCH   8  10
ENDBRANCH   3   8
ENDBRANCH   1   3
BRANCH   1  15
HETATM   15  N3  UNL     1      24.501   3.417  52.724  1.00  0.00    -0.254 N 
HETATM   16  C5  UNL     1      25.269   2.424  53.377  1.00  0.00     0.358 C 
HETATM   17  O1  UNL     1      24.686   1.338  53.456  1.00  0.00    -0.243 OA
HETATM   18  N4  UNL     1      26.562   2.686  53.874  1.00  0.00    -0.215 N 
HETATM   19  H12 UNL     1      27.047   3.607  53.802  1.00  0.00     0.199 HD
HETATM   20  H11 UNL     1      24.947   4.379  52.626  1.00  0.00     0.191 HD
BRANCH  18  21
HETATM   21  O2  UNL     1      27.042   1.542  54.446  1.00  0.00    -0.272 OA
BRANCH  21  22
HETATM   22  C6  UNL     1      28.308   1.376  53.836  1.00  0.00     0.240 C 
BRANCH  22  23
HETATM   23  C7  UNL     1      28.440  -0.082  53.529  1.00  0.00    -0.032 A 
HETATM   24  C8  UNL     1      27.303  -0.677  53.019  1.00  0.00     0.009 A 
HETATM   25  C9  UNL     1      27.237  -2.025  52.674  1.00  0.00     0.001 A 
HETATM   26  C10 UNL     1      28.398  -2.764  52.872  1.00  0.00     0.000 A 
HETATM   27  C11 UNL     1      29.554  -2.195  53.381  1.00  0.00     0.001 A 
HETATM   28  C12 UNL     1      29.567  -0.849  53.709  1.00  0.00     0.009 A 
ENDBRANCH  22  23
ENDBRANCH  21  22
ENDBRANCH  18  21
ENDBRANCH   1  15
TORSDOF 9
ENDMDL
MODEL 4
REMARK VINA RESULT:      -7.5      1.702      4.212
REMARK  9 active torsions:
REMARK  status: ('A' for Active; 'I' for Inactive)
REMARK    1  A    between atoms: N1_2  and  C3_4 
REMARK    2  A    between atoms: C3_4  and  C4_5 
REMARK    3  A    between atoms: C4_5  and  N2_6 
REMARK    4  A    between atoms: C4_5  and  C13_19 
REMARK    5  A    between atoms: N2_6  and  N3_7 
REMARK       I    between atoms: N3_7  and  C5_8 
REMARK       I    between atoms: C5_8  and  N4_10 
REMARK    6  A    between atoms: N4_10  and  O2_11 
REMARK    7  A    between atoms: O2_11  and  C6_12 
REMARK    8  A    between atoms: C6_12  and  C7_13 
REMARK    9  A    between atoms: C13_19  and  C14_21 
ROOT
HETATM    1  N2  UNL     1      25.172   2.782  53.473  1.00  0.00    -0.318 N 
HETATM    2  H10 UNL     1      25.456   3.326  54.283  1.00  0.00     0.181 HD
ENDROOT
BRANCH   1   3
HETATM    3  C4  UNL     1      25.283   1.343  53.588  1.00  0.00     0.202 C 
BRANCH   3   4
HETATM    4  C3  UNL     1      24.579   0.614  52.506  1.00  0.00     0.306 C 
BRANCH   4   5
HETATM    5  N1  UNL     1      23.362  -0.041  52.843  1.00  0.00     0.082 N 
HETATM    6  C1  UNL     1      22.318   0.982  53.025  1.00  0.00     0.309 C 
HETATM    7  C2  UNL     1      23.443  -0.699  54.157  1.00  0.00     0.309 C 
ENDBRANCH   4   5
ENDBRANCH   3   4
BRANCH   3   8
HETATM    8  C13 UNL     1      26.691   0.999  53.812  1.00  0.00     0.181 C 
HETATM    9  O3  UNL     1      26.648   2.076  54.452  1.00  0.00    -0.290 OA
BRANCH   8  10
HETATM   10  C14 UNL     1      27.806   0.101  53.610  1.00  0.00    -0.007 A 
HETATM   11  C15 UNL     1      27.811  -1.148  53.182  1.00  0.00     0.011 A 
HETATM   12  C16 UNL     1      29.211  -1.526  53.184  1.00  0.00    -0.003 A 
HETATM   13  C17 UNL     1      29.990  -0.539  53.596  1.00  0.00    -0.022 A 
HETATM   14  C18 UNL     1      29.161   0.646  53.924  1.00  0.00     0.069 A 
ENDBRANCH   8  10
ENDBRANCH   3   8
ENDBRANCH   1   3
BRANCH   1  15
HETATM   15  N3  UNL     1      25.403   3.294  52.223  1.00  0.00    -0.254 N 
HETATM   16  C5  UNL     1      25.925   3.622  50.949  1.00  0.00     0.358 C 
HETATM   17  O1  UNL     1      26.984   3.038  50.697  1.00  0.00    -0.243 OA
HETATM   18  N4  UNL     1      25.274   4.526  50.086  1.00  0.00    -0.215 N 
HETATM   19  H12 UNL     1      24.380   5.015  50.307  1.00  0.00     0.199 HD
HETATM   20  H11 UNL     1      24.492   3.767  52.503  1.00  0.00     0.191 HD
BRANCH  18  21
HETATM   21  O2  UNL     1      26.014   4.636  48.943  1.00  0.00    -0.272 OA
BRANCH  21  22
HETATM   22  C6  UNL     1      26.035   6.029  48.697  1.00  0.00     0.240 C 
BRANCH  22  23
HETATM   23  C7  UNL     1      27.409   6.350  48.200  1.00  0.00    -0.032 A 
HETATM   24  C8  UNL     1      28.363   5.386  48.460  1.00  0.00     0.009 A 
HETATM   25  C9  UNL     1      29.695   5.508  48.073  1.00  0.00     0.001 A 
HETATM   26  C10 UNL     1      30.031   6.676  47.397  1.00  0.00     0.000 A 
HETATM   27  C11 UNL     1      29.096   7.660  47.121  1.00  0.00     0.001 A 
HETATM   28  C12 UNL     1      27.782   7.489  47.528  1.00  0.00     0.009 A 
ENDBRANCH  22  23
ENDBRANCH  21  22
ENDBRANCH  18  21
ENDBRANCH   1  15
TORSDOF 9
ENDMDL
MODEL 5
REMARK VINA RESULT:      -7.4      1.285      1.842
REMARK  9 active torsions:
REMARK  status: ('A' for Active; 'I' for Inactive)
REMARK    1  A    between atoms: N1_2  and  C3_4 
REMARK    2  A    between atoms: C3_4  and  C4_5 
REMARK    3  A    between atoms: C4_5  and  N2_6 
REMARK    4  A    between atoms: C4_5  and  C13_19 
REMARK    5  A    between atoms: N2_6  and  N3_7 
REMARK       I    between atoms: N3_7  and  C5_8 
REMARK       I    between atoms: C5_8  and  N4_10 
REMARK    6  A    between atoms: N4_10  and  O2_11 
REMARK    7  A    between atoms: O2_11  and  C6_12 
REMARK    8  A    between atoms: C6_12  and  C7_13 
REMARK    9  A    between atoms: C13_19  and  C14_21 
ROOT
HETATM    1  N2  UNL     1      25.330   2.080  53.218  1.00  0.00    -0.318 N 
HETATM    2  H10 UNL     1      25.222   2.582  54.094  1.00  0.00     0.181 HD
ENDROOT
BRANCH   1   3
HETATM    3  C4  UNL     1      25.885   0.746  53.299  1.00  0.00     0.202 C 
BRANCH   3   4
HETATM    4  C3  UNL     1      27.157   0.687  54.058  1.00  0.00     0.306 C 
BRANCH   4   5
HETATM    5  N1  UNL     1      28.352   1.018  53.361  1.00  0.00     0.082 N 
HETATM    6  C1  UNL     1      29.427   0.127  53.831  1.00  0.00     0.309 C 
HETATM    7  C2  UNL     1      28.833   2.364  53.713  1.00  0.00     0.309 C 
ENDBRANCH   4   5
ENDBRANCH   3   4
BRANCH   3   8
HETATM    8  C13 UNL     1      24.824  -0.179  53.711  1.00  0.00     0.181 C 
HETATM    9  O3  UNL     1      25.804  -0.955  53.795  1.00  0.00    -0.290 OA
BRANCH   8  10
HETATM   10  C14 UNL     1      23.427  -0.438  53.981  1.00  0.00    -0.007 A 
HETATM   11  C15 UNL     1      22.878  -1.172  54.931  1.00  0.00     0.011 A 
HETATM   12  C16 UNL     1      21.451  -1.055  54.698  1.00  0.00    -0.003 A 
HETATM   13  C17 UNL     1      21.180  -0.286  53.657  1.00  0.00    -0.022 A 
HETATM   14  C18 UNL     1      22.444   0.211  53.062  1.00  0.00     0.069 A 
ENDBRANCH   8  10
ENDBRANCH   3   8
ENDBRANCH   1   3
BRANCH   1  15
HETATM   15  N3  UNL     1      25.656   2.788  52.091  1.00  0.00    -0.254 N 
HETATM   16  C5  UNL     1      26.166   3.229  50.846  1.00  0.00     0.358 C 
HETATM   17  O1  UNL     1      26.859   2.377  50.280  1.00  0.00    -0.243 OA
HETATM   18  N4  UNL     1      25.890   4.515  50.339  1.00  0.00    -0.215 N 
HETATM   19  H12 UNL     1      25.303   5.228  50.825  1.00  0.00     0.199 HD
HETATM   20  H11 UNL     1      25.053   3.478  52.632  1.00  0.00     0.191 HD
BRANCH  18  21
HETATM   21  O2  UNL     1      26.516   4.643  49.132  1.00  0.00    -0.272 OA
BRANCH  21  22
HETATM   22  C6  UNL     1      26.410   6.026  48.853  1.00  0.00     0.240 C 
BRANCH  22  23
HETATM   23  C7  UNL     1      27.701   6.427  48.211  1.00  0.00    -0.032 A 
HETATM   24  C8  UNL     1      28.740   5.535  48.385  1.00  0.00     0.009 A 
HETATM   25  C9  UNL     1      30.014   5.738  47.860  1.00  0.00     0.001 A 
HETATM   26  C10 UNL     1      30.197   6.910  47.135  1.00  0.00     0.000 A 
HETATM   27  C11 UNL     1      29.173   7.823  46.943  1.00  0.00     0.001 A 
HETATM   28  C12 UNL     1      27.924   7.573  47.486  1.00  0.00     0.009 A 
ENDBRANCH  22  23
ENDBRANCH  21  22
ENDBRANCH  18  21
ENDBRANCH   1  15
TORSDOF 9
ENDMDL
MODEL 6
REMARK VINA RESULT:      -7.4      3.794      7.444
REMARK  9 active torsions:
REMARK  status: ('A' for Active; 'I' for Inactive)
REMARK    1  A    between atoms: N1_2  and  C3_4 
REMARK    2  A    between atoms: C3_4  and  C4_5 
REMARK    3  A    between atoms: C4_5  and  N2_6 
REMARK    4  A    between atoms: C4_5  and  C13_19 
REMARK    5  A    between atoms: N2_6  and  N3_7 
REMARK       I    between atoms: N3_7  and  C5_8 
REMARK       I    between atoms: C5_8  and  N4_10 
REMARK    6  A    between atoms: N4_10  and  O2_11 
REMARK    7  A    between atoms: O2_11  and  C6_12 
REMARK    8  A    between atoms: C6_12  and  C7_13 
REMARK    9  A    between atoms: C13_19  and  C14_21 
ROOT
HETATM    1  N2  UNL     1      25.712  -0.655  55.016  1.00  0.00    -0.318 N 
HETATM    2  H10 UNL     1      25.962  -0.542  55.994  1.00  0.00     0.181 HD
ENDROOT
BRANCH   1   3
HETATM    3  C4  UNL     1      26.487   0.101  54.056  1.00  0.00     0.202 C 
BRANCH   3   4
HETATM    4  C3  UNL     1      27.710  -0.605  53.606  1.00  0.00     0.306 C 
BRANCH   4   5
HETATM    5  N1  UNL     1      28.920  -0.327  54.301  1.00  0.00     0.082 N 
HETATM    6  C1  UNL     1      29.080   1.134  54.391  1.00  0.00     0.309 C 
HETATM    7  C2  UNL     1      30.100  -0.764  53.536  1.00  0.00     0.309 C 
ENDBRANCH   4   5
ENDBRANCH   3   4
BRANCH   3   8
HETATM    8  C13 UNL     1      25.584   0.595  53.011  1.00  0.00     0.181 C 
HETATM    9  O3  UNL     1      26.002  -0.438  52.437  1.00  0.00    -0.290 OA
BRANCH   8  10
HETATM   10  C14 UNL     1      24.639   1.583  52.539  1.00  0.00    -0.007 A 
HETATM   11  C15 UNL     1      23.797   1.522  51.525  1.00  0.00     0.011 A 
HETATM   12  C16 UNL     1      23.116   2.802  51.543  1.00  0.00    -0.003 A 
HETATM   13  C17 UNL     1      23.543   3.578  52.526  1.00  0.00    -0.022 A 
HETATM   14  C18 UNL     1      24.594   2.870  53.297  1.00  0.00     0.069 A 
ENDBRANCH   8  10
ENDBRANCH   3   8
ENDBRANCH   1   3
BRANCH   1  15
HETATM   15  N3  UNL     1      24.393  -0.844  54.694  1.00  0.00    -0.254 N 
HETATM   16  C5  UNL     1      23.020  -1.187  54.676  1.00  0.00     0.358 C 
HETATM   17  O1  UNL     1      22.653  -1.762  55.706  1.00  0.00    -0.243 OA
HETATM   18  N4  UNL     1      22.190  -0.888  53.576  1.00  0.00    -0.215 N 
HETATM   19  H12 UNL     1      22.509  -0.402  52.710  1.00  0.00     0.199 HD
HETATM   20  H11 UNL     1      24.774  -0.348  53.832  1.00  0.00     0.191 HD
BRANCH  18  21
HETATM   21  O2  UNL     1      20.931  -1.341  53.854  1.00  0.00    -0.272 OA
BRANCH  21  22
HETATM   22  C6  UNL     1      20.109  -0.232  53.546  1.00  0.00     0.240 C 
BRANCH  22  23
HETATM   23  C7  UNL     1      18.800  -0.792  53.086  1.00  0.00    -0.032 A 
HETATM   24  C8  UNL     1      18.197  -0.096  52.057  1.00  0.00     0.009 A 
HETATM   25  C9  UNL     1      16.977  -0.467  51.497  1.00  0.00     0.001 A 
HETATM   26  C10 UNL     1      16.377  -1.600  52.036  1.00  0.00     0.000 A 
HETATM   27  C11 UNL     1      16.958  -2.319  53.068  1.00  0.00     0.001 A 
HETATM   28  C12 UNL     1      18.174  -1.907  53.589  1.00  0.00     0.009 A 
ENDBRANCH  22  23
ENDBRANCH  21  22
ENDBRANCH  18  21
ENDBRANCH   1  15
TORSDOF 9
ENDMDL
MODEL 7
REMARK VINA RESULT:      -7.2      3.317      6.588
REMARK  9 active torsions:
REMARK  status: ('A' for Active; 'I' for Inactive)
REMARK    1  A    between atoms: N1_2  and  C3_4 
REMARK    2  A    between atoms: C3_4  and  C4_5 
REMARK    3  A    between atoms: C4_5  and  N2_6 
REMARK    4  A    between atoms: C4_5  and  C13_19 
REMARK    5  A    between atoms: N2_6  and  N3_7 
REMARK       I    between atoms: N3_7  and  C5_8 
REMARK       I    between atoms: C5_8  and  N4_10 
REMARK    6  A    between atoms: N4_10  and  O2_11 
REMARK    7  A    between atoms: O2_11  and  C6_12 
REMARK    8  A    between atoms: C6_12  and  C7_13 
REMARK    9  A    between atoms: C13_19  and  C14_21 
ROOT
HETATM    1  N2  UNL     1      22.109   3.890  51.771  1.00  0.00    -0.318 N 
HETATM    2  H10 UNL     1      21.752   4.763  52.150  1.00  0.00     0.181 HD
ENDROOT
BRANCH   1   3
HETATM    3  C4  UNL     1      21.129   2.878  51.439  1.00  0.00     0.202 C 
BRANCH   3   4
HETATM    4  C3  UNL     1      21.288   2.337  50.069  1.00  0.00     0.306 C 
BRANCH   4   5
HETATM    5  N1  UNL     1      21.382   3.273  49.002  1.00  0.00     0.082 N 
HETATM    6  C1  UNL     1      20.442   2.868  47.943  1.00  0.00     0.309 C 
HETATM    7  C2  UNL     1      22.698   3.218  48.343  1.00  0.00     0.309 C 
ENDBRANCH   4   5
ENDBRANCH   3   4
BRANCH   3   8
HETATM    8  C13 UNL     1      21.073   1.904  52.535  1.00  0.00     0.181 C 
HETATM    9  O3  UNL     1      20.278   2.759  52.992  1.00  0.00    -0.290 OA
BRANCH   8  10
HETATM   10  C14 UNL     1      21.497   0.649  53.114  1.00  0.00    -0.007 A 
HETATM   11  C15 UNL     1      22.426  -0.194  52.703  1.00  0.00     0.011 A 
HETATM   12  C16 UNL     1      22.399  -1.265  53.680  1.00  0.00    -0.003 A 
HETATM   13  C17 UNL     1      21.492  -1.057  54.620  1.00  0.00    -0.022 A 
HETATM   14  C18 UNL     1      20.792   0.224  54.361  1.00  0.00     0.069 A 
ENDBRANCH   8  10
ENDBRANCH   3   8
ENDBRANCH   1   3
BRANCH   1  15
HETATM   15  N3  UNL     1      23.313   3.420  52.226  1.00  0.00    -0.254 N 
HETATM   16  C5  UNL     1      24.582   2.810  52.372  1.00  0.00     0.358 C 
HETATM   17  O1  UNL     1      24.970   2.252  51.341  1.00  0.00    -0.243 OA
HETATM   18  N4  UNL     1      25.297   2.855  53.587  1.00  0.00    -0.215 N 
HETATM   19  H12 UNL     1      24.960   3.329  54.453  1.00  0.00     0.199 HD
HETATM   20  H11 UNL     1      22.919   3.916  53.082  1.00  0.00     0.191 HD
BRANCH  18  21
HETATM   21  O2  UNL     1      26.474   2.184  53.416  1.00  0.00    -0.272 OA
BRANCH  21  22
HETATM   22  C6  UNL     1      26.405   1.151  54.380  1.00  0.00     0.240 C 
BRANCH  22  23
HETATM   23  C7  UNL     1      27.415   0.125  53.972  1.00  0.00    -0.032 A 
HETATM   24  C8  UNL     1      26.918  -0.909  53.205  1.00  0.00     0.009 A 
HETATM   25  C9  UNL     1      27.708  -1.955  52.732  1.00  0.00     0.001 A 
HETATM   26  C10 UNL     1      29.054  -1.909  53.077  1.00  0.00     0.000 A 
HETATM   27  C11 UNL     1      29.581  -0.884  53.845  1.00  0.00     0.001 A 
HETATM   28  C12 UNL     1      28.752   0.133  54.291  1.00  0.00     0.009 A 
ENDBRANCH  22  23
ENDBRANCH  21  22
ENDBRANCH  18  21
ENDBRANCH   1  15
TORSDOF 9
ENDMDL
MODEL 8
REMARK VINA RESULT:      -7.2      2.141      3.227
REMARK  9 active torsions:
REMARK  status: ('A' for Active; 'I' for Inactive)
REMARK    1  A    between atoms: N1_2  and  C3_4 
REMARK    2  A    between atoms: C3_4  and  C4_5 
REMARK    3  A    between atoms: C4_5  and  N2_6 
REMARK    4  A    between atoms: C4_5  and  C13_19 
REMARK    5  A    between atoms: N2_6  and  N3_7 
REMARK       I    between atoms: N3_7  and  C5_8 
REMARK       I    between atoms: C5_8  and  N4_10 
REMARK    6  A    between atoms: N4_10  and  O2_11 
REMARK    7  A    between atoms: O2_11  and  C6_12 
REMARK    8  A    between atoms: C6_12  and  C7_13 
REMARK    9  A    between atoms: C13_19  and  C14_21 
ROOT
HETATM    1  N2  UNL     1      24.754   3.379  52.046  1.00  0.00    -0.318 N 
HETATM    2  H10 UNL     1      24.333   4.050  52.683  1.00  0.00     0.181 HD
ENDROOT
BRANCH   1   3
HETATM    3  C4  UNL     1      25.091   2.085  52.599  1.00  0.00     0.202 C 
BRANCH   3   4
HETATM    4  C3  UNL     1      25.862   2.172  53.863  1.00  0.00     0.306 C 
BRANCH   4   5
HETATM    5  N1  UNL     1      27.087   1.454  53.933  1.00  0.00     0.082 N 
HETATM    6  C1  UNL     1      27.419   0.966  52.583  1.00  0.00     0.309 C 
HETATM    7  C2  UNL     1      26.953   0.222  54.728  1.00  0.00     0.309 C 
ENDBRANCH   4   5
ENDBRANCH   3   4
BRANCH   3   8
HETATM    8  C13 UNL     1      23.882   1.254  52.616  1.00  0.00     0.181 C 
HETATM    9  O3  UNL     1      23.994   1.413  51.378  1.00  0.00    -0.290 OA
BRANCH   8  10
HETATM   10  C14 UNL     1      22.881   0.518  53.356  1.00  0.00    -0.007 A 
HETATM   11  C15 UNL     1      21.588   0.752  53.480  1.00  0.00     0.011 A 
HETATM   12  C16 UNL     1      21.108  -0.316  54.335  1.00  0.00    -0.003 A 
HETATM   13  C17 UNL     1      22.079  -1.139  54.694  1.00  0.00    -0.022 A 
HETATM   14  C18 UNL     1      23.359  -0.690  54.094  1.00  0.00     0.069 A 
ENDBRANCH   8  10
ENDBRANCH   3   8
ENDBRANCH   1   3
BRANCH   1  15
HETATM   15  N3  UNL     1      25.593   3.840  51.066  1.00  0.00    -0.254 N 
HETATM   16  C5  UNL     1      26.498   3.976  49.986  1.00  0.00     0.358 C 
HETATM   17  O1  UNL     1      26.840   2.892  49.504  1.00  0.00    -0.243 OA
HETATM   18  N4  UNL     1      26.940   5.237  49.537  1.00  0.00    -0.215 N 
HETATM   19  H12 UNL     1      26.646   6.148  49.951  1.00  0.00     0.199 HD
HETATM   20  H11 UNL     1      25.262   4.739  51.529  1.00  0.00     0.191 HD
BRANCH  18  21
HETATM   21  O2  UNL     1      27.798   5.043  48.492  1.00  0.00    -0.272 OA
BRANCH  21  22
HETATM   22  C6  UNL     1      28.204   6.355  48.153  1.00  0.00     0.240 C 
BRANCH  22  23
HETATM   23  C7  UNL     1      29.698   6.367  48.229  1.00  0.00    -0.032 A 
HETATM   24  C8  UNL     1      30.312   5.197  47.830  1.00  0.00     0.009 A 
HETATM   25  C9  UNL     1      31.694   5.022  47.831  1.00  0.00     0.001 A 
HETATM   26  C10 UNL     1      32.447   6.107  48.264  1.00  0.00     0.000 A 
HETATM   27  C11 UNL     1      31.860   7.295  48.670  1.00  0.00     0.001 A 
HETATM   28  C12 UNL     1      30.480   7.417  48.649  1.00  0.00     0.009 A 
ENDBRANCH  22  23
ENDBRANCH  21  22
ENDBRANCH  18  21
ENDBRANCH   1  15
TORSDOF 9
ENDMDL
MODEL 9
REMARK VINA RESULT:      -7.0      2.521      7.711
REMARK  9 active torsions:
REMARK  status: ('A' for Active; 'I' for Inactive)
REMARK    1  A    between atoms: N1_2  and  C3_4 
REMARK    2  A    between atoms: C3_4  and  C4_5 
REMARK    3  A    between atoms: C4_5  and  N2_6 
REMARK    4  A    between atoms: C4_5  and  C13_19 
REMARK    5  A    between atoms: N2_6  and  N3_7 
REMARK       I    between atoms: N3_7  and  C5_8 
REMARK       I    between atoms: C5_8  and  N4_10 
REMARK    6  A    between atoms: N4_10  and  O2_11 
REMARK    7  A    between atoms: O2_11  and  C6_12 
REMARK    8  A    between atoms: C6_12  and  C7_13 
REMARK    9  A    between atoms: C13_19  and  C14_21 
ROOT
HETATM    1  N2  UNL     1      21.635   3.251  50.855  1.00  0.00    -0.318 N 
HETATM    2  H10 UNL     1      20.975   2.758  50.260  1.00  0.00     0.181 HD
ENDROOT
BRANCH   1   3
HETATM    3  C4  UNL     1      22.139   4.513  50.358  1.00  0.00     0.202 C 
BRANCH   3   4
HETATM    4  C3  UNL     1      22.220   5.562  51.402  1.00  0.00     0.306 C 
BRANCH   4   5
HETATM    5  N1  UNL     1      21.685   6.843  51.087  1.00  0.00     0.082 N 
HETATM    6  C1  UNL     1      20.714   6.684  49.992  1.00  0.00     0.309 C 
HETATM    7  C2  UNL     1      22.709   7.737  50.523  1.00  0.00     0.309 C 
ENDBRANCH   4   5
ENDBRANCH   3   4
BRANCH   3   8
HETATM    8  C13 UNL     1      23.355   4.258  49.580  1.00  0.00     0.181 C 
HETATM    9  O3  UNL     1      22.565   3.506  48.962  1.00  0.00    -0.290 OA
BRANCH   8  10
HETATM   10  C14 UNL     1      24.761   4.501  49.339  1.00  0.00    -0.007 A 
HETATM   11  C15 UNL     1      25.363   5.601  48.929  1.00  0.00     0.011 A 
HETATM   12  C16 UNL     1      26.768   5.245  48.875  1.00  0.00    -0.003 A 
HETATM   13  C17 UNL     1      26.976   3.990  49.239  1.00  0.00    -0.022 A 
HETATM   14  C18 UNL     1      25.683   3.352  49.588  1.00  0.00     0.069 A 
ENDBRANCH   8  10
ENDBRANCH   3   8
ENDBRANCH   1   3
BRANCH   1  15
HETATM   15  N3  UNL     1      22.516   2.518  51.606  1.00  0.00    -0.254 N 
HETATM   16  C5  UNL     1      23.566   2.073  52.445  1.00  0.00     0.358 C 
HETATM   17  O1  UNL     1      24.279   2.994  52.855  1.00  0.00    -0.243 OA
HETATM   18  N4  UNL     1      23.745   0.710  52.757  1.00  0.00    -0.215 N 
HETATM   19  H12 UNL     1      23.137  -0.061  52.407  1.00  0.00     0.199 HD
HETATM   20  H11 UNL     1      21.866   1.771  51.217  1.00  0.00     0.191 HD
BRANCH  18  21
HETATM   21  O2  UNL     1      24.831   0.598  53.579  1.00  0.00    -0.272 OA
BRANCH  21  22
HETATM   22  C6  UNL     1      25.493  -0.553  53.093  1.00  0.00     0.240 C 
BRANCH  22  23
HETATM   23  C7  UNL     1      26.934  -0.401  53.467  1.00  0.00    -0.032 A 
HETATM   24  C8  UNL     1      27.764  -1.405  53.010  1.00  0.00     0.009 A 
HETATM   25  C9  UNL     1      29.135  -1.433  53.258  1.00  0.00     0.001 A 
HETATM   26  C10 UNL     1      29.642  -0.377  54.007  1.00  0.00     0.000 A 
HETATM   27  C11 UNL     1      28.834   0.645  54.478  1.00  0.00     0.001 A 
HETATM   28  C12 UNL     1      27.476   0.625  54.203  1.00  0.00     0.009 A 
ENDBRANCH  22  23
ENDBRANCH  21  22
ENDBRANCH  18  21
ENDBRANCH   1  15
TORSDOF 9
ENDMDL
