MODEL 1
REMARK VINA RESULT:      -7.7      0.000      0.000
REMARK  8 active torsions:
REMARK  status: ('A' for Active; 'I' for Inactive)
REMARK    1  A    between atoms: C2_2  and  C3_3 
REMARK    2  A    between atoms: C3_3  and  C4_4 
REMARK    3  A    between atoms: C4_4  and  C5_5 
REMARK    4  A    between atoms: C6_6  and  O1_7 
REMARK    5  A    between atoms: C7_8  and  C8_9 
REMARK    6  A    between atoms: C8_9  and  O3_11 
REMARK    7  A    between atoms: C15_20  and  C16_21 
REMARK    8  A    between atoms: C16_21  and  C17_22 
ROOT
HETATM    1  C5  UNL     1      22.182   1.097  50.861  1.00  0.00     0.001 A 
HETATM    2  C6  UNL     1      22.698   1.916  49.792  1.00  0.00     0.089 A 
HETATM    3  C7  UNL     1      23.699   2.549  50.380  1.00  0.00     0.065 A 
HETATM    4  C10 UNL     1      23.887   2.199  51.794  1.00  0.00     0.037 A 
HETATM    5  C11 UNL     1      22.936   1.288  52.084  1.00  0.00    -0.052 A 
HETATM    6  C12 UNL     1      22.839   0.587  53.426  1.00  0.00     0.040 C 
HETATM    7  O4  UNL     1      23.995  -0.085  53.533  1.00  0.00     0.000 OA
HETATM    8  C13 UNL     1      25.063  -0.761  53.719  1.00  0.00     0.121 A 
HETATM    9  O5  UNL     1      24.256  -0.889  54.655  1.00  0.00    -0.194 OA
HETATM   10  C14 UNL     1      26.226  -0.763  52.692  1.00  0.00     0.105 C 
HETATM   11  C15 UNL     1      26.755   0.655  52.886  1.00  0.00    -0.066 C 
HETATM   12  C19 UNL     1      26.131   2.006  52.878  1.00  0.00     0.010 A 
HETATM   13  O6  UNL     1      25.173   1.448  52.439  1.00  0.00     0.000 OA
HETATM   14  C20 UNL     1      24.950   2.843  52.588  1.00  0.00     0.037 A 
ENDROOT
BRANCH   1  15
HETATM   15  C4  UNL     1      21.189   0.255  50.799  1.00  0.00     0.014 C 
BRANCH  15  16
HETATM   16  C3  UNL     1      19.845   0.444  51.185  1.00  0.00    -0.003 C 
BRANCH  16  17
HETATM   17  C2  UNL     1      18.750   0.110  51.794  1.00  0.00    -0.031 C 
HETATM   18  C1  UNL     1      19.138  -0.553  53.080  1.00  0.00     0.036 C 
ENDBRANCH  16  17
ENDBRANCH  15  16
ENDBRANCH   1  15
BRANCH   2  19
HETATM   19  O1  UNL     1      22.261   2.034  48.450  1.00  0.00    -0.359 OA
HETATM   20  H7  UNL     1      21.251   1.948  48.355  1.00  0.00     0.217 HD
ENDBRANCH   2  19
BRANCH   3  21
HETATM   21  C8  UNL     1      24.464   3.501  49.532  1.00  0.00     0.292 C 
HETATM   22  O2  UNL     1      23.914   4.476  48.931  1.00  0.00    -0.259 OA
BRANCH  21  23
HETATM   23  O3  UNL     1      25.815   3.440  49.300  1.00  0.00    -0.323 OA
HETATM   24  C9  UNL     1      26.683   4.527  49.227  1.00  0.00     0.213 C 
ENDBRANCH  21  23
ENDBRANCH   3  21
BRANCH  11  25
HETATM   25  C16 UNL     1      28.033   0.539  53.243  1.00  0.00    -0.023 C 
BRANCH  25  26
HETATM   26  C17 UNL     1      29.393   0.425  53.710  1.00  0.00     0.023 C 
HETATM   27  C18 UNL     1      29.895  -1.031  53.590  1.00  0.00     0.009 C 
ENDBRANCH  25  26
ENDBRANCH  11  25
TORSDOF 8
ENDMDL
MODEL 2
REMARK VINA RESULT:      -7.5      2.732      4.750
REMARK  8 active torsions:
REMARK  status: ('A' for Active; 'I' for Inactive)
REMARK    1  A    between atoms: C2_2  and  C3_3 
REMARK    2  A    between atoms: C3_3  and  C4_4 
REMARK    3  A    between atoms: C4_4  and  C5_5 
REMARK    4  A    between atoms: C6_6  and  O1_7 
REMARK    5  A    between atoms: C7_8  and  C8_9 
REMARK    6  A    between atoms: C8_9  and  O3_11 
REMARK    7  A    between atoms: C15_20  and  C16_21 
REMARK    8  A    between atoms: C16_21  and  C17_22 
ROOT
HETATM    1  C5  UNL     1      22.948   1.171  52.708  1.00  0.00     0.001 A 
HETATM    2  C6  UNL     1      21.658   1.663  52.290  1.00  0.00     0.089 A 
HETATM    3  C7  UNL     1      21.886   2.956  52.135  1.00  0.00     0.065 A 
HETATM    4  C10 UNL     1      23.267   3.364  52.427  1.00  0.00     0.037 A 
HETATM    5  C11 UNL     1      23.923   2.240  52.781  1.00  0.00    -0.052 A 
HETATM    6  C12 UNL     1      25.411   2.203  53.070  1.00  0.00     0.040 C 
HETATM    7  O4  UNL     1      25.982   2.578  51.914  1.00  0.00     0.000 OA
HETATM    8  C13 UNL     1      26.611   2.920  50.857  1.00  0.00     0.121 A 
HETATM    9  O5  UNL     1      27.380   2.635  51.791  1.00  0.00    -0.194 OA
HETATM   10  C14 UNL     1      25.874   3.327  49.554  1.00  0.00     0.105 C 
HETATM   11  C15 UNL     1      25.297   4.672  49.984  1.00  0.00    -0.066 C 
HETATM   12  C19 UNL     1      24.481   5.130  51.141  1.00  0.00     0.010 A 
HETATM   13  O6  UNL     1      24.338   3.969  51.368  1.00  0.00     0.000 OA
HETATM   14  C20 UNL     1      23.666   4.779  52.321  1.00  0.00     0.037 A 
ENDROOT
BRANCH   1  15
HETATM   15  C4  UNL     1      23.269  -0.063  52.976  1.00  0.00     0.014 C 
BRANCH  15  16
HETATM   16  C3  UNL     1      22.999  -0.813  54.141  1.00  0.00    -0.003 C 
BRANCH  16  17
HETATM   17  C2  UNL     1      22.218  -1.342  55.031  1.00  0.00    -0.031 C 
HETATM   18  C1  UNL     1      20.904  -1.617  54.366  1.00  0.00     0.036 C 
ENDBRANCH  16  17
ENDBRANCH  15  16
ENDBRANCH   1  15
BRANCH   2  19
HETATM   19  O1  UNL     1      20.442   0.963  52.093  1.00  0.00    -0.359 OA
HETATM   20  H7  UNL     1      19.707   1.263  52.730  1.00  0.00     0.217 HD
ENDBRANCH   2  19
BRANCH   3  21
HETATM   21  C8  UNL     1      20.730   3.781  51.698  1.00  0.00     0.292 C 
HETATM   22  O2  UNL     1      19.565   3.639  52.187  1.00  0.00    -0.259 OA
BRANCH  21  23
HETATM   23  O3  UNL     1      20.777   4.762  50.740  1.00  0.00    -0.323 OA
HETATM   24  C9  UNL     1      20.849   4.559  49.363  1.00  0.00     0.213 C 
ENDBRANCH  21  23
ENDBRANCH   3  21
BRANCH  11  25
HETATM   25  C16 UNL     1      25.776   5.580  49.135  1.00  0.00    -0.023 C 
BRANCH  25  26
HETATM   26  C17 UNL     1      26.324   6.608  48.284  1.00  0.00     0.023 C 
HETATM   27  C18 UNL     1      27.854   6.447  48.144  1.00  0.00     0.009 C 
ENDBRANCH  25  26
ENDBRANCH  11  25
TORSDOF 8
ENDMDL
MODEL 3
REMARK VINA RESULT:      -7.4      1.807      5.929
REMARK  8 active torsions:
REMARK  status: ('A' for Active; 'I' for Inactive)
REMARK    1  A    between atoms: C2_2  and  C3_3 
REMARK    2  A    between atoms: C3_3  and  C4_4 
REMARK    3  A    between atoms: C4_4  and  C5_5 
REMARK    4  A    between atoms: C6_6  and  O1_7 
REMARK    5  A    between atoms: C7_8  and  C8_9 
REMARK    6  A    between atoms: C8_9  and  O3_11 
REMARK    7  A    between atoms: C15_20  and  C16_21 
REMARK    8  A    between atoms: C16_21  and  C17_22 
ROOT
HETATM    1  C5  UNL     1      24.684   2.350  52.879  1.00  0.00     0.001 A 
HETATM    2  C6  UNL     1      24.101   3.400  52.080  1.00  0.00     0.089 A 
HETATM    3  C7  UNL     1      23.170   2.752  51.400  1.00  0.00     0.065 A 
HETATM    4  C10 UNL     1      23.094   1.315  51.699  1.00  0.00     0.037 A 
HETATM    5  C11 UNL     1      24.042   1.076  52.628  1.00  0.00    -0.052 A 
HETATM    6  C12 UNL     1      24.234  -0.276  53.289  1.00  0.00     0.040 C 
HETATM    7  O4  UNL     1      23.074  -0.502  53.925  1.00  0.00     0.000 OA
HETATM    8  C13 UNL     1      22.008  -0.799  54.563  1.00  0.00     0.121 A 
HETATM    9  O5  UNL     1      22.888  -1.669  54.685  1.00  0.00    -0.194 OA
HETATM   10  C14 UNL     1      20.763   0.125  54.564  1.00  0.00     0.105 C 
HETATM   11  C15 UNL     1      20.289  -0.065  53.126  1.00  0.00    -0.066 C 
HETATM   12  C19 UNL     1      20.945   0.042  51.794  1.00  0.00     0.010 A 
HETATM   13  O6  UNL     1      21.848   0.540  52.393  1.00  0.00     0.000 OA
HETATM   14  C20 UNL     1      22.119   0.457  51.001  1.00  0.00     0.037 A 
ENDROOT
BRANCH   1  15
HETATM   15  C4  UNL     1      25.646   2.468  53.751  1.00  0.00     0.014 C 
BRANCH  15  16
HETATM   16  C3  UNL     1      27.009   2.128  53.613  1.00  0.00    -0.003 C 
BRANCH  16  17
HETATM   17  C2  UNL     1      27.993   1.298  53.461  1.00  0.00    -0.031 C 
HETATM   18  C1  UNL     1      27.847   0.235  54.507  1.00  0.00     0.036 C 
ENDBRANCH  16  17
ENDBRANCH  15  16
ENDBRANCH   1  15
BRANCH   2  19
HETATM   19  O1  UNL     1      24.426   4.776  52.016  1.00  0.00    -0.359 OA
HETATM   20  H7  UNL     1      23.715   5.328  51.541  1.00  0.00     0.217 HD
ENDBRANCH   2  19
BRANCH   3  21
HETATM   21  C8  UNL     1      22.361   3.563  50.453  1.00  0.00     0.292 C 
HETATM   22  O2  UNL     1      22.873   4.165  49.457  1.00  0.00    -0.259 OA
BRANCH  21  23
HETATM   23  O3  UNL     1      21.006   3.760  50.541  1.00  0.00    -0.323 OA
HETATM   24  C9  UNL     1      20.259   3.798  51.715  1.00  0.00     0.213 C 
ENDBRANCH  21  23
ENDBRANCH   3  21
BRANCH  11  25
HETATM   25  C16 UNL     1      19.044  -0.530  53.194  1.00  0.00    -0.023 C 
BRANCH  25  26
HETATM   26  C17 UNL     1      17.725  -1.113  53.247  1.00  0.00     0.023 C 
HETATM   27  C18 UNL     1      17.801  -2.610  53.618  1.00  0.00     0.009 C 
ENDBRANCH  25  26
ENDBRANCH  11  25
TORSDOF 8
ENDMDL
MODEL 4
REMARK VINA RESULT:      -7.2      2.365      5.430
REMARK  8 active torsions:
REMARK  status: ('A' for Active; 'I' for Inactive)
REMARK    1  A    between atoms: C2_2  and  C3_3 
REMARK    2  A    between atoms: C3_3  and  C4_4 
REMARK    3  A    between atoms: C4_4  and  C5_5 
REMARK    4  A    between atoms: C6_6  and  O1_7 
REMARK    5  A    between atoms: C7_8  and  C8_9 
REMARK    6  A    between atoms: C8_9  and  O3_11 
REMARK    7  A    between atoms: C15_20  and  C16_21 
REMARK    8  A    between atoms: C16_21  and  C17_22 
ROOT
HETATM    1  C5  UNL     1      24.031   0.341  53.048  1.00  0.00     0.001 A 
HETATM    2  C6  UNL     1      25.348   0.567  53.592  1.00  0.00     0.089 A 
HETATM    3  C7  UNL     1      25.843   1.470  52.763  1.00  0.00     0.065 A 
HETATM    4  C10 UNL     1      24.927   1.867  51.685  1.00  0.00     0.037 A 
HETATM    5  C11 UNL     1      23.796   1.157  51.875  1.00  0.00    -0.052 A 
HETATM    6  C12 UNL     1      22.549   1.341  51.031  1.00  0.00     0.040 C 
HETATM    7  O4  UNL     1      22.188   2.616  51.247  1.00  0.00     0.000 OA
HETATM    8  C13 UNL     1      21.768   3.813  51.395  1.00  0.00     0.121 A 
HETATM    9  O5  UNL     1      21.037   3.147  50.641  1.00  0.00    -0.194 OA
HETATM   10  C14 UNL     1      22.510   4.842  52.286  1.00  0.00     0.105 C 
HETATM   11  C15 UNL     1      23.752   5.086  51.433  1.00  0.00    -0.066 C 
HETATM   12  C19 UNL     1      24.768   4.200  50.802  1.00  0.00     0.010 A 
HETATM   13  O6  UNL     1      24.278   3.338  51.464  1.00  0.00     0.000 OA
HETATM   14  C20 UNL     1      25.349   2.849  50.669  1.00  0.00     0.037 A 
ENDROOT
BRANCH   1  15
HETATM   15  C4  UNL     1      23.115  -0.460  53.515  1.00  0.00     0.014 C 
BRANCH  15  16
HETATM   16  C3  UNL     1      21.936  -0.136  54.220  1.00  0.00    -0.003 C 
BRANCH  16  17
HETATM   17  C2  UNL     1      20.724   0.314  54.318  1.00  0.00    -0.031 C 
HETATM   18  C1  UNL     1      19.944  -0.244  53.167  1.00  0.00     0.036 C 
ENDBRANCH  16  17
ENDBRANCH  15  16
ENDBRANCH   1  15
BRANCH   2  19
HETATM   19  O1  UNL     1      25.975  -0.017  54.719  1.00  0.00    -0.359 OA
HETATM   20  H7  UNL     1      26.891   0.384  54.913  1.00  0.00     0.217 HD
ENDBRANCH   2  19
BRANCH   3  21
HETATM   21  C8  UNL     1      27.226   1.935  53.045  1.00  0.00     0.292 C 
HETATM   22  O2  UNL     1      27.950   2.503  52.168  1.00  0.00    -0.259 OA
BRANCH  21  23
HETATM   23  O3  UNL     1      27.872   1.807  54.249  1.00  0.00    -0.323 OA
HETATM   24  C9  UNL     1      29.157   1.305  54.440  1.00  0.00     0.213 C 
ENDBRANCH  21  23
ENDBRANCH   3  21
BRANCH  11  25
HETATM   25  C16 UNL     1      23.778   6.389  51.163  1.00  0.00    -0.023 C 
BRANCH  25  26
HETATM   26  C17 UNL     1      23.730   7.809  50.910  1.00  0.00     0.023 C 
HETATM   27  C18 UNL     1      22.752   8.129  49.759  1.00  0.00     0.009 C 
ENDBRANCH  25  26
ENDBRANCH  11  25
TORSDOF 8
ENDMDL
MODEL 5
REMARK VINA RESULT:      -7.0      1.684      6.709
REMARK  8 active torsions:
REMARK  status: ('A' for Active; 'I' for Inactive)
REMARK    1  A    between atoms: C2_2  and  C3_3 
REMARK    2  A    between atoms: C3_3  and  C4_4 
REMARK    3  A    between atoms: C4_4  and  C5_5 
REMARK    4  A    between atoms: C6_6  and  O1_7 
REMARK    5  A    between atoms: C7_8  and  C8_9 
REMARK    6  A    between atoms: C8_9  and  O3_11 
REMARK    7  A    between atoms: C15_20  and  C16_21 
REMARK    8  A    between atoms: C16_21  and  C17_22 
ROOT
HETATM    1  C5  UNL     1      25.773   2.848  50.450  1.00  0.00     0.001 A 
HETATM    2  C6  UNL     1      26.238   1.995  51.517  1.00  0.00     0.089 A 
HETATM    3  C7  UNL     1      25.178   1.927  52.305  1.00  0.00     0.065 A 
HETATM    4  C10 UNL     1      24.019   2.692  51.824  1.00  0.00     0.037 A 
HETATM    5  C11 UNL     1      24.401   3.260  50.663  1.00  0.00    -0.052 A 
HETATM    6  C12 UNL     1      23.462   4.062  49.782  1.00  0.00     0.040 C 
HETATM    7  O4  UNL     1      22.507   3.186  49.432  1.00  0.00     0.000 OA
HETATM    8  C13 UNL     1      21.560   2.422  49.044  1.00  0.00     0.121 A 
HETATM    9  O5  UNL     1      21.460   3.570  48.578  1.00  0.00    -0.194 OA
HETATM   10  C14 UNL     1      21.460   0.941  49.493  1.00  0.00     0.105 C 
HETATM   11  C15 UNL     1      21.083   1.132  50.959  1.00  0.00    -0.066 C 
HETATM   12  C19 UNL     1      21.656   1.919  52.084  1.00  0.00     0.010 A 
HETATM   13  O6  UNL     1      22.588   2.084  51.359  1.00  0.00     0.000 OA
HETATM   14  C20 UNL     1      22.772   2.731  52.610  1.00  0.00     0.037 A 
ENDROOT
BRANCH   1  15
HETATM   15  C4  UNL     1      26.439   3.217  49.393  1.00  0.00     0.014 C 
BRANCH  15  16
HETATM   16  C3  UNL     1      27.184   4.398  49.186  1.00  0.00    -0.003 C 
BRANCH  16  17
HETATM   17  C2  UNL     1      27.472   5.499  48.565  1.00  0.00    -0.031 C 
HETATM   18  C1  UNL     1      26.243   6.355  48.577  1.00  0.00     0.036 C 
ENDBRANCH  16  17
ENDBRANCH  15  16
ENDBRANCH   1  15
BRANCH   2  19
HETATM   19  O1  UNL     1      27.499   1.379  51.700  1.00  0.00    -0.359 OA
HETATM   20  H7  UNL     1      28.256   2.052  51.801  1.00  0.00     0.217 HD
ENDBRANCH   2  19
BRANCH   3  21
HETATM   21  C8  UNL     1      25.322   1.103  53.533  1.00  0.00     0.292 C 
HETATM   22  O2  UNL     1      24.531   0.148  53.813  1.00  0.00    -0.259 OA
BRANCH  21  23
HETATM   23  O3  UNL     1      26.294   1.272  54.487  1.00  0.00    -0.323 OA
HETATM   24  C9  UNL     1      27.133   0.277  54.986  1.00  0.00     0.213 C 
ENDBRANCH  21  23
ENDBRANCH   3  21
BRANCH  11  25
HETATM   25  C16 UNL     1      19.920   0.507  51.137  1.00  0.00    -0.023 C 
BRANCH  25  26
HETATM   26  C17 UNL     1      18.631  -0.097  51.369  1.00  0.00     0.023 C 
HETATM   27  C18 UNL     1      18.556  -0.705  52.787  1.00  0.00     0.009 C 
ENDBRANCH  25  26
ENDBRANCH  11  25
TORSDOF 8
ENDMDL
MODEL 6
REMARK VINA RESULT:      -6.9      1.832      6.413
REMARK  8 active torsions:
REMARK  status: ('A' for Active; 'I' for Inactive)
REMARK    1  A    between atoms: C2_2  and  C3_3 
REMARK    2  A    between atoms: C3_3  and  C4_4 
REMARK    3  A    between atoms: C4_4  and  C5_5 
REMARK    4  A    between atoms: C6_6  and  O1_7 
REMARK    5  A    between atoms: C7_8  and  C8_9 
REMARK    6  A    between atoms: C8_9  and  O3_11 
REMARK    7  A    between atoms: C15_20  and  C16_21 
REMARK    8  A    between atoms: C16_21  and  C17_22 
ROOT
HETATM    1  C5  UNL     1      25.345   0.169  52.641  1.00  0.00     0.001 A 
HETATM    2  C6  UNL     1      23.988  -0.157  53.004  1.00  0.00     0.089 A 
HETATM    3  C7  UNL     1      23.415   1.034  53.049  1.00  0.00     0.065 A 
HETATM    4  C10 UNL     1      24.317   2.150  52.735  1.00  0.00     0.037 A 
HETATM    5  C11 UNL     1      25.520   1.598  52.478  1.00  0.00    -0.052 A 
HETATM    6  C12 UNL     1      26.720   2.401  52.012  1.00  0.00     0.040 C 
HETATM    7  O4  UNL     1      26.331   2.926  50.840  1.00  0.00     0.000 OA
HETATM    8  C13 UNL     1      26.051   3.464  49.715  1.00  0.00     0.121 A 
HETATM    9  O5  UNL     1      27.209   3.723  50.085  1.00  0.00    -0.194 OA
HETATM   10  C14 UNL     1      24.664   3.292  49.043  1.00  0.00     0.105 C 
HETATM   11  C15 UNL     1      23.807   4.138  49.980  1.00  0.00    -0.066 C 
HETATM   12  C19 UNL     1      23.607   4.175  51.454  1.00  0.00     0.010 A 
HETATM   13  O6  UNL     1      24.209   3.147  51.459  1.00  0.00     0.000 OA
HETATM   14  C20 UNL     1      23.826   3.540  52.768  1.00  0.00     0.037 A 
ENDROOT
BRANCH   1  15
HETATM   15  C4  UNL     1      26.328  -0.664  52.445  1.00  0.00     0.014 C 
BRANCH  15  16
HETATM   16  C3  UNL     1      27.547  -0.773  53.148  1.00  0.00    -0.003 C 
BRANCH  16  17
HETATM   17  C2  UNL     1      28.441  -0.374  53.999  1.00  0.00    -0.031 C 
HETATM   18  C1  UNL     1      29.750  -0.976  53.589  1.00  0.00     0.036 C 
ENDBRANCH  16  17
ENDBRANCH  15  16
ENDBRANCH   1  15
BRANCH   2  19
HETATM   19  O1  UNL     1      23.396  -1.418  53.256  1.00  0.00    -0.359 OA
HETATM   20  H7  UNL     1      23.084  -1.885  52.407  1.00  0.00     0.217 HD
ENDBRANCH   2  19
BRANCH   3  21
HETATM   21  C8  UNL     1      21.972   1.057  53.405  1.00  0.00     0.292 C 
HETATM   22  O2  UNL     1      21.499   0.402  54.387  1.00  0.00    -0.259 OA
BRANCH  21  23
HETATM   23  O3  UNL     1      21.005   1.763  52.736  1.00  0.00    -0.323 OA
HETATM   24  C9  UNL     1      20.769   1.730  51.364  1.00  0.00     0.213 C 
ENDBRANCH  21  23
ENDBRANCH   3  21
BRANCH  11  25
HETATM   25  C16 UNL     1      23.245   5.084  49.230  1.00  0.00    -0.023 C 
BRANCH  25  26
HETATM   26  C17 UNL     1      22.559   6.073  48.434  1.00  0.00     0.023 C 
HETATM   27  C18 UNL     1      23.555   6.843  47.538  1.00  0.00     0.009 C 
ENDBRANCH  25  26
ENDBRANCH  11  25
TORSDOF 8
ENDMDL
MODEL 7
REMARK VINA RESULT:      -6.8      2.703      6.160
REMARK  8 active torsions:
REMARK  status: ('A' for Active; 'I' for Inactive)
REMARK    1  A    between atoms: C2_2  and  C3_3 
REMARK    2  A    between atoms: C3_3  and  C4_4 
REMARK    3  A    between atoms: C4_4  and  C5_5 
REMARK    4  A    between atoms: C6_6  and  O1_7 
REMARK    5  A    between atoms: C7_8  and  C8_9 
REMARK    6  A    between atoms: C8_9  and  O3_11 
REMARK    7  A    between atoms: C15_20  and  C16_21 
REMARK    8  A    between atoms: C16_21  and  C17_22 
ROOT
HETATM    1  C5  UNL     1      25.279   5.702  49.123  1.00  0.00     0.001 A 
HETATM    2  C6  UNL     1      23.955   6.206  48.852  1.00  0.00     0.089 A 
HETATM    3  C7  UNL     1      23.222   5.105  48.890  1.00  0.00     0.065 A 
HETATM    4  C10 UNL     1      23.985   3.882  49.172  1.00  0.00     0.037 A 
HETATM    5  C11 UNL     1      25.269   4.267  49.320  1.00  0.00    -0.052 A 
HETATM    6  C12 UNL     1      26.380   3.315  49.722  1.00  0.00     0.040 C 
HETATM    7  O4  UNL     1      26.017   2.876  50.937  1.00  0.00     0.000 OA
HETATM    8  C13 UNL     1      25.754   2.408  52.096  1.00  0.00     0.121 A 
HETATM    9  O5  UNL     1      26.833   1.982  51.650  1.00  0.00    -0.194 OA
HETATM   10  C14 UNL     1      24.461   2.787  52.864  1.00  0.00     0.105 C 
HETATM   11  C15 UNL     1      23.425   2.047  52.022  1.00  0.00    -0.066 C 
HETATM   12  C19 UNL     1      23.106   2.005  50.569  1.00  0.00     0.010 A 
HETATM   13  O6  UNL     1      23.842   2.939  50.486  1.00  0.00     0.000 OA
HETATM   14  C20 UNL     1      23.307   2.574  49.222  1.00  0.00     0.037 A 
ENDROOT
BRANCH   1  15
HETATM   15  C4  UNL     1      26.380   6.394  49.218  1.00  0.00     0.014 C 
BRANCH  15  16
HETATM   16  C3  UNL     1      27.341   6.665  48.221  1.00  0.00    -0.003 C 
BRANCH  16  17
HETATM   17  C2  UNL     1      28.543   6.677  47.734  1.00  0.00    -0.031 C 
HETATM   18  C1  UNL     1      29.228   5.430  48.204  1.00  0.00     0.036 C 
ENDBRANCH  16  17
ENDBRANCH  15  16
ENDBRANCH   1  15
BRANCH   2  19
HETATM   19  O1  UNL     1      23.524   7.531  48.603  1.00  0.00    -0.359 OA
HETATM   20  H7  UNL     1      23.602   8.132  49.421  1.00  0.00     0.217 HD
ENDBRANCH   2  19
BRANCH   3  21
HETATM   21  C8  UNL     1      21.767   5.275  48.643  1.00  0.00     0.292 C 
HETATM   22  O2  UNL     1      21.308   5.748  47.556  1.00  0.00    -0.259 OA
BRANCH  21  23
HETATM   23  O3  UNL     1      20.773   4.957  49.533  1.00  0.00    -0.323 OA
HETATM   24  C9  UNL     1      20.862   5.030  50.921  1.00  0.00     0.213 C 
ENDBRANCH  21  23
ENDBRANCH   3  21
BRANCH  11  25
HETATM   25  C16 UNL     1      22.799   1.205  52.843  1.00  0.00    -0.023 C 
BRANCH  25  26
HETATM   26  C17 UNL     1      22.078   0.263  53.664  1.00  0.00     0.023 C 
HETATM   27  C18 UNL     1      23.030  -0.817  54.224  1.00  0.00     0.009 C 
ENDBRANCH  25  26
ENDBRANCH  11  25
TORSDOF 8
ENDMDL
MODEL 8
REMARK VINA RESULT:      -6.8      2.233      5.878
REMARK  8 active torsions:
REMARK  status: ('A' for Active; 'I' for Inactive)
REMARK    1  A    between atoms: C2_2  and  C3_3 
REMARK    2  A    between atoms: C3_3  and  C4_4 
REMARK    3  A    between atoms: C4_4  and  C5_5 
REMARK    4  A    between atoms: C6_6  and  O1_7 
REMARK    5  A    between atoms: C7_8  and  C8_9 
REMARK    6  A    between atoms: C8_9  and  O3_11 
REMARK    7  A    between atoms: C15_20  and  C16_21 
REMARK    8  A    between atoms: C16_21  and  C17_22 
ROOT
HETATM    1  C5  UNL     1      24.859   4.376  49.878  1.00  0.00     0.001 A 
HETATM    2  C6  UNL     1      26.059   3.602  50.080  1.00  0.00     0.089 A 
HETATM    3  C7  UNL     1      25.822   3.011  51.239  1.00  0.00     0.065 A 
HETATM    4  C10 UNL     1      24.520   3.347  51.832  1.00  0.00     0.037 A 
HETATM    5  C11 UNL     1      23.925   4.198  50.971  1.00  0.00    -0.052 A 
HETATM    6  C12 UNL     1      22.511   4.715  51.158  1.00  0.00     0.040 C 
HETATM    7  O4  UNL     1      21.748   3.612  51.125  1.00  0.00     0.000 OA
HETATM    8  C13 UNL     1      20.944   2.620  51.102  1.00  0.00     0.121 A 
HETATM    9  O5  UNL     1      20.351   3.703  51.240  1.00  0.00    -0.194 OA
HETATM   10  C14 UNL     1      21.441   1.160  50.943  1.00  0.00     0.105 C 
HETATM   11  C15 UNL     1      22.101   0.953  52.303  1.00  0.00    -0.066 C 
HETATM   12  C19 UNL     1      23.116   1.706  53.089  1.00  0.00     0.010 A 
HETATM   13  O6  UNL     1      23.284   2.326  52.085  1.00  0.00     0.000 OA
HETATM   14  C20 UNL     1      24.124   2.783  53.135  1.00  0.00     0.037 A 
ENDROOT
BRANCH   1  15
HETATM   15  C4  UNL     1      24.576   5.136  48.858  1.00  0.00     0.014 C 
BRANCH  15  16
HETATM   16  C3  UNL     1      25.138   6.380  48.501  1.00  0.00    -0.003 C 
BRANCH  16  17
HETATM   17  C2  UNL     1      26.066   7.286  48.514  1.00  0.00    -0.031 C 
HETATM   18  C1  UNL     1      26.191   7.778  49.924  1.00  0.00     0.036 C 
ENDBRANCH  16  17
ENDBRANCH  15  16
ENDBRANCH   1  15
BRANCH   2  19
HETATM   19  O1  UNL     1      27.212   3.489  49.265  1.00  0.00    -0.359 OA
HETATM   20  H7  UNL     1      27.979   3.009  49.732  1.00  0.00     0.217 HD
ENDBRANCH   2  19
BRANCH   3  21
HETATM   21  C8  UNL     1      26.891   2.116  51.753  1.00  0.00     0.292 C 
HETATM   22  O2  UNL     1      26.778   0.850  51.760  1.00  0.00    -0.259 OA
BRANCH  21  23
HETATM   23  O3  UNL     1      28.090   2.535  52.271  1.00  0.00    -0.323 OA
HETATM   24  C9  UNL     1      28.533   2.336  53.576  1.00  0.00     0.213 C 
ENDBRANCH  21  23
ENDBRANCH   3  21
BRANCH  11  25
HETATM   25  C16 UNL     1      21.488  -0.085  52.869  1.00  0.00    -0.023 C 
BRANCH  25  26
HETATM   26  C17 UNL     1      20.893  -1.218  53.535  1.00  0.00     0.023 C 
HETATM   27  C18 UNL     1      21.818  -1.745  54.654  1.00  0.00     0.009 C 
ENDBRANCH  25  26
ENDBRANCH  11  25
TORSDOF 8
ENDMDL
MODEL 9
REMARK VINA RESULT:      -6.7      2.719      6.207
REMARK  8 active torsions:
REMARK  status: ('A' for Active; 'I' for Inactive)
REMARK    1  A    between atoms: C2_2  and  C3_3 
REMARK    2  A    between atoms: C3_3  and  C4_4 
REMARK    3  A    between atoms: C4_4  and  C5_5 
REMARK    4  A    between atoms: C6_6  and  O1_7 
REMARK    5  A    between atoms: C7_8  and  C8_9 
REMARK    6  A    between atoms: C8_9  and  O3_11 
REMARK    7  A    between atoms: C15_20  and  C16_21 
REMARK    8  A    between atoms: C16_21  and  C17_22 
ROOT
HETATM    1  C5  UNL     1      25.207   1.838  51.761  1.00  0.00     0.001 A 
HETATM    2  C6  UNL     1      26.250   2.704  51.269  1.00  0.00     0.089 A 
HETATM    3  C7  UNL     1      25.659   3.305  50.250  1.00  0.00     0.065 A 
HETATM    4  C10 UNL     1      24.267   2.889  50.028  1.00  0.00     0.037 A 
HETATM    5  C11 UNL     1      23.994   1.974  50.981  1.00  0.00    -0.052 A 
HETATM    6  C12 UNL     1      22.621   1.358  51.170  1.00  0.00     0.040 C 
HETATM    7  O4  UNL     1      21.828   2.400  51.465  1.00  0.00     0.000 OA
HETATM    8  C13 UNL     1      21.001   3.329  51.756  1.00  0.00     0.121 A 
HETATM    9  O5  UNL     1      20.463   2.208  51.738  1.00  0.00    -0.194 OA
HETATM   10  C14 UNL     1      21.428   4.817  51.837  1.00  0.00     0.105 C 
HETATM   11  C15 UNL     1      21.665   5.108  50.358  1.00  0.00    -0.066 C 
HETATM   12  C19 UNL     1      22.465   4.453  49.287  1.00  0.00     0.010 A 
HETATM   13  O6  UNL     1      22.947   3.821  50.175  1.00  0.00     0.000 OA
HETATM   14  C20 UNL     1      23.487   3.456  48.913  1.00  0.00     0.037 A 
ENDROOT
BRANCH   1  15
HETATM   15  C4  UNL     1      25.270   1.032  52.784  1.00  0.00     0.014 C 
BRANCH  15  16
HETATM   16  C3  UNL     1      26.072  -0.117  52.955  1.00  0.00    -0.003 C 
BRANCH  16  17
HETATM   17  C2  UNL     1      27.188  -0.776  52.908  1.00  0.00    -0.031 C 
HETATM   18  C1  UNL     1      26.904  -2.089  52.245  1.00  0.00     0.036 C 
ENDBRANCH  16  17
ENDBRANCH  15  16
ENDBRANCH   1  15
BRANCH   2  19
HETATM   19  O1  UNL     1      27.575   2.881  51.736  1.00  0.00    -0.359 OA
HETATM   20  H7  UNL     1      27.630   3.498  52.543  1.00  0.00     0.217 HD
ENDBRANCH   2  19
BRANCH   3  21
HETATM   21  C8  UNL     1      26.481   4.290  49.501  1.00  0.00     0.292 C 
HETATM   22  O2  UNL     1      27.541   3.964  48.878  1.00  0.00    -0.259 OA
BRANCH  21  23
HETATM   23  O3  UNL     1      26.207   5.631  49.397  1.00  0.00    -0.323 OA
HETATM   24  C9  UNL     1      26.715   6.498  48.432  1.00  0.00     0.213 C 
ENDBRANCH  21  23
ENDBRANCH   3  21
BRANCH  11  25
HETATM   25  C16 UNL     1      20.853   6.112  50.032  1.00  0.00    -0.023 C 
BRANCH  25  26
HETATM   26  C17 UNL     1      19.971   7.168  49.599  1.00  0.00     0.023 C 
HETATM   27  C18 UNL     1      20.647   8.547  49.758  1.00  0.00     0.009 C 
ENDBRANCH  25  26
ENDBRANCH  11  25
TORSDOF 8
ENDMDL
