MODEL 1
REMARK VINA RESULT:      -8.9      0.000      0.000
REMARK  8 active torsions:
REMARK  status: ('A' for Active; 'I' for Inactive)
REMARK    1  A    between atoms: C2_2  and  C3_3 
REMARK    2  A    between atoms: C2_2  and  C12_13 
REMARK    3  A    between atoms: C3_3  and  C4_4 
REMARK    4  A    between atoms: C4_4  and  C5_5 
REMARK    5  A    between atoms: C6_6  and  N1_7 
REMARK    6  A    between atoms: C14_15  and  N2_16 
REMARK    7  A    between atoms: N2_16  and  C15_17 
REMARK    8  A    between atoms: C21_25  and  N4_26 
ROOT
HETATM    1  C12 UNL     1      25.954   0.741  53.195  1.00  0.00     0.082 A 
HETATM    2  C13 UNL     1      25.824   1.302  51.948  1.00  0.00     0.083 A 
HETATM    3  C14 UNL     1      26.713   2.189  51.379  1.00  0.00     0.149 A 
HETATM    4  N3  UNL     1      27.752   2.487  52.136  1.00  0.00    -0.045 NA
HETATM    5  C21 UNL     1      27.952   1.987  53.359  1.00  0.00     0.722 A 
HETATM    6  N5  UNL     1      27.051   1.130  53.855  1.00  0.00    -0.063 NA
ENDROOT
BRANCH   1   7
HETATM    7  C2  UNL     1      25.050  -0.208  53.819  1.00  0.00    -0.050 C 
HETATM    8  C1  UNL     1      25.358  -0.627  55.064  1.00  0.00     0.041 C 
BRANCH   7   9
HETATM    9  C3  UNL     1      23.818  -0.786  53.285  1.00  0.00     0.041 C 
BRANCH   9  10
HETATM   10  C4  UNL     1      22.631  -0.171  53.973  1.00  0.00     0.041 C 
BRANCH  10  11
HETATM   11  C5  UNL     1      21.580   0.244  52.996  1.00  0.00    -0.050 C 
HETATM   12  C6  UNL     1      20.345  -0.265  53.141  1.00  0.00     0.028 C 
HETATM   13  C7  UNL     1      19.139  -0.051  52.362  1.00  0.00     0.029 C 
HETATM   14  C8  UNL     1      19.056   0.414  51.125  1.00  0.00     0.002 C 
HETATM   15  C9  UNL     1      20.175   0.824  50.251  1.00  0.00    -0.004 C 
HETATM   16  C10 UNL     1      21.398   1.127  50.689  1.00  0.00    -0.022 C 
HETATM   17  C11 UNL     1      22.086   1.188  51.983  1.00  0.00     0.063 C 
BRANCH  12  18
HETATM   18  N1  UNL     1      20.126  -1.177  54.234  1.00  0.00    -0.399 N 
HETATM   19  H7  UNL     1      19.254  -1.440  54.783  1.00  0.00     0.156 HD
HETATM   20  H8  UNL     1      20.667  -1.851  54.838  1.00  0.00     0.156 HD
ENDBRANCH  12  18
ENDBRANCH  10  11
ENDBRANCH   9  10
ENDBRANCH   7   9
ENDBRANCH   1   7
BRANCH   3  21
HETATM   21  N2  UNL     1      26.447   2.685  50.080  1.00  0.00    -0.340 N 
HETATM   22  H16 UNL     1      26.193   2.002  49.331  1.00  0.00     0.167 HD
BRANCH  21  23
HETATM   23  C15 UNL     1      26.489   4.039  49.672  1.00  0.00     0.035 A 
HETATM   24  C16 UNL     1      27.374   4.621  48.811  1.00  0.00     0.029 A 
HETATM   25  C17 UNL     1      27.386   5.933  48.437  1.00  0.00     0.004 A 
HETATM   26  C18 UNL     1      26.443   6.780  48.948  1.00  0.00     0.019 A 
HETATM   27  C19 UNL     1      25.518   6.269  49.823  1.00  0.00     0.013 A 
HETATM   28 BR1  UNL     1      24.192   7.427  50.549  1.00  0.00    -0.051 Br
HETATM   29  C20 UNL     1      25.555   4.939  50.161  1.00  0.00     0.048 A 
ENDBRANCH  21  23
ENDBRANCH   3  21
BRANCH   5  30
HETATM   30  N4  UNL     1      29.088   2.335  54.146  1.00  0.00    -0.231 N 
HETATM   31  H21 UNL     1      29.668   1.806  54.856  1.00  0.00     0.174 HD
HETATM   32  H22 UNL     1      29.546   3.278  54.114  1.00  0.00     0.174 HD
ENDBRANCH   5  30
TORSDOF 8
ENDMDL
MODEL 2
REMARK VINA RESULT:      -8.9      2.427      5.638
REMARK  8 active torsions:
REMARK  status: ('A' for Active; 'I' for Inactive)
REMARK    1  A    between atoms: C2_2  and  C3_3 
REMARK    2  A    between atoms: C2_2  and  C12_13 
REMARK    3  A    between atoms: C3_3  and  C4_4 
REMARK    4  A    between atoms: C4_4  and  C5_5 
REMARK    5  A    between atoms: C6_6  and  N1_7 
REMARK    6  A    between atoms: C14_15  and  N2_16 
REMARK    7  A    between atoms: N2_16  and  C15_17 
REMARK    8  A    between atoms: C21_25  and  N4_26 
ROOT
HETATM    1  C12 UNL     1      23.221   1.044  51.975  1.00  0.00     0.082 A 
HETATM    2  C13 UNL     1      23.805   2.281  51.860  1.00  0.00     0.083 A 
HETATM    3  C14 UNL     1      23.537   3.196  50.863  1.00  0.00     0.149 A 
HETATM    4  N3  UNL     1      22.642   2.799  49.978  1.00  0.00    -0.045 NA
HETATM    5  C21 UNL     1      22.029   1.612  50.018  1.00  0.00     0.722 A 
HETATM    6  N5  UNL     1      22.333   0.768  51.012  1.00  0.00    -0.063 NA
ENDROOT
BRANCH   1   7
HETATM    7  C2  UNL     1      23.463   0.063  53.018  1.00  0.00    -0.050 C 
HETATM    8  C1  UNL     1      22.418  -0.698  53.405  1.00  0.00     0.041 C 
BRANCH   7   9
HETATM    9  C3  UNL     1      24.709  -0.235  53.724  1.00  0.00     0.041 C 
BRANCH   9  10
HETATM   10  C4  UNL     1      25.652  -0.957  52.802  1.00  0.00     0.041 C 
BRANCH  10  11
HETATM   11  C5  UNL     1      27.055  -0.466  52.952  1.00  0.00    -0.050 C 
HETATM   12  C6  UNL     1      28.030  -1.378  53.103  1.00  0.00     0.028 C 
HETATM   13  C7  UNL     1      29.462  -1.209  53.268  1.00  0.00     0.029 C 
HETATM   14  C8  UNL     1      30.100  -0.117  53.662  1.00  0.00     0.002 C 
HETATM   15  C9  UNL     1      29.499   1.184  54.024  1.00  0.00    -0.004 C 
HETATM   16  C10 UNL     1      28.270   1.568  53.671  1.00  0.00    -0.022 C 
HETATM   17  C11 UNL     1      27.151   1.004  52.910  1.00  0.00     0.063 C 
BRANCH  12  18
HETATM   18  N1  UNL     1      27.648  -2.767  53.107  1.00  0.00    -0.399 N 
HETATM   19  H7  UNL     1      28.048  -3.617  53.605  1.00  0.00     0.156 HD
HETATM   20  H8  UNL     1      26.923  -3.401  52.680  1.00  0.00     0.156 HD
ENDBRANCH  12  18
ENDBRANCH  10  11
ENDBRANCH   9  10
ENDBRANCH   7   9
ENDBRANCH   1   7
BRANCH   3  21
HETATM   21  N2  UNL     1      24.218   4.437  50.873  1.00  0.00    -0.340 N 
HETATM   22  H16 UNL     1      23.886   5.179  51.531  1.00  0.00     0.167 HD
BRANCH  21  23
HETATM   23  C15 UNL     1      25.327   4.795  50.071  1.00  0.00     0.035 A 
HETATM   24  C16 UNL     1      26.365   3.998  49.683  1.00  0.00     0.029 A 
HETATM   25  C17 UNL     1      27.421   4.375  48.907  1.00  0.00     0.004 A 
HETATM   26  C18 UNL     1      27.487   5.663  48.453  1.00  0.00     0.019 A 
HETATM   27  C19 UNL     1      26.479   6.526  48.800  1.00  0.00     0.013 A 
HETATM   28 BR1  UNL     1      26.546   8.325  48.180  1.00  0.00    -0.051 Br
HETATM   29  C20 UNL     1      25.441   6.088  49.584  1.00  0.00     0.048 A 
ENDBRANCH  21  23
ENDBRANCH   3  21
BRANCH   5  30
HETATM   30  N4  UNL     1      21.068   1.219  49.042  1.00  0.00    -0.231 N 
HETATM   31  H21 UNL     1      20.457   1.760  48.367  1.00  0.00     0.174 HD
HETATM   32  H22 UNL     1      20.816   0.220  48.850  1.00  0.00     0.174 HD
ENDBRANCH   5  30
TORSDOF 8
ENDMDL
MODEL 3
REMARK VINA RESULT:      -8.8      2.827      5.520
REMARK  8 active torsions:
REMARK  status: ('A' for Active; 'I' for Inactive)
REMARK    1  A    between atoms: C2_2  and  C3_3 
REMARK    2  A    between atoms: C2_2  and  C12_13 
REMARK    3  A    between atoms: C3_3  and  C4_4 
REMARK    4  A    between atoms: C4_4  and  C5_5 
REMARK    5  A    between atoms: C6_6  and  N1_7 
REMARK    6  A    between atoms: C14_15  and  N2_16 
REMARK    7  A    between atoms: N2_16  and  C15_17 
REMARK    8  A    between atoms: C21_25  and  N4_26 
ROOT
HETATM    1  C12 UNL     1      23.903   2.023  52.232  1.00  0.00     0.082 A 
HETATM    2  C13 UNL     1      24.646   2.299  51.111  1.00  0.00     0.083 A 
HETATM    3  C14 UNL     1      24.758   3.538  50.517  1.00  0.00     0.149 A 
HETATM    4  N3  UNL     1      24.077   4.498  51.115  1.00  0.00    -0.045 NA
HETATM    5  C21 UNL     1      23.330   4.313  52.208  1.00  0.00     0.722 A 
HETATM    6  N5  UNL     1      23.263   3.085  52.737  1.00  0.00    -0.063 NA
ENDROOT
BRANCH   1   7
HETATM    7  C2  UNL     1      23.776   0.738  52.896  1.00  0.00    -0.050 C 
HETATM    8  C1  UNL     1      22.572   0.132  52.844  1.00  0.00     0.041 C 
BRANCH   7   9
HETATM    9  C3  UNL     1      24.793  -0.021  53.624  1.00  0.00     0.041 C 
BRANCH   9  10
HETATM   10  C4  UNL     1      25.685  -0.736  52.648  1.00  0.00     0.041 C 
BRANCH  10  11
HETATM   11  C5  UNL     1      27.124  -0.393  52.860  1.00  0.00    -0.050 C 
HETATM   12  C6  UNL     1      27.995  -1.401  53.032  1.00  0.00     0.028 C 
HETATM   13  C7  UNL     1      29.429  -1.380  53.255  1.00  0.00     0.029 C 
HETATM   14  C8  UNL     1      30.158  -0.363  53.692  1.00  0.00     0.002 C 
HETATM   15  C9  UNL     1      29.677   0.987  54.052  1.00  0.00    -0.004 C 
HETATM   16  C10 UNL     1      28.508   1.498  53.659  1.00  0.00    -0.022 C 
HETATM   17  C11 UNL     1      27.369   1.061  52.846  1.00  0.00     0.063 C 
BRANCH  12  18
HETATM   18  N1  UNL     1      27.475  -2.744  52.999  1.00  0.00    -0.399 N 
HETATM   19  H7  UNL     1      26.513  -3.143  53.215  1.00  0.00     0.156 HD
HETATM   20  H8  UNL     1      27.795  -3.723  52.779  1.00  0.00     0.156 HD
ENDBRANCH  12  18
ENDBRANCH  10  11
ENDBRANCH   9  10
ENDBRANCH   7   9
ENDBRANCH   1   7
BRANCH   3  21
HETATM   21  N2  UNL     1      25.563   3.673  49.361  1.00  0.00    -0.340 N 
HETATM   22  H16 UNL     1      25.664   2.847  48.728  1.00  0.00     0.167 HD
BRANCH  21  23
HETATM   23  C15 UNL     1      26.265   4.832  48.955  1.00  0.00     0.035 A 
HETATM   24  C16 UNL     1      25.759   6.084  48.753  1.00  0.00     0.029 A 
HETATM   25  C17 UNL     1      26.465   7.183  48.361  1.00  0.00     0.004 A 
HETATM   26  C18 UNL     1      27.808   7.066  48.138  1.00  0.00     0.019 A 
HETATM   27  C19 UNL     1      28.392   5.838  48.321  1.00  0.00     0.013 A 
HETATM   28 BR1  UNL     1      30.263   5.648  48.018  1.00  0.00    -0.051 Br
HETATM   29  C20 UNL     1      27.629   4.768  48.717  1.00  0.00     0.048 A 
ENDBRANCH  21  23
ENDBRANCH   3  21
BRANCH   5  30
HETATM   30  N4  UNL     1      22.609   5.375  52.825  1.00  0.00    -0.231 N 
HETATM   31  H21 UNL     1      21.867   6.047  52.478  1.00  0.00     0.174 HD
HETATM   32  H22 UNL     1      22.741   5.658  53.826  1.00  0.00     0.174 HD
ENDBRANCH   5  30
TORSDOF 8
ENDMDL
MODEL 4
REMARK VINA RESULT:      -8.7      2.443      2.813
REMARK  8 active torsions:
REMARK  status: ('A' for Active; 'I' for Inactive)
REMARK    1  A    between atoms: C2_2  and  C3_3 
REMARK    2  A    between atoms: C2_2  and  C12_13 
REMARK    3  A    between atoms: C3_3  and  C4_4 
REMARK    4  A    between atoms: C4_4  and  C5_5 
REMARK    5  A    between atoms: C6_6  and  N1_7 
REMARK    6  A    between atoms: C14_15  and  N2_16 
REMARK    7  A    between atoms: N2_16  and  C15_17 
REMARK    8  A    between atoms: C21_25  and  N4_26 
ROOT
HETATM    1  C12 UNL     1      24.640  -0.177  54.065  1.00  0.00     0.082 A 
HETATM    2  C13 UNL     1      24.672   0.927  53.249  1.00  0.00     0.083 A 
HETATM    3  C14 UNL     1      25.800   1.660  52.948  1.00  0.00     0.149 A 
HETATM    4  N3  UNL     1      26.908   1.222  53.515  1.00  0.00    -0.045 NA
HETATM    5  C21 UNL     1      26.963   0.157  54.321  1.00  0.00     0.722 A 
HETATM    6  N5  UNL     1      25.832  -0.513  54.574  1.00  0.00    -0.063 NA
ENDROOT
BRANCH   1   7
HETATM    7  C2  UNL     1      23.478  -0.984  54.389  1.00  0.00    -0.050 C 
HETATM    8  C1  UNL     1      23.379  -1.446  55.653  1.00  0.00     0.041 C 
BRANCH   7   9
HETATM    9  C3  UNL     1      22.363  -1.373  53.526  1.00  0.00     0.041 C 
BRANCH   9  10
HETATM   10  C4  UNL     1      21.078  -0.824  54.081  1.00  0.00     0.041 C 
BRANCH  10  11
HETATM   11  C5  UNL     1      20.232  -0.210  53.014  1.00  0.00    -0.050 C 
HETATM   12  C6  UNL     1      18.953  -0.609  52.914  1.00  0.00     0.028 C 
HETATM   13  C7  UNL     1      17.907  -0.200  51.995  1.00  0.00     0.029 C 
HETATM   14  C8  UNL     1      18.059   0.394  50.821  1.00  0.00     0.002 C 
HETATM   15  C9  UNL     1      19.331   0.781  50.177  1.00  0.00    -0.004 C 
HETATM   16  C10 UNL     1      20.490   0.917  50.825  1.00  0.00    -0.022 C 
HETATM   17  C11 UNL     1      20.967   0.779  52.204  1.00  0.00     0.063 C 
BRANCH  12  18
HETATM   18  N1  UNL     1      18.491  -1.603  53.849  1.00  0.00    -0.399 N 
HETATM   19  H7  UNL     1      18.767  -2.617  54.009  1.00  0.00     0.156 HD
HETATM   20  H8  UNL     1      17.794  -1.704  54.633  1.00  0.00     0.156 HD
ENDBRANCH  12  18
ENDBRANCH  10  11
ENDBRANCH   9  10
ENDBRANCH   7   9
ENDBRANCH   1   7
BRANCH   3  21
HETATM   21  N2  UNL     1      25.680   2.778  52.088  1.00  0.00    -0.340 N 
HETATM   22  H16 UNL     1      26.550   3.288  51.813  1.00  0.00     0.167 HD
BRANCH  21  23
HETATM   23  C15 UNL     1      24.481   3.297  51.545  1.00  0.00     0.035 A 
HETATM   24  C16 UNL     1      23.635   4.205  52.111  1.00  0.00     0.029 A 
HETATM   25  C17 UNL     1      22.484   4.686  51.559  1.00  0.00     0.004 A 
HETATM   26  C18 UNL     1      22.104   4.244  50.323  1.00  0.00     0.019 A 
HETATM   27  C19 UNL     1      22.904   3.329  49.687  1.00  0.00     0.013 A 
HETATM   28 BR1  UNL     1      22.399   2.697  47.963  1.00  0.00    -0.051 Br
HETATM   29  C20 UNL     1      24.051   2.882  50.293  1.00  0.00     0.048 A 
ENDBRANCH  21  23
ENDBRANCH   3  21
BRANCH   5  30
HETATM   30  N4  UNL     1      28.180  -0.285  54.915  1.00  0.00    -0.231 N 
HETATM   31  H21 UNL     1      28.996  -0.858  54.558  1.00  0.00     0.174 HD
HETATM   32  H22 UNL     1      28.451  -0.070  55.905  1.00  0.00     0.174 HD
ENDBRANCH   5  30
TORSDOF 8
ENDMDL
MODEL 5
REMARK VINA RESULT:      -8.6      3.837      8.213
REMARK  8 active torsions:
REMARK  status: ('A' for Active; 'I' for Inactive)
REMARK    1  A    between atoms: C2_2  and  C3_3 
REMARK    2  A    between atoms: C2_2  and  C12_13 
REMARK    3  A    between atoms: C3_3  and  C4_4 
REMARK    4  A    between atoms: C4_4  and  C5_5 
REMARK    5  A    between atoms: C6_6  and  N1_7 
REMARK    6  A    between atoms: C14_15  and  N2_16 
REMARK    7  A    between atoms: N2_16  and  C15_17 
REMARK    8  A    between atoms: C21_25  and  N4_26 
ROOT
HETATM    1  C12 UNL     1      22.747   0.346  53.199  1.00  0.00     0.082 A 
HETATM    2  C13 UNL     1      21.389   0.141  53.164  1.00  0.00     0.083 A 
HETATM    3  C14 UNL     1      20.691  -0.701  54.004  1.00  0.00     0.149 A 
HETATM    4  N3  UNL     1      21.436  -1.335  54.891  1.00  0.00    -0.045 NA
HETATM    5  C21 UNL     1      22.762  -1.192  54.990  1.00  0.00     0.722 A 
HETATM    6  N5  UNL     1      23.380  -0.359  54.145  1.00  0.00    -0.063 NA
ENDROOT
BRANCH   1   7
HETATM    7  C2  UNL     1      23.513   1.236  52.346  1.00  0.00    -0.050 C 
HETATM    8  C1  UNL     1      22.893   2.348  51.898  1.00  0.00     0.041 C 
BRANCH   7   9
HETATM    9  C3  UNL     1      24.898   1.106  51.895  1.00  0.00     0.041 C 
BRANCH   9  10
HETATM   10  C4  UNL     1      25.823   1.688  52.928  1.00  0.00     0.041 C 
BRANCH  10  11
HETATM   11  C5  UNL     1      26.911   0.733  53.296  1.00  0.00    -0.050 C 
HETATM   12  C6  UNL     1      28.078   1.241  53.726  1.00  0.00     0.028 C 
HETATM   13  C7  UNL     1      29.297   0.576  54.149  1.00  0.00     0.029 C 
HETATM   14  C8  UNL     1      29.669  -0.666  53.876  1.00  0.00     0.002 C 
HETATM   15  C9  UNL     1      28.925  -1.663  53.079  1.00  0.00    -0.004 C 
HETATM   16  C10 UNL     1      27.619  -1.590  52.814  1.00  0.00    -0.022 C 
HETATM   17  C11 UNL     1      26.514  -0.676  53.122  1.00  0.00     0.063 C 
BRANCH  12  18
HETATM   18  N1  UNL     1      28.193   2.675  53.801  1.00  0.00    -0.399 N 
HETATM   19  H7  UNL     1      27.959   3.448  53.109  1.00  0.00     0.156 HD
HETATM   20  H8  UNL     1      28.510   3.421  54.475  1.00  0.00     0.156 HD
ENDBRANCH  12  18
ENDBRANCH  10  11
ENDBRANCH   9  10
ENDBRANCH   7   9
ENDBRANCH   1   7
BRANCH   3  21
HETATM   21  N2  UNL     1      19.289  -0.811  53.851  1.00  0.00    -0.340 N 
HETATM   22  H16 UNL     1      18.720  -1.093  54.681  1.00  0.00     0.167 HD
BRANCH  21  23
HETATM   23  C15 UNL     1      18.550  -0.575  52.668  1.00  0.00     0.035 A 
HETATM   24  C16 UNL     1      18.945   0.129  51.566  1.00  0.00     0.029 A 
HETATM   25  C17 UNL     1      18.207   0.338  50.439  1.00  0.00     0.004 A 
HETATM   26  C18 UNL     1      16.948  -0.188  50.361  1.00  0.00     0.019 A 
HETATM   27  C19 UNL     1      16.479  -0.910  51.429  1.00  0.00     0.013 A 
HETATM   28 BR1  UNL     1      14.728  -1.654  51.345  1.00  0.00    -0.051 Br
HETATM   29  C20 UNL     1      17.268  -1.087  52.537  1.00  0.00     0.048 A 
ENDBRANCH  21  23
ENDBRANCH   3  21
BRANCH   5  30
HETATM   30  N4  UNL     1      23.531  -1.895  55.961  1.00  0.00    -0.231 N 
HETATM   31  H21 UNL     1      23.280  -2.408  56.853  1.00  0.00     0.174 HD
HETATM   32  H22 UNL     1      24.573  -2.003  55.905  1.00  0.00     0.174 HD
ENDBRANCH   5  30
TORSDOF 8
ENDMDL
MODEL 6
REMARK VINA RESULT:      -8.6      2.914      6.864
REMARK  8 active torsions:
REMARK  status: ('A' for Active; 'I' for Inactive)
REMARK    1  A    between atoms: C2_2  and  C3_3 
REMARK    2  A    between atoms: C2_2  and  C12_13 
REMARK    3  A    between atoms: C3_3  and  C4_4 
REMARK    4  A    between atoms: C4_4  and  C5_5 
REMARK    5  A    between atoms: C6_6  and  N1_7 
REMARK    6  A    between atoms: C14_15  and  N2_16 
REMARK    7  A    between atoms: N2_16  and  C15_17 
REMARK    8  A    between atoms: C21_25  and  N4_26 
ROOT
HETATM    1  C12 UNL     1      22.167   0.559  52.051  1.00  0.00     0.082 A 
HETATM    2  C13 UNL     1      23.358   0.361  52.706  1.00  0.00     0.083 A 
HETATM    3  C14 UNL     1      23.528  -0.423  53.827  1.00  0.00     0.149 A 
HETATM    4  N3  UNL     1      22.426  -1.004  54.263  1.00  0.00    -0.045 NA
HETATM    5  C21 UNL     1      21.229  -0.863  53.686  1.00  0.00     0.722 A 
HETATM    6  N5  UNL     1      21.131  -0.088  52.599  1.00  0.00    -0.063 NA
ENDROOT
BRANCH   1   7
HETATM    7  C2  UNL     1      21.954   1.360  50.860  1.00  0.00    -0.050 C 
HETATM    8  C1  UNL     1      21.368   0.755  49.805  1.00  0.00     0.041 C 
BRANCH   7   9
HETATM    9  C3  UNL     1      22.281   2.767  50.631  1.00  0.00     0.041 C 
BRANCH   9  10
HETATM   10  C4  UNL     1      22.911   2.925  49.275  1.00  0.00     0.041 C 
BRANCH  10  11
HETATM   11  C5  UNL     1      24.160   3.741  49.338  1.00  0.00    -0.050 C 
HETATM   12  C6  UNL     1      24.133   4.980  48.819  1.00  0.00     0.028 C 
HETATM   13  C7  UNL     1      25.172   5.990  48.735  1.00  0.00     0.029 C 
HETATM   14  C8  UNL     1      26.480   5.804  48.829  1.00  0.00     0.002 C 
HETATM   15  C9  UNL     1      27.185   4.523  49.044  1.00  0.00    -0.004 C 
HETATM   16  C10 UNL     1      26.608   3.421  49.528  1.00  0.00    -0.022 C 
HETATM   17  C11 UNL     1      25.274   3.026  49.989  1.00  0.00     0.063 C 
BRANCH  12  18
HETATM   18  N1  UNL     1      22.895   5.431  48.237  1.00  0.00    -0.399 N 
HETATM   19  H7  UNL     1      22.358   6.345  48.319  1.00  0.00     0.156 HD
HETATM   20  H8  UNL     1      22.138   5.083  47.592  1.00  0.00     0.156 HD
ENDBRANCH  12  18
ENDBRANCH  10  11
ENDBRANCH   9  10
ENDBRANCH   7   9
ENDBRANCH   1   7
BRANCH   3  21
HETATM   21  N2  UNL     1      24.819  -0.534  54.395  1.00  0.00    -0.340 N 
HETATM   22  H16 UNL     1      24.971  -1.243  55.148  1.00  0.00     0.167 HD
BRANCH  21  23
HETATM   23  C15 UNL     1      25.960   0.228  54.048  1.00  0.00     0.035 A 
HETATM   24  C16 UNL     1      26.017   1.565  53.778  1.00  0.00     0.029 A 
HETATM   25  C17 UNL     1      27.136   2.271  53.446  1.00  0.00     0.004 A 
HETATM   26  C18 UNL     1      28.334   1.619  53.363  1.00  0.00     0.019 A 
HETATM   27  C19 UNL     1      28.359   0.271  53.621  1.00  0.00     0.013 A 
HETATM   28 BR1  UNL     1      30.016  -0.662  53.513  1.00  0.00    -0.051 Br
HETATM   29  C20 UNL     1      27.200  -0.385  53.951  1.00  0.00     0.048 A 
ENDBRANCH  21  23
ENDBRANCH   3  21
BRANCH   5  30
HETATM   30  N4  UNL     1      20.062  -1.508  54.187  1.00  0.00    -0.231 N 
HETATM   31  H21 UNL     1      19.627  -1.576  55.150  1.00  0.00     0.174 HD
HETATM   32  H22 UNL     1      19.408  -2.066  53.587  1.00  0.00     0.174 HD
ENDBRANCH   5  30
TORSDOF 8
ENDMDL
MODEL 7
REMARK VINA RESULT:      -8.5      4.054      6.770
REMARK  8 active torsions:
REMARK  status: ('A' for Active; 'I' for Inactive)
REMARK    1  A    between atoms: C2_2  and  C3_3 
REMARK    2  A    between atoms: C2_2  and  C12_13 
REMARK    3  A    between atoms: C3_3  and  C4_4 
REMARK    4  A    between atoms: C4_4  and  C5_5 
REMARK    5  A    between atoms: C6_6  and  N1_7 
REMARK    6  A    between atoms: C14_15  and  N2_16 
REMARK    7  A    between atoms: N2_16  and  C15_17 
REMARK    8  A    between atoms: C21_25  and  N4_26 
ROOT
HETATM    1  C12 UNL     1      26.164   4.705  49.660  1.00  0.00     0.082 A 
HETATM    2  C13 UNL     1      27.229   5.009  48.848  1.00  0.00     0.083 A 
HETATM    3  C14 UNL     1      27.652   6.283  48.534  1.00  0.00     0.149 A 
HETATM    4  N3  UNL     1      26.941   7.249  49.086  1.00  0.00    -0.045 NA
HETATM    5  C21 UNL     1      25.891   7.039  49.886  1.00  0.00     0.722 A 
HETATM    6  N5  UNL     1      25.532   5.778  50.152  1.00  0.00    -0.063 NA
ENDROOT
BRANCH   1   7
HETATM    7  C2  UNL     1      25.702   3.379  50.027  1.00  0.00    -0.050 C 
HETATM    8  C1  UNL     1      24.403   3.093  49.801  1.00  0.00     0.041 C 
BRANCH   7   9
HETATM    9  C3  UNL     1      26.461   2.275  50.615  1.00  0.00     0.041 C 
BRANCH   9  10
HETATM   10  C4  UNL     1      26.208   2.220  52.096  1.00  0.00     0.041 C 
BRANCH  10  11
HETATM   11  C5  UNL     1      27.010   1.145  52.754  1.00  0.00    -0.050 C 
HETATM   12  C6  UNL     1      28.168   1.491  53.342  1.00  0.00     0.028 C 
HETATM   13  C7  UNL     1      29.144   0.683  54.049  1.00  0.00     0.029 C 
HETATM   14  C8  UNL     1      29.303  -0.630  53.975  1.00  0.00     0.002 C 
HETATM   15  C9  UNL     1      28.519  -1.576  53.155  1.00  0.00    -0.004 C 
HETATM   16  C10 UNL     1      27.314  -1.310  52.645  1.00  0.00    -0.022 C 
HETATM   17  C11 UNL     1      26.377  -0.182  52.649  1.00  0.00     0.063 C 
BRANCH  12  18
HETATM   18  N1  UNL     1      28.550   2.880  53.295  1.00  0.00    -0.399 N 
HETATM   19  H7  UNL     1      29.457   3.362  53.023  1.00  0.00     0.156 HD
HETATM   20  H8  UNL     1      28.139   3.832  53.483  1.00  0.00     0.156 HD
ENDBRANCH  12  18
ENDBRANCH  10  11
ENDBRANCH   9  10
ENDBRANCH   7   9
ENDBRANCH   1   7
BRANCH   3  21
HETATM   21  N2  UNL     1      28.769   6.443  47.681  1.00  0.00    -0.340 N 
HETATM   22  H16 UNL     1      28.598   6.698  46.682  1.00  0.00     0.167 HD
BRANCH  21  23
HETATM   23  C15 UNL     1      30.130   6.292  48.040  1.00  0.00     0.035 A 
HETATM   24  C16 UNL     1      30.922   7.188  48.697  1.00  0.00     0.029 A 
HETATM   25  C17 UNL     1      32.233   7.011  49.029  1.00  0.00     0.004 A 
HETATM   26  C18 UNL     1      32.852   5.840  48.690  1.00  0.00     0.019 A 
HETATM   27  C19 UNL     1      32.121   4.887  48.027  1.00  0.00     0.013 A 
HETATM   28 BR1  UNL     1      32.960   3.247  47.544  1.00  0.00    -0.051 Br
HETATM   29  C20 UNL     1      30.805   5.123  47.720  1.00  0.00     0.048 A 
ENDBRANCH  21  23
ENDBRANCH   3  21
BRANCH   5  30
HETATM   30  N4  UNL     1      25.149   8.110  50.463  1.00  0.00    -0.231 N 
HETATM   31  H21 UNL     1      24.992   9.119  50.181  1.00  0.00     0.174 HD
HETATM   32  H22 UNL     1      24.596   8.017  51.349  1.00  0.00     0.174 HD
ENDBRANCH   5  30
TORSDOF 8
ENDMDL
MODEL 8
REMARK VINA RESULT:      -8.5      3.814      9.295
REMARK  8 active torsions:
REMARK  status: ('A' for Active; 'I' for Inactive)
REMARK    1  A    between atoms: C2_2  and  C3_3 
REMARK    2  A    between atoms: C2_2  and  C12_13 
REMARK    3  A    between atoms: C3_3  and  C4_4 
REMARK    4  A    between atoms: C4_4  and  C5_5 
REMARK    5  A    between atoms: C6_6  and  N1_7 
REMARK    6  A    between atoms: C14_15  and  N2_16 
REMARK    7  A    between atoms: N2_16  and  C15_17 
REMARK    8  A    between atoms: C21_25  and  N4_26 
ROOT
HETATM    1  C12 UNL     1      21.806   0.743  51.941  1.00  0.00     0.082 A 
HETATM    2  C13 UNL     1      20.956   0.111  52.815  1.00  0.00     0.083 A 
HETATM    3  C14 UNL     1      19.622  -0.147  52.579  1.00  0.00     0.149 A 
HETATM    4  N3  UNL     1      19.182   0.267  51.405  1.00  0.00    -0.045 NA
HETATM    5  C21 UNL     1      19.943   0.889  50.499  1.00  0.00     0.722 A 
HETATM    6  N5  UNL     1      21.231   1.110  50.790  1.00  0.00    -0.063 NA
ENDROOT
BRANCH   1   7
HETATM    7  C2  UNL     1      23.217   1.015  52.147  1.00  0.00    -0.050 C 
HETATM    8  C1  UNL     1      23.819   1.851  51.275  1.00  0.00     0.041 C 
BRANCH   7   9
HETATM    9  C3  UNL     1      24.104   0.509  53.194  1.00  0.00     0.041 C 
BRANCH   9  10
HETATM   10  C4  UNL     1      25.358   1.338  53.239  1.00  0.00     0.041 C 
BRANCH  10  11
HETATM   11  C5  UNL     1      26.566   0.500  53.506  1.00  0.00    -0.050 C 
HETATM   12  C6  UNL     1      27.694   1.122  53.888  1.00  0.00     0.028 C 
HETATM   13  C7  UNL     1      29.002   0.584  54.214  1.00  0.00     0.029 C 
HETATM   14  C8  UNL     1      29.491  -0.598  53.871  1.00  0.00     0.002 C 
HETATM   15  C9  UNL     1      28.815  -1.645  53.078  1.00  0.00    -0.004 C 
HETATM   16  C10 UNL     1      27.494  -1.711  52.892  1.00  0.00    -0.022 C 
HETATM   17  C11 UNL     1      26.317  -0.938  53.298  1.00  0.00     0.063 C 
BRANCH  12  18
HETATM   18  N1  UNL     1      27.653   2.556  54.013  1.00  0.00    -0.399 N 
HETATM   19  H7  UNL     1      28.183   3.234  54.638  1.00  0.00     0.156 HD
HETATM   20  H8  UNL     1      27.154   3.384  53.594  1.00  0.00     0.156 HD
ENDBRANCH  12  18
ENDBRANCH  10  11
ENDBRANCH   9  10
ENDBRANCH   7   9
ENDBRANCH   1   7
BRANCH   3  21
HETATM   21  N2  UNL     1      18.866  -0.809  53.575  1.00  0.00    -0.340 N 
HETATM   22  H16 UNL     1      19.040  -0.562  54.576  1.00  0.00     0.167 HD
BRANCH  21  23
HETATM   23  C15 UNL     1      17.875  -1.796  53.362  1.00  0.00     0.035 A 
HETATM   24  C16 UNL     1      17.882  -3.091  53.794  1.00  0.00     0.029 A 
HETATM   25  C17 UNL     1      16.908  -4.018  53.572  1.00  0.00     0.004 A 
HETATM   26  C18 UNL     1      15.801  -3.661  52.853  1.00  0.00     0.019 A 
HETATM   27  C19 UNL     1      15.718  -2.374  52.385  1.00  0.00     0.013 A 
HETATM   28 BR1  UNL     1      14.187  -1.850  51.382  1.00  0.00    -0.051 Br
HETATM   29  C20 UNL     1      16.732  -1.485  52.641  1.00  0.00     0.048 A 
ENDBRANCH  21  23
ENDBRANCH   3  21
BRANCH   5  30
HETATM   30  N4  UNL     1      19.429   1.321  49.243  1.00  0.00    -0.231 N 
HETATM   31  H21 UNL     1      19.065   0.806  48.392  1.00  0.00     0.174 HD
HETATM   32  H22 UNL     1      19.338   2.330  48.973  1.00  0.00     0.174 HD
ENDBRANCH   5  30
TORSDOF 8
ENDMDL
MODEL 9
REMARK VINA RESULT:      -8.5      3.036      5.786
REMARK  8 active torsions:
REMARK  status: ('A' for Active; 'I' for Inactive)
REMARK    1  A    between atoms: C2_2  and  C3_3 
REMARK    2  A    between atoms: C2_2  and  C12_13 
REMARK    3  A    between atoms: C3_3  and  C4_4 
REMARK    4  A    between atoms: C4_4  and  C5_5 
REMARK    5  A    between atoms: C6_6  and  N1_7 
REMARK    6  A    between atoms: C14_15  and  N2_16 
REMARK    7  A    between atoms: N2_16  and  C15_17 
REMARK    8  A    between atoms: C21_25  and  N4_26 
ROOT
HETATM    1  C12 UNL     1      24.555   3.378  50.854  1.00  0.00     0.082 A 
HETATM    2  C13 UNL     1      25.587   3.505  49.956  1.00  0.00     0.083 A 
HETATM    3  C14 UNL     1      26.174   4.696  49.584  1.00  0.00     0.149 A 
HETATM    4  N3  UNL     1      25.666   5.765  50.168  1.00  0.00    -0.045 NA
HETATM    5  C21 UNL     1      24.663   5.729  51.051  1.00  0.00     0.722 A 
HETATM    6  N5  UNL     1      24.136   4.540  51.370  1.00  0.00    -0.063 NA
ENDROOT
BRANCH   1   7
HETATM    7  C2  UNL     1      23.925   2.144  51.283  1.00  0.00    -0.050 C 
HETATM    8  C1  UNL     1      22.647   1.938  50.904  1.00  0.00     0.041 C 
BRANCH   7   9
HETATM    9  C3  UNL     1      24.490   1.056  52.082  1.00  0.00     0.041 C 
BRANCH   9  10
HETATM   10  C4  UNL     1      25.418   1.621  53.121  1.00  0.00     0.041 C 
BRANCH  10  11
HETATM   11  C5  UNL     1      26.546   0.689  53.421  1.00  0.00    -0.050 C 
HETATM   12  C6  UNL     1      27.709   1.217  53.837  1.00  0.00     0.028 C 
HETATM   13  C7  UNL     1      28.961   0.576  54.198  1.00  0.00     0.029 C 
HETATM   14  C8  UNL     1      29.362  -0.642  53.866  1.00  0.00     0.002 C 
HETATM   15  C9  UNL     1      28.626  -1.631  53.052  1.00  0.00    -0.004 C 
HETATM   16  C10 UNL     1      27.311  -1.590  52.828  1.00  0.00    -0.022 C 
HETATM   17  C11 UNL     1      26.189  -0.725  53.203  1.00  0.00     0.063 C 
BRANCH  12  18
HETATM   18  N1  UNL     1      27.782   2.651  53.963  1.00  0.00    -0.399 N 
HETATM   19  H7  UNL     1      27.754   3.296  54.808  1.00  0.00     0.156 HD
HETATM   20  H8  UNL     1      27.878   3.506  53.355  1.00  0.00     0.156 HD
ENDBRANCH  12  18
ENDBRANCH  10  11
ENDBRANCH   9  10
ENDBRANCH   7   9
ENDBRANCH   1   7
BRANCH   3  21
HETATM   21  N2  UNL     1      27.232   4.672  48.645  1.00  0.00    -0.340 N 
HETATM   22  H16 UNL     1      27.453   3.769  48.168  1.00  0.00     0.167 HD
BRANCH  21  23
HETATM   23  C15 UNL     1      28.048   5.766  48.269  1.00  0.00     0.035 A 
HETATM   24  C16 UNL     1      27.644   6.994  47.832  1.00  0.00     0.029 A 
HETATM   25  C17 UNL     1      28.457   8.029  47.477  1.00  0.00     0.004 A 
HETATM   26  C18 UNL     1      29.813   7.865  47.549  1.00  0.00     0.019 A 
HETATM   27  C19 UNL     1      30.298   6.657  47.981  1.00  0.00     0.013 A 
HETATM   28 BR1  UNL     1      32.182   6.402  48.092  1.00  0.00    -0.051 Br
HETATM   29  C20 UNL     1      29.429   5.652  48.325  1.00  0.00     0.048 A 
ENDBRANCH  21  23
ENDBRANCH   3  21
BRANCH   5  30
HETATM   30  N4  UNL     1      24.143   6.906  51.659  1.00  0.00    -0.231 N 
HETATM   31  H21 UNL     1      24.307   7.940  51.498  1.00  0.00     0.174 HD
HETATM   32  H22 UNL     1      23.443   6.891  52.441  1.00  0.00     0.174 HD
ENDBRANCH   5  30
TORSDOF 8
ENDMDL
