MODEL 1
REMARK VINA RESULT:      -9.3      0.000      0.000
REMARK  4 active torsions:
REMARK  status: ('A' for Active; 'I' for Inactive)
REMARK    1  A    between atoms: C11_14  and  N4_15 
REMARK    2  A    between atoms: N4_15  and  C12_16 
REMARK    3  A    between atoms: C12_16  and  C13_17 
REMARK    4  A    between atoms: C18_22  and  O1_23 
ROOT
HETATM    1  C1  UNL     1      20.969   0.900  53.857  1.00  0.00     0.015 C 
HETATM    2  C2  UNL     1      20.718   0.095  52.843  1.00  0.00    -0.080 C 
HETATM    3  C3  UNL     1      19.708   0.706  51.995  1.00  0.00     0.058 C 
HETATM    4  C4  UNL     1      19.081   0.255  51.000  1.00  0.00     0.004 C 
HETATM    5  C5  UNL     1      18.254   1.559  50.786  1.00  0.00    -0.012 C 
HETATM    6  C6  UNL     1      18.352   2.735  51.401  1.00  0.00     0.075 C 
HETATM    7  N1  UNL     1      19.206   3.136  52.349  1.00  0.00    -0.216 NA
HETATM    8  N2  UNL     1      19.869   3.996  51.338  1.00  0.00    -0.312 N 
HETATM    9  C7  UNL     1      21.093   4.060  50.761  1.00  0.00     0.212 C 
HETATM   10  N3  UNL     1      21.577   2.788  50.519  1.00  0.00    -0.283 NA
HETATM   11  C8  UNL     1      22.824   2.523  49.935  1.00  0.00     0.156 C 
HETATM   12  C9  UNL     1      23.632   1.869  51.047  1.00  0.00     0.052 C 
HETATM   13  C10 UNL     1      24.771   1.656  51.866  1.00  0.00     0.026 C 
HETATM   14  C11 UNL     1      24.119   0.611  52.734  1.00  0.00     0.002 C 
HETATM   15  C19 UNL     1      23.055  -0.079  52.983  1.00  0.00     0.002 C 
HETATM   16  C20 UNL     1      21.837  -0.923  53.330  1.00  0.00     0.062 C 
HETATM   17  H7  UNL     1      19.981   3.591  52.989  1.00  0.00     0.152 HD
HETATM   18  H8  UNL     1      19.594   4.856  50.748  1.00  0.00     0.181 HD
ENDROOT
BRANCH  14  19
HETATM   19  N4  UNL     1      24.977   0.088  53.819  1.00  0.00    -0.389 N 
HETATM   20  H14 UNL     1      25.079   0.247  54.860  1.00  0.00     0.159 HD
BRANCH  19  21
HETATM   21  C12 UNL     1      25.791  -0.866  53.119  1.00  0.00     0.161 C 
BRANCH  21  22
HETATM   22  C13 UNL     1      27.234  -0.817  53.290  1.00  0.00    -0.007 A 
HETATM   23  C14 UNL     1      27.775   0.449  53.664  1.00  0.00     0.011 A 
HETATM   24  C15 UNL     1      29.119   0.342  53.753  1.00  0.00     0.001 A 
HETATM   25  C16 UNL     1      30.147  -0.567  53.608  1.00  0.00     0.003 A 
HETATM   26  C17 UNL     1      29.576  -1.848  53.218  1.00  0.00     0.037 A 
HETATM   27  C18 UNL     1      28.184  -1.715  53.140  1.00  0.00     0.073 A 
BRANCH  27  28
HETATM   28  O1  UNL     1      27.712  -2.998  52.771  1.00  0.00    -0.360 OA
HETATM   29  H21 UNL     1      26.786  -3.211  53.142  1.00  0.00     0.217 HD
ENDBRANCH  27  28
ENDBRANCH  21  22
ENDBRANCH  19  21
ENDBRANCH  14  19
TORSDOF 4
ENDMDL
MODEL 2
REMARK VINA RESULT:      -9.3      1.598      3.268
REMARK  4 active torsions:
REMARK  status: ('A' for Active; 'I' for Inactive)
REMARK    1  A    between atoms: C11_14  and  N4_15 
REMARK    2  A    between atoms: N4_15  and  C12_16 
REMARK    3  A    between atoms: C12_16  and  C13_17 
REMARK    4  A    between atoms: C18_22  and  O1_23 
ROOT
HETATM    1  C1  UNL     1      24.938   2.353  51.179  1.00  0.00     0.015 C 
HETATM    2  C2  UNL     1      24.098   3.127  51.837  1.00  0.00    -0.080 C 
HETATM    3  C3  UNL     1      23.187   3.747  50.889  1.00  0.00     0.058 C 
HETATM    4  C4  UNL     1      22.313   4.640  51.046  1.00  0.00     0.004 C 
HETATM    5  C5  UNL     1      21.891   4.652  49.544  1.00  0.00    -0.012 C 
HETATM    6  C6  UNL     1      22.277   3.856  48.551  1.00  0.00     0.075 C 
HETATM    7  N1  UNL     1      23.106   2.806  48.567  1.00  0.00    -0.216 NA
HETATM    8  N2  UNL     1      21.933   1.921  48.364  1.00  0.00    -0.312 N 
HETATM    9  C7  UNL     1      21.313   0.943  49.068  1.00  0.00     0.212 C 
HETATM   10  N3  UNL     1      21.292   1.259  50.413  1.00  0.00    -0.283 NA
HETATM   11  C8  UNL     1      20.725   0.439  51.400  1.00  0.00     0.156 C 
HETATM   12  C9  UNL     1      21.910  -0.022  52.236  1.00  0.00     0.052 C 
HETATM   13  C10 UNL     1      22.715  -0.961  52.932  1.00  0.00     0.026 C 
HETATM   14  C11 UNL     1      23.782   0.034  53.313  1.00  0.00     0.002 C 
HETATM   15  C19 UNL     1      24.188   1.260  53.256  1.00  0.00     0.002 C 
HETATM   16  C20 UNL     1      24.725   2.684  53.228  1.00  0.00     0.062 C 
HETATM   17  H7  UNL     1      23.625   1.833  48.537  1.00  0.00     0.152 HD
HETATM   18  H8  UNL     1      21.205   1.762  47.584  1.00  0.00     0.181 HD
ENDROOT
BRANCH  14  19
HETATM   19  N4  UNL     1      24.915  -0.537  54.073  1.00  0.00    -0.389 N 
HETATM   20  H14 UNL     1      25.155  -0.691  55.092  1.00  0.00     0.159 HD
BRANCH  19  21
HETATM   21  C12 UNL     1      25.801  -0.946  53.020  1.00  0.00     0.161 C 
BRANCH  21  22
HETATM   22  C13 UNL     1      27.235  -0.827  53.221  1.00  0.00    -0.007 A 
HETATM   23  C14 UNL     1      27.713   0.480  53.540  1.00  0.00     0.011 A 
HETATM   24  C15 UNL     1      29.057   0.435  53.665  1.00  0.00     0.001 A 
HETATM   25  C16 UNL     1      30.127  -0.435  53.594  1.00  0.00     0.003 A 
HETATM   26  C17 UNL     1      29.620  -1.758  53.261  1.00  0.00     0.037 A 
HETATM   27  C18 UNL     1      28.226  -1.690  53.142  1.00  0.00     0.073 A 
BRANCH  27  28
HETATM   28  O1  UNL     1      27.817  -3.009  52.833  1.00  0.00    -0.360 OA
HETATM   29  H21 UNL     1      27.980  -3.267  51.859  1.00  0.00     0.217 HD
ENDBRANCH  27  28
ENDBRANCH  21  22
ENDBRANCH  19  21
ENDBRANCH  14  19
TORSDOF 4
ENDMDL
MODEL 3
REMARK VINA RESULT:      -8.7      3.088      4.232
REMARK  4 active torsions:
REMARK  status: ('A' for Active; 'I' for Inactive)
REMARK    1  A    between atoms: C11_14  and  N4_15 
REMARK    2  A    between atoms: N4_15  and  C12_16 
REMARK    3  A    between atoms: C12_16  and  C13_17 
REMARK    4  A    between atoms: C18_22  and  O1_23 
ROOT
HETATM    1  C1  UNL     1      23.280   4.711  52.791  1.00  0.00     0.015 C 
HETATM    2  C2  UNL     1      22.595   4.466  51.691  1.00  0.00    -0.080 C 
HETATM    3  C3  UNL     1      22.482   5.696  50.924  1.00  0.00     0.058 C 
HETATM    4  C4  UNL     1      21.821   5.963  49.885  1.00  0.00     0.004 C 
HETATM    5  C5  UNL     1      22.297   7.447  49.826  1.00  0.00    -0.012 C 
HETATM    6  C6  UNL     1      23.200   8.076  50.574  1.00  0.00     0.075 C 
HETATM    7  N1  UNL     1      23.973   7.607  51.559  1.00  0.00    -0.216 NA
HETATM    8  N2  UNL     1      25.141   7.729  50.653  1.00  0.00    -0.312 N 
HETATM    9  C7  UNL     1      26.029   6.879  50.082  1.00  0.00     0.212 C 
HETATM   10  N3  UNL     1      25.396   5.714  49.693  1.00  0.00    -0.283 NA
HETATM   11  C8  UNL     1      26.050   4.636  49.078  1.00  0.00     0.156 C 
HETATM   12  C9  UNL     1      25.977   3.514  50.103  1.00  0.00     0.052 C 
HETATM   13  C10 UNL     1      26.479   2.443  50.888  1.00  0.00     0.026 C 
HETATM   14  C11 UNL     1      25.189   2.205  51.631  1.00  0.00     0.002 C 
HETATM   15  C19 UNL     1      23.957   2.558  51.801  1.00  0.00     0.002 C 
HETATM   16  C20 UNL     1      22.501   2.922  52.053  1.00  0.00     0.062 C 
HETATM   17  H7  UNL     1      24.763   7.256  52.245  1.00  0.00     0.152 HD
HETATM   18  H8  UNL     1      25.668   8.535  50.168  1.00  0.00     0.181 HD
ENDROOT
BRANCH  14  19
HETATM   19  N4  UNL     1      25.250   1.130  52.644  1.00  0.00    -0.389 N 
HETATM   20  H14 UNL     1      24.720   0.237  52.849  1.00  0.00     0.159 HD
BRANCH  19  21
HETATM   21  C12 UNL     1      26.361   1.549  53.453  1.00  0.00     0.161 C 
BRANCH  21  22
HETATM   22  C13 UNL     1      27.551   0.715  53.498  1.00  0.00    -0.007 A 
HETATM   23  C14 UNL     1      28.795   1.409  53.587  1.00  0.00     0.011 A 
HETATM   24  C15 UNL     1      29.800   0.506  53.589  1.00  0.00     0.001 A 
HETATM   25  C16 UNL     1      30.040  -0.852  53.537  1.00  0.00     0.003 A 
HETATM   26  C17 UNL     1      28.761  -1.540  53.438  1.00  0.00     0.037 A 
HETATM   27  C18 UNL     1      27.735  -0.587  53.445  1.00  0.00     0.073 A 
BRANCH  27  28
HETATM   28  O1  UNL     1      26.536  -1.335  53.359  1.00  0.00    -0.360 OA
HETATM   29  H21 UNL     1      26.231  -1.505  52.402  1.00  0.00     0.217 HD
ENDBRANCH  27  28
ENDBRANCH  21  22
ENDBRANCH  19  21
ENDBRANCH  14  19
TORSDOF 4
ENDMDL
MODEL 4
REMARK VINA RESULT:      -8.7      1.308      1.605
REMARK  4 active torsions:
REMARK  status: ('A' for Active; 'I' for Inactive)
REMARK    1  A    between atoms: C11_14  and  N4_15 
REMARK    2  A    between atoms: N4_15  and  C12_16 
REMARK    3  A    between atoms: C12_16  and  C13_17 
REMARK    4  A    between atoms: C18_22  and  O1_23 
ROOT
HETATM    1  C1  UNL     1      20.696   1.167  53.533  1.00  0.00     0.015 C 
HETATM    2  C2  UNL     1      20.483   0.303  52.560  1.00  0.00    -0.080 C 
HETATM    3  C3  UNL     1      19.395   0.790  51.728  1.00  0.00     0.058 C 
HETATM    4  C4  UNL     1      18.778   0.246  50.773  1.00  0.00     0.004 C 
HETATM    5  C5  UNL     1      17.833   1.464  50.541  1.00  0.00    -0.012 C 
HETATM    6  C6  UNL     1      17.848   2.668  51.107  1.00  0.00     0.075 C 
HETATM    7  N1  UNL     1      18.694   3.180  52.008  1.00  0.00    -0.216 NA
HETATM    8  N2  UNL     1      19.246   4.052  50.942  1.00  0.00    -0.312 N 
HETATM    9  C7  UNL     1      20.439   4.198  50.318  1.00  0.00     0.212 C 
HETATM   10  N3  UNL     1      21.024   2.964  50.107  1.00  0.00    -0.283 NA
HETATM   11  C8  UNL     1      22.271   2.785  49.489  1.00  0.00     0.156 C 
HETATM   12  C9  UNL     1      23.169   2.248  50.593  1.00  0.00     0.052 C 
HETATM   13  C10 UNL     1      24.349   2.168  51.377  1.00  0.00     0.026 C 
HETATM   14  C11 UNL     1      23.820   1.106  52.307  1.00  0.00     0.002 C 
HETATM   15  C19 UNL     1      22.829   0.338  52.621  1.00  0.00     0.002 C 
HETATM   16  C20 UNL     1      21.702  -0.594  53.044  1.00  0.00     0.062 C 
HETATM   17  H7  UNL     1      19.447   3.726  52.602  1.00  0.00     0.152 HD
HETATM   18  H8  UNL     1      18.876   4.860  50.331  1.00  0.00     0.181 HD
ENDROOT
BRANCH  14  19
HETATM   19  N4  UNL     1      24.756   0.703  53.379  1.00  0.00    -0.389 N 
HETATM   20  H14 UNL     1      24.706   0.122  54.263  1.00  0.00     0.159 HD
BRANCH  19  21
HETATM   21  C12 UNL     1      25.980   1.320  52.951  1.00  0.00     0.161 C 
BRANCH  21  22
HETATM   22  C13 UNL     1      27.233   0.612  53.157  1.00  0.00    -0.007 A 
HETATM   23  C14 UNL     1      27.226  -0.776  52.826  1.00  0.00     0.011 A 
HETATM   24  C15 UNL     1      28.443  -1.296  53.099  1.00  0.00     0.001 A 
HETATM   25  C16 UNL     1      29.687  -0.951  53.585  1.00  0.00     0.003 A 
HETATM   26  C17 UNL     1      29.671   0.464  53.925  1.00  0.00     0.037 A 
HETATM   27  C18 UNL     1      28.405   0.984  53.627  1.00  0.00     0.073 A 
BRANCH  27  28
HETATM   28  O1  UNL     1      28.478   2.355  53.972  1.00  0.00    -0.360 OA
HETATM   29  H21 UNL     1      27.778   2.639  54.657  1.00  0.00     0.217 HD
ENDBRANCH  27  28
ENDBRANCH  21  22
ENDBRANCH  19  21
ENDBRANCH  14  19
TORSDOF 4
ENDMDL
MODEL 5
REMARK VINA RESULT:      -8.5      3.592      5.255
REMARK  4 active torsions:
REMARK  status: ('A' for Active; 'I' for Inactive)
REMARK    1  A    between atoms: C11_14  and  N4_15 
REMARK    2  A    between atoms: N4_15  and  C12_16 
REMARK    3  A    between atoms: C12_16  and  C13_17 
REMARK    4  A    between atoms: C18_22  and  O1_23 
ROOT
HETATM    1  C1  UNL     1      23.566   5.008  53.063  1.00  0.00     0.015 C 
HETATM    2  C2  UNL     1      22.822   4.618  52.046  1.00  0.00    -0.080 C 
HETATM    3  C3  UNL     1      22.616   5.746  51.154  1.00  0.00     0.058 C 
HETATM    4  C4  UNL     1      21.881   5.872  50.138  1.00  0.00     0.004 C 
HETATM    5  C5  UNL     1      22.297   7.353  49.880  1.00  0.00    -0.012 C 
HETATM    6  C6  UNL     1      23.221   8.091  50.489  1.00  0.00     0.075 C 
HETATM    7  N1  UNL     1      24.072   7.762  51.467  1.00  0.00    -0.216 NA
HETATM    8  N2  UNL     1      25.176   7.812  50.477  1.00  0.00    -0.312 N 
HETATM    9  C7  UNL     1      26.056   6.929  49.949  1.00  0.00     0.212 C 
HETATM   10  N3  UNL     1      25.443   5.709  49.737  1.00  0.00    -0.283 NA
HETATM   11  C8  UNL     1      26.097   4.586  49.206  1.00  0.00     0.156 C 
HETATM   12  C9  UNL     1      26.130   3.589  50.355  1.00  0.00     0.052 C 
HETATM   13  C10 UNL     1      26.720   2.631  51.220  1.00  0.00     0.026 C 
HETATM   14  C11 UNL     1      25.489   2.443  52.070  1.00  0.00     0.002 C 
HETATM   15  C19 UNL     1      24.259   2.776  52.281  1.00  0.00     0.002 C 
HETATM   16  C20 UNL     1      22.809   3.124  52.587  1.00  0.00     0.062 C 
HETATM   17  H7  UNL     1      24.916   7.516  52.134  1.00  0.00     0.152 HD
HETATM   18  H8  UNL     1      25.640   8.573  49.870  1.00  0.00     0.181 HD
ENDROOT
BRANCH  14  19
HETATM   19  N4  UNL     1      25.654   1.495  53.193  1.00  0.00    -0.389 N 
HETATM   20  H14 UNL     1      26.050   1.529  54.174  1.00  0.00     0.159 HD
BRANCH  19  21
HETATM   21  C12 UNL     1      25.067   0.298  52.659  1.00  0.00     0.161 C 
BRANCH  21  22
HETATM   22  C13 UNL     1      24.040  -0.384  53.428  1.00  0.00    -0.007 A 
HETATM   23  C14 UNL     1      22.756  -0.475  52.811  1.00  0.00     0.011 A 
HETATM   24  C15 UNL     1      21.909  -1.103  53.655  1.00  0.00     0.001 A 
HETATM   25  C16 UNL     1      21.854  -1.688  54.904  1.00  0.00     0.003 A 
HETATM   26  C17 UNL     1      23.169  -1.578  55.519  1.00  0.00     0.037 A 
HETATM   27  C18 UNL     1      24.032  -0.931  54.625  1.00  0.00     0.073 A 
BRANCH  27  28
HETATM   28  O1  UNL     1      25.280  -0.878  55.291  1.00  0.00    -0.360 OA
HETATM   29  H21 UNL     1      25.403  -0.038  55.856  1.00  0.00     0.217 HD
ENDBRANCH  27  28
ENDBRANCH  21  22
ENDBRANCH  19  21
ENDBRANCH  14  19
TORSDOF 4
ENDMDL
MODEL 6
REMARK VINA RESULT:      -8.5      2.214      3.828
REMARK  4 active torsions:
REMARK  status: ('A' for Active; 'I' for Inactive)
REMARK    1  A    between atoms: C11_14  and  N4_15 
REMARK    2  A    between atoms: N4_15  and  C12_16 
REMARK    3  A    between atoms: C12_16  and  C13_17 
REMARK    4  A    between atoms: C18_22  and  O1_23 
ROOT
HETATM    1  C1  UNL     1      23.509   4.283  49.848  1.00  0.00     0.015 C 
HETATM    2  C2  UNL     1      22.561   4.927  50.500  1.00  0.00    -0.080 C 
HETATM    3  C3  UNL     1      21.312   4.795  49.767  1.00  0.00     0.058 C 
HETATM    4  C4  UNL     1      20.189   5.337  49.944  1.00  0.00     0.004 C 
HETATM    5  C5  UNL     1      19.527   4.629  48.723  1.00  0.00    -0.012 C 
HETATM    6  C6  UNL     1      20.018   3.687  47.922  1.00  0.00     0.075 C 
HETATM    7  N1  UNL     1      21.200   3.062  47.959  1.00  0.00    -0.216 NA
HETATM    8  N2  UNL     1      20.498   1.834  48.406  1.00  0.00    -0.312 N 
HETATM    9  C7  UNL     1      20.495   1.059  49.517  1.00  0.00     0.212 C 
HETATM   10  N3  UNL     1      20.597   1.843  50.650  1.00  0.00    -0.283 NA
HETATM   11  C8  UNL     1      20.629   1.330  51.955  1.00  0.00     0.156 C 
HETATM   12  C9  UNL     1      22.032   1.645  52.453  1.00  0.00     0.052 C 
HETATM   13  C10 UNL     1      23.274   1.371  53.081  1.00  0.00     0.026 C 
HETATM   14  C11 UNL     1      23.870   2.727  52.799  1.00  0.00     0.002 C 
HETATM   15  C19 UNL     1      23.700   3.895  52.273  1.00  0.00     0.002 C 
HETATM   16  C20 UNL     1      23.567   5.288  51.674  1.00  0.00     0.062 C 
HETATM   17  H7  UNL     1      22.067   2.383  48.035  1.00  0.00     0.152 HD
HETATM   18  H8  UNL     1      19.773   1.157  47.983  1.00  0.00     0.181 HD
ENDROOT
BRANCH  14  19
HETATM   19  N4  UNL     1      25.259   2.901  53.275  1.00  0.00    -0.389 N 
HETATM   20  H14 UNL     1      25.740   3.417  54.064  1.00  0.00     0.159 HD
BRANCH  19  21
HETATM   21  C12 UNL     1      25.995   2.097  52.341  1.00  0.00     0.161 C 
BRANCH  21  22
HETATM   22  C13 UNL     1      27.055   1.235  52.838  1.00  0.00    -0.007 A 
HETATM   23  C14 UNL     1      26.963  -0.141  52.469  1.00  0.00     0.011 A 
HETATM   24  C15 UNL     1      27.994  -0.812  53.027  1.00  0.00     0.001 A 
HETATM   25  C16 UNL     1      29.103  -0.630  53.828  1.00  0.00     0.003 A 
HETATM   26  C17 UNL     1      29.174   0.776  54.199  1.00  0.00     0.037 A 
HETATM   27  C18 UNL     1      28.102   1.454  53.605  1.00  0.00     0.073 A 
BRANCH  27  28
HETATM   28  O1  UNL     1      28.252   2.804  54.003  1.00  0.00    -0.360 OA
HETATM   29  H21 UNL     1      29.220   3.066  54.190  1.00  0.00     0.217 HD
ENDBRANCH  27  28
ENDBRANCH  21  22
ENDBRANCH  19  21
ENDBRANCH  14  19
TORSDOF 4
ENDMDL
MODEL 7
REMARK VINA RESULT:      -8.4      2.517      3.524
REMARK  4 active torsions:
REMARK  status: ('A' for Active; 'I' for Inactive)
REMARK    1  A    between atoms: C11_14  and  N4_15 
REMARK    2  A    between atoms: N4_15  and  C12_16 
REMARK    3  A    between atoms: C12_16  and  C13_17 
REMARK    4  A    between atoms: C18_22  and  O1_23 
ROOT
HETATM    1  C1  UNL     1      21.817   2.852  50.964  1.00  0.00     0.015 C 
HETATM    2  C2  UNL     1      22.118   2.035  49.973  1.00  0.00    -0.080 C 
HETATM    3  C3  UNL     1      22.134   2.788  48.730  1.00  0.00     0.058 C 
HETATM    4  C4  UNL     1      22.248   2.407  47.535  1.00  0.00     0.004 C 
HETATM    5  C5  UNL     1      22.142   3.848  46.946  1.00  0.00    -0.012 C 
HETATM    6  C6  UNL     1      22.096   5.018  47.576  1.00  0.00     0.075 C 
HETATM    7  N1  UNL     1      22.159   5.290  48.884  1.00  0.00    -0.216 NA
HETATM    8  N2  UNL     1      23.516   5.849  48.667  1.00  0.00    -0.312 N 
HETATM    9  C7  UNL     1      24.773   5.546  49.069  1.00  0.00     0.212 C 
HETATM   10  N3  UNL     1      24.952   4.176  49.095  1.00  0.00    -0.283 NA
HETATM   11  C8  UNL     1      26.148   3.550  49.477  1.00  0.00     0.156 C 
HETATM   12  C9  UNL     1      25.803   2.833  50.774  1.00  0.00     0.052 C 
HETATM   13  C10 UNL     1      25.998   2.429  52.121  1.00  0.00     0.026 C 
HETATM   14  C11 UNL     1      24.697   1.674  52.223  1.00  0.00     0.002 C 
HETATM   15  C19 UNL     1      23.613   1.300  51.626  1.00  0.00     0.002 C 
HETATM   16  C20 UNL     1      22.316   0.827  50.985  1.00  0.00     0.062 C 
HETATM   17  H7  UNL     1      22.387   5.601  49.918  1.00  0.00     0.152 HD
HETATM   18  H8  UNL     1      23.935   6.685  48.130  1.00  0.00     0.181 HD
ENDROOT
BRANCH  14  19
HETATM   19  N4  UNL     1      24.438   1.068  53.546  1.00  0.00    -0.389 N 
HETATM   20  H14 UNL     1      23.974   1.367  54.449  1.00  0.00     0.159 HD
BRANCH  19  21
HETATM   21  C12 UNL     1      24.999  -0.244  53.386  1.00  0.00     0.161 C 
BRANCH  21  22
HETATM   22  C13 UNL     1      26.431  -0.423  53.559  1.00  0.00    -0.007 A 
HETATM   23  C14 UNL     1      27.053  -1.359  52.678  1.00  0.00     0.011 A 
HETATM   24  C15 UNL     1      28.367  -1.437  52.980  1.00  0.00     0.001 A 
HETATM   25  C16 UNL     1      29.315  -0.925  53.842  1.00  0.00     0.003 A 
HETATM   26  C17 UNL     1      28.661   0.020  54.736  1.00  0.00     0.037 A 
HETATM   27  C18 UNL     1      27.303   0.090  54.401  1.00  0.00     0.073 A 
BRANCH  27  28
HETATM   28  O1  UNL     1      26.749   1.032  55.301  1.00  0.00    -0.360 OA
HETATM   29  H21 UNL     1      27.221   1.935  55.285  1.00  0.00     0.217 HD
ENDBRANCH  27  28
ENDBRANCH  21  22
ENDBRANCH  19  21
ENDBRANCH  14  19
TORSDOF 4
ENDMDL
MODEL 8
REMARK VINA RESULT:      -8.4      2.529      4.518
REMARK  4 active torsions:
REMARK  status: ('A' for Active; 'I' for Inactive)
REMARK    1  A    between atoms: C11_14  and  N4_15 
REMARK    2  A    between atoms: N4_15  and  C12_16 
REMARK    3  A    between atoms: C12_16  and  C13_17 
REMARK    4  A    between atoms: C18_22  and  O1_23 
ROOT
HETATM    1  C1  UNL     1      25.395   3.093  49.269  1.00  0.00     0.015 C 
HETATM    2  C2  UNL     1      25.903   4.043  50.030  1.00  0.00    -0.080 C 
HETATM    3  C3  UNL     1      25.334   5.320  49.631  1.00  0.00     0.058 C 
HETATM    4  C4  UNL     1      25.612   6.496  49.988  1.00  0.00     0.004 C 
HETATM    5  C5  UNL     1      24.544   7.152  49.060  1.00  0.00    -0.012 C 
HETATM    6  C6  UNL     1      23.614   6.578  48.302  1.00  0.00     0.075 C 
HETATM    7  N1  UNL     1      23.314   5.283  48.148  1.00  0.00    -0.216 NA
HETATM    8  N2  UNL     1      22.061   5.520  48.906  1.00  0.00    -0.312 N 
HETATM    9  C7  UNL     1      21.535   5.099  50.082  1.00  0.00     0.212 C 
HETATM   10  N3  UNL     1      22.522   5.008  51.044  1.00  0.00    -0.283 NA
HETATM   11  C8  UNL     1      22.292   4.592  52.364  1.00  0.00     0.156 C 
HETATM   12  C9  UNL     1      23.027   3.264  52.476  1.00  0.00     0.052 C 
HETATM   13  C10 UNL     1      23.187   1.900  52.832  1.00  0.00     0.026 C 
HETATM   14  C11 UNL     1      24.567   1.768  52.239  1.00  0.00     0.002 C 
HETATM   15  C19 UNL     1      25.536   2.351  51.615  1.00  0.00     0.002 C 
HETATM   16  C20 UNL     1      26.715   2.975  50.880  1.00  0.00     0.062 C 
HETATM   17  H7  UNL     1      22.892   4.264  48.112  1.00  0.00     0.152 HD
HETATM   18  H8  UNL     1      21.160   6.094  48.758  1.00  0.00     0.181 HD
ENDROOT
BRANCH  14  19
HETATM   19  N4  UNL     1      25.160   0.419  52.353  1.00  0.00    -0.389 N 
HETATM   20  H14 UNL     1      25.149  -0.475  51.785  1.00  0.00     0.159 HD
BRANCH  19  21
HETATM   21  C12 UNL     1      25.914   0.528  53.570  1.00  0.00     0.161 C 
BRANCH  21  22
HETATM   22  C13 UNL     1      27.299   0.089  53.581  1.00  0.00    -0.007 A 
HETATM   23  C14 UNL     1      28.267   1.085  53.913  1.00  0.00     0.011 A 
HETATM   24  C15 UNL     1      29.499   0.536  53.851  1.00  0.00     0.001 A 
HETATM   25  C16 UNL     1      30.146  -0.652  53.580  1.00  0.00     0.003 A 
HETATM   26  C17 UNL     1      29.145  -1.652  53.236  1.00  0.00     0.037 A 
HETATM   27  C18 UNL     1      27.877  -1.063  53.314  1.00  0.00     0.073 A 
BRANCH  27  28
HETATM   28  O1  UNL     1      26.969  -2.097  52.980  1.00  0.00    -0.360 OA
HETATM   29  H21 UNL     1      27.427  -2.962  52.692  1.00  0.00     0.217 HD
ENDBRANCH  27  28
ENDBRANCH  21  22
ENDBRANCH  19  21
ENDBRANCH  14  19
TORSDOF 4
ENDMDL
MODEL 9
REMARK VINA RESULT:      -8.3      4.275      6.181
REMARK  4 active torsions:
REMARK  status: ('A' for Active; 'I' for Inactive)
REMARK    1  A    between atoms: C11_14  and  N4_15 
REMARK    2  A    between atoms: N4_15  and  C12_16 
REMARK    3  A    between atoms: C12_16  and  C13_17 
REMARK    4  A    between atoms: C18_22  and  O1_23 
ROOT
HETATM    1  C1  UNL     1      24.054   2.682  53.325  1.00  0.00     0.015 C 
HETATM    2  C2  UNL     1      24.521   1.528  52.889  1.00  0.00    -0.080 C 
HETATM    3  C3  UNL     1      23.497   0.511  53.061  1.00  0.00     0.058 C 
HETATM    4  C4  UNL     1      23.539  -0.738  52.902  1.00  0.00     0.004 C 
HETATM    5  C5  UNL     1      22.051  -0.955  53.316  1.00  0.00    -0.012 C 
HETATM    6  C6  UNL     1      21.108  -0.057  53.586  1.00  0.00     0.075 C 
HETATM    7  N1  UNL     1      21.161   1.279  53.545  1.00  0.00    -0.216 NA
HETATM    8  N2  UNL     1      20.300   1.242  52.338  1.00  0.00    -0.312 N 
HETATM    9  C7  UNL     1      20.428   1.589  51.035  1.00  0.00     0.212 C 
HETATM   10  N3  UNL     1      21.695   1.280  50.578  1.00  0.00    -0.283 NA
HETATM   11  C8  UNL     1      22.137   1.527  49.269  1.00  0.00     0.156 C 
HETATM   12  C9  UNL     1      23.207   2.597  49.426  1.00  0.00     0.052 C 
HETATM   13  C10 UNL     1      23.883   3.806  49.117  1.00  0.00     0.026 C 
HETATM   14  C11 UNL     1      24.890   3.685  50.233  1.00  0.00     0.002 C 
HETATM   15  C19 UNL     1      25.319   2.987  51.232  1.00  0.00     0.002 C 
HETATM   16  C20 UNL     1      25.875   2.215  52.421  1.00  0.00     0.062 C 
HETATM   17  H7  UNL     1      21.076   2.363  53.359  1.00  0.00     0.152 HD
HETATM   18  H8  UNL     1      19.290   0.939  52.113  1.00  0.00     0.181 HD
ENDROOT
BRANCH  14  19
HETATM   19  N4  UNL     1      25.844   4.810  50.327  1.00  0.00    -0.389 N 
HETATM   20  H14 UNL     1      26.595   5.124  51.004  1.00  0.00     0.159 HD
BRANCH  19  21
HETATM   21  C12 UNL     1      25.559   5.542  49.125  1.00  0.00     0.161 C 
BRANCH  21  22
HETATM   22  C13 UNL     1      26.636   6.266  48.471  1.00  0.00    -0.007 A 
HETATM   23  C14 UNL     1      26.247   7.414  47.717  1.00  0.00     0.011 A 
HETATM   24  C15 UNL     1      27.346   7.957  47.149  1.00  0.00     0.001 A 
HETATM   25  C16 UNL     1      28.712   7.788  47.045  1.00  0.00     0.003 A 
HETATM   26  C17 UNL     1      29.087   6.609  47.813  1.00  0.00     0.037 A 
HETATM   27  C18 UNL     1      27.936   6.067  48.398  1.00  0.00     0.073 A 
BRANCH  27  28
HETATM   28  O1  UNL     1      28.387   4.943  49.130  1.00  0.00    -0.360 OA
HETATM   29  H21 UNL     1      28.279   5.045  50.138  1.00  0.00     0.217 HD
ENDBRANCH  27  28
ENDBRANCH  21  22
ENDBRANCH  19  21
ENDBRANCH  14  19
TORSDOF 4
ENDMDL
