MODEL 1
REMARK VINA RESULT:      -7.7      0.000      0.000
REMARK  6 active torsions:
REMARK  status: ('A' for Active; 'I' for Inactive)
REMARK    1  A    between atoms: N2_2  and  N3_3 
REMARK    2  A    between atoms: C4_8  and  C5_9 
REMARK    3  A    between atoms: C5_9  and  C6_10 
REMARK    4  A    between atoms: C6_10  and  N5_11 
REMARK    5  A    between atoms: C8_13  and  C9_14 
REMARK    6  A    between atoms: C9_14  and  C10_15 
ROOT
HETATM    1  C6  UNL     1      24.517  -0.262  53.743  1.00  0.00     0.134 C 
ENDROOT
BRANCH   1   2
HETATM    2  C5  UNL     1      25.607  -0.844  52.976  1.00  0.00     0.026 C 
BRANCH   2   3
HETATM    3  C4  UNL     1      26.681  -0.244  53.188  1.00  0.00     0.018 A 
HETATM    4  N3  UNL     1      28.017  -1.166  53.179  1.00  0.00     0.000 N 
HETATM    5  N4  UNL     1      29.452  -0.880  53.406  1.00  0.00    -0.221 NA
HETATM    6  C2  UNL     1      28.770   0.164  53.516  1.00  0.00     0.100 A 
HETATM    7  C3  UNL     1      27.823  -0.010  53.368  1.00  0.00    -0.035 A 
HETATM    8  C1  UNL     1      29.927   0.353  53.691  1.00  0.00     0.129 A 
BRANCH   4   9
HETATM    9  N2  UNL     1      27.605  -2.650  52.862  1.00  0.00    -0.032 NA
HETATM   10  N1  UNL     1      28.512  -3.480  53.114  1.00  0.00    -0.182 NA
HETATM   11  H1  UNL     1      28.312  -4.493  52.928  1.00  0.00     0.214 HD
ENDBRANCH   4   9
ENDBRANCH   2   3
ENDBRANCH   1   2
BRANCH   1  12
HETATM   12  N5  UNL     1      23.813   0.800  53.025  1.00  0.00    -0.357 N 
HETATM   13  C7  UNL     1      22.626   0.988  52.278  1.00  0.00     0.116 A 
HETATM   14  C8  UNL     1      23.451   2.050  52.440  1.00  0.00     0.027 A 
BRANCH  14  15
HETATM   15  C9  UNL     1      23.991   3.434  52.340  1.00  0.00     0.063 C 
BRANCH  15  16
HETATM   16  C10 UNL     1      24.434   3.643  50.892  1.00  0.00    -0.009 C 
HETATM   17  C11 UNL     1      25.706   2.903  50.604  1.00  0.00     0.005 C 
HETATM   18  C12 UNL     1      26.698   3.564  49.741  1.00  0.00     0.000 C 
HETATM   19  C13 UNL     1      26.327   4.864  49.106  1.00  0.00     0.000 C 
HETATM   20  C14 UNL     1      24.913   5.283  49.202  1.00  0.00     0.000 C 
HETATM   21  C15 UNL     1      24.480   5.120  50.647  1.00  0.00     0.005 C 
ENDBRANCH  15  16
ENDBRANCH  14  15
ENDBRANCH   1  12
TORSDOF 6
ENDMDL
MODEL 2
REMARK VINA RESULT:      -7.7      1.998      4.586
REMARK  6 active torsions:
REMARK  status: ('A' for Active; 'I' for Inactive)
REMARK    1  A    between atoms: N2_2  and  N3_3 
REMARK    2  A    between atoms: C4_8  and  C5_9 
REMARK    3  A    between atoms: C5_9  and  C6_10 
REMARK    4  A    between atoms: C6_10  and  N5_11 
REMARK    5  A    between atoms: C8_13  and  C9_14 
REMARK    6  A    between atoms: C9_14  and  C10_15 
ROOT
HETATM    1  C6  UNL     1      26.283   2.417  51.370  1.00  0.00     0.134 C 
ENDROOT
BRANCH   1   2
HETATM    2  C5  UNL     1      26.604   2.073  52.747  1.00  0.00     0.026 C 
BRANCH   2   3
HETATM    3  C4  UNL     1      27.156   0.956  52.817  1.00  0.00     0.018 A 
HETATM    4  N3  UNL     1      28.556   0.912  53.638  1.00  0.00     0.000 N 
HETATM    5  N4  UNL     1      29.528  -0.165  53.935  1.00  0.00    -0.221 NA
HETATM    6  C2  UNL     1      28.574  -0.605  53.254  1.00  0.00     0.100 A 
HETATM    7  C3  UNL     1      27.926   0.093  53.052  1.00  0.00    -0.035 A 
HETATM    8  C1  UNL     1      29.375  -1.440  53.513  1.00  0.00     0.129 A 
BRANCH   4   9
HETATM    9  N2  UNL     1      28.864   2.352  54.189  1.00  0.00    -0.032 NA
HETATM   10  N1  UNL     1      29.911   2.404  54.879  1.00  0.00    -0.182 NA
HETATM   11  H1  UNL     1      30.184   3.334  55.283  1.00  0.00     0.214 HD
ENDBRANCH   4   9
ENDBRANCH   2   3
ENDBRANCH   1   2
BRANCH   1  12
HETATM   12  N5  UNL     1      24.845   2.548  51.132  1.00  0.00    -0.357 N 
HETATM   13  C7  UNL     1      23.906   3.532  50.743  1.00  0.00     0.116 A 
HETATM   14  C8  UNL     1      23.449   2.286  51.012  1.00  0.00     0.027 A 
BRANCH  14  15
HETATM   15  C9  UNL     1      22.507   1.145  51.187  1.00  0.00     0.063 C 
BRANCH  15  16
HETATM   16  C10 UNL     1      22.319   0.940  52.690  1.00  0.00    -0.009 C 
HETATM   17  C11 UNL     1      23.396   0.063  53.255  1.00  0.00     0.005 C 
HETATM   18  C12 UNL     1      23.009  -0.909  54.290  1.00  0.00     0.000 C 
HETATM   19  C13 UNL     1      21.607  -0.874  54.802  1.00  0.00     0.000 C 
HETATM   20  C14 UNL     1      20.770   0.277  54.403  1.00  0.00     0.000 C 
HETATM   21  C15 UNL     1      20.917   0.457  52.904  1.00  0.00     0.005 C 
ENDBRANCH  15  16
ENDBRANCH  14  15
ENDBRANCH   1  12
TORSDOF 6
ENDMDL
MODEL 3
REMARK VINA RESULT:      -7.3      1.830      2.406
REMARK  6 active torsions:
REMARK  status: ('A' for Active; 'I' for Inactive)
REMARK    1  A    between atoms: N2_2  and  N3_3 
REMARK    2  A    between atoms: C4_8  and  C5_9 
REMARK    3  A    between atoms: C5_9  and  C6_10 
REMARK    4  A    between atoms: C6_10  and  N5_11 
REMARK    5  A    between atoms: C8_13  and  C9_14 
REMARK    6  A    between atoms: C9_14  and  C10_15 
ROOT
HETATM    1  C6  UNL     1      22.845   0.927  52.961  1.00  0.00     0.134 C 
ENDROOT
BRANCH   1   2
HETATM    2  C5  UNL     1      23.706  -0.173  53.370  1.00  0.00     0.026 C 
BRANCH   2   3
HETATM    3  C4  UNL     1      24.903   0.178  53.405  1.00  0.00     0.018 A 
HETATM    4  N3  UNL     1      25.774  -0.410  54.642  1.00  0.00     0.000 N 
HETATM    5  N4  UNL     1      27.180  -0.234  55.071  1.00  0.00    -0.221 NA
HETATM    6  C2  UNL     1      26.947   0.429  54.034  1.00  0.00     0.100 A 
HETATM    7  C3  UNL     1      26.025   0.321  53.740  1.00  0.00    -0.035 A 
HETATM    8  C1  UNL     1      28.066   0.544  54.409  1.00  0.00     0.129 A 
BRANCH   4   9
HETATM    9  N2  UNL     1      24.852  -1.341  55.512  1.00  0.00    -0.032 NA
HETATM   10  N1  UNL     1      25.143  -1.325  56.732  1.00  0.00    -0.182 NA
HETATM   11  H1  UNL     1      24.572  -1.922  57.378  1.00  0.00     0.214 HD
ENDBRANCH   4   9
ENDBRANCH   2   3
ENDBRANCH   1   2
BRANCH   1  12
HETATM   12  N5  UNL     1      23.377   1.678  51.823  1.00  0.00    -0.357 N 
HETATM   13  C7  UNL     1      23.032   1.991  50.487  1.00  0.00     0.116 A 
HETATM   14  C8  UNL     1      24.199   2.477  50.974  1.00  0.00     0.027 A 
BRANCH  14  15
HETATM   15  C9  UNL     1      25.499   3.201  51.037  1.00  0.00     0.063 C 
BRANCH  15  16
HETATM   16  C10 UNL     1      25.624   4.020  49.753  1.00  0.00    -0.009 C 
HETATM   17  C11 UNL     1      27.005   3.916  49.178  1.00  0.00     0.005 C 
HETATM   18  C12 UNL     1      27.590   5.130  48.586  1.00  0.00     0.000 C 
HETATM   19  C13 UNL     1      26.731   6.347  48.480  1.00  0.00     0.000 C 
HETATM   20  C14 UNL     1      25.289   6.183  48.763  1.00  0.00     0.000 C 
HETATM   21  C15 UNL     1      25.159   5.410  50.061  1.00  0.00     0.005 C 
ENDBRANCH  15  16
ENDBRANCH  14  15
ENDBRANCH   1  12
TORSDOF 6
ENDMDL
MODEL 4
REMARK VINA RESULT:      -7.1      1.999      4.574
REMARK  6 active torsions:
REMARK  status: ('A' for Active; 'I' for Inactive)
REMARK    1  A    between atoms: N2_2  and  N3_3 
REMARK    2  A    between atoms: C4_8  and  C5_9 
REMARK    3  A    between atoms: C5_9  and  C6_10 
REMARK    4  A    between atoms: C6_10  and  N5_11 
REMARK    5  A    between atoms: C8_13  and  C9_14 
REMARK    6  A    between atoms: C9_14  and  C10_15 
ROOT
HETATM    1  C6  UNL     1      24.893   0.460  53.365  1.00  0.00     0.134 C 
ENDROOT
BRANCH   1   2
HETATM    2  C5  UNL     1      25.906  -0.277  52.625  1.00  0.00     0.026 C 
BRANCH   2   3
HETATM    3  C4  UNL     1      27.055   0.111  52.921  1.00  0.00     0.018 A 
HETATM    4  N3  UNL     1      28.153  -1.059  53.166  1.00  0.00     0.000 N 
HETATM    5  N4  UNL     1      29.582  -1.048  53.551  1.00  0.00    -0.221 NA
HETATM    6  C2  UNL     1      29.134   0.119  53.480  1.00  0.00     0.100 A 
HETATM    7  C3  UNL     1      28.194   0.127  53.226  1.00  0.00    -0.035 A 
HETATM    8  C1  UNL     1      30.279   0.086  53.785  1.00  0.00     0.129 A 
BRANCH   4   9
HETATM    9  N2  UNL     1      27.466  -2.454  52.931  1.00  0.00    -0.032 NA
HETATM   10  N1  UNL     1      28.282  -3.406  52.892  1.00  0.00    -0.182 NA
HETATM   11  H1  UNL     1      27.899  -4.371  52.737  1.00  0.00     0.214 HD
ENDBRANCH   4   9
ENDBRANCH   2   3
ENDBRANCH   1   2
BRANCH   1  12
HETATM   12  N5  UNL     1      24.001   1.233  52.501  1.00  0.00    -0.357 N 
HETATM   13  C7  UNL     1      24.060   2.029  51.332  1.00  0.00     0.116 A 
HETATM   14  C8  UNL     1      22.856   1.864  51.929  1.00  0.00     0.027 A 
BRANCH  14  15
HETATM   15  C9  UNL     1      21.395   1.982  52.197  1.00  0.00     0.063 C 
BRANCH  15  16
HETATM   16  C10 UNL     1      20.837   0.563  52.293  1.00  0.00    -0.009 C 
HETATM   17  C11 UNL     1      19.541   0.440  51.549  1.00  0.00     0.005 C 
HETATM   18  C12 UNL     1      18.486  -0.391  52.150  1.00  0.00     0.000 C 
HETATM   19  C13 UNL     1      18.812  -1.158  53.389  1.00  0.00     0.000 C 
HETATM   20  C14 UNL     1      20.232  -1.212  53.797  1.00  0.00     0.000 C 
HETATM   21  C15 UNL     1      20.780   0.201  53.746  1.00  0.00     0.005 C 
ENDBRANCH  15  16
ENDBRANCH  14  15
ENDBRANCH   1  12
TORSDOF 6
ENDMDL
MODEL 5
REMARK VINA RESULT:      -7.1      3.482      6.648
REMARK  6 active torsions:
REMARK  status: ('A' for Active; 'I' for Inactive)
REMARK    1  A    between atoms: N2_2  and  N3_3 
REMARK    2  A    between atoms: C4_8  and  C5_9 
REMARK    3  A    between atoms: C5_9  and  C6_10 
REMARK    4  A    between atoms: C6_10  and  N5_11 
REMARK    5  A    between atoms: C8_13  and  C9_14 
REMARK    6  A    between atoms: C9_14  and  C10_15 
ROOT
HETATM    1  C6  UNL     1      24.493   2.727  50.322  1.00  0.00     0.134 C 
ENDROOT
BRANCH   1   2
HETATM    2  C5  UNL     1      24.948   4.105  50.222  1.00  0.00     0.026 C 
BRANCH   2   3
HETATM    3  C4  UNL     1      26.036   4.180  49.614  1.00  0.00     0.018 A 
HETATM    4  N3  UNL     1      26.584   5.681  49.333  1.00  0.00     0.000 N 
HETATM    5  N4  UNL     1      27.780   6.215  48.641  1.00  0.00    -0.221 NA
HETATM    6  C2  UNL     1      27.773   4.963  48.611  1.00  0.00     0.100 A 
HETATM    7  C3  UNL     1      26.991   4.598  49.063  1.00  0.00    -0.035 A 
HETATM    8  C1  UNL     1      28.717   5.428  48.067  1.00  0.00     0.129 A 
BRANCH   4   9
HETATM    9  N2  UNL     1      25.572   6.713  49.952  1.00  0.00    -0.032 NA
HETATM   10  N1  UNL     1      26.114   7.526  50.740  1.00  0.00    -0.182 NA
HETATM   11  H1  UNL     1      25.502   8.247  51.195  1.00  0.00     0.214 HD
ENDBRANCH   4   9
ENDBRANCH   2   3
ENDBRANCH   1   2
BRANCH   1  12
HETATM   12  N5  UNL     1      24.551   2.202  51.687  1.00  0.00    -0.357 N 
HETATM   13  C7  UNL     1      24.794   2.658  53.004  1.00  0.00     0.116 A 
HETATM   14  C8  UNL     1      24.526   1.343  52.825  1.00  0.00     0.027 A 
BRANCH  14  15
HETATM   15  C9  UNL     1      24.294  -0.096  53.134  1.00  0.00     0.063 C 
BRANCH  15  16
HETATM   16  C10 UNL     1      25.631  -0.683  53.585  1.00  0.00    -0.009 C 
HETATM   17  C11 UNL     1      26.168   0.049  54.779  1.00  0.00     0.005 C 
HETATM   18  C12 UNL     1      27.619   0.285  54.837  1.00  0.00     0.000 C 
HETATM   19  C13 UNL     1      28.476  -0.325  53.777  1.00  0.00     0.000 C 
HETATM   20  C14 UNL     1      27.840  -1.310  52.877  1.00  0.00     0.000 C 
HETATM   21  C15 UNL     1      26.534  -0.713  52.390  1.00  0.00     0.005 C 
ENDBRANCH  15  16
ENDBRANCH  14  15
ENDBRANCH   1  12
TORSDOF 6
ENDMDL
MODEL 6
REMARK VINA RESULT:      -7.0      1.584      2.214
REMARK  6 active torsions:
REMARK  status: ('A' for Active; 'I' for Inactive)
REMARK    1  A    between atoms: N2_2  and  N3_3 
REMARK    2  A    between atoms: C4_8  and  C5_9 
REMARK    3  A    between atoms: C5_9  and  C6_10 
REMARK    4  A    between atoms: C6_10  and  N5_11 
REMARK    5  A    between atoms: C8_13  and  C9_14 
REMARK    6  A    between atoms: C9_14  and  C10_15 
ROOT
HETATM    1  C6  UNL     1      24.764   0.348  53.136  1.00  0.00     0.134 C 
ENDROOT
BRANCH   1   2
HETATM    2  C5  UNL     1      25.840   0.518  54.100  1.00  0.00     0.026 C 
BRANCH   2   3
HETATM    3  C4  UNL     1      26.798  -0.242  53.849  1.00  0.00     0.018 A 
HETATM    4  N3  UNL     1      28.274   0.428  53.945  1.00  0.00     0.000 N 
HETATM    5  N4  UNL     1      29.641  -0.086  53.708  1.00  0.00    -0.221 NA
HETATM    6  C2  UNL     1      28.791  -0.983  53.507  1.00  0.00     0.100 A 
HETATM    7  C3  UNL     1      27.885  -0.658  53.661  1.00  0.00    -0.035 A 
HETATM    8  C1  UNL     1      29.901  -1.357  53.328  1.00  0.00     0.129 A 
BRANCH   4   9
HETATM    9  N2  UNL     1      28.119   1.932  54.378  1.00  0.00    -0.032 NA
HETATM   10  N1  UNL     1      29.043   2.666  53.954  1.00  0.00    -0.182 NA
HETATM   11  H1  UNL     1      29.010   3.685  54.202  1.00  0.00     0.214 HD
ENDBRANCH   4   9
ENDBRANCH   2   3
ENDBRANCH   1   2
BRANCH   1  12
HETATM   12  N5  UNL     1      24.387   1.596  52.471  1.00  0.00    -0.357 N 
HETATM   13  C7  UNL     1      24.379   2.988  52.724  1.00  0.00     0.116 A 
HETATM   14  C8  UNL     1      23.909   2.555  51.530  1.00  0.00     0.027 A 
BRANCH  14  15
HETATM   15  C9  UNL     1      23.324   2.581  50.160  1.00  0.00     0.063 C 
BRANCH  15  16
HETATM   16  C10 UNL     1      24.222   3.471  49.302  1.00  0.00    -0.009 C 
HETATM   17  C11 UNL     1      25.663   3.081  49.442  1.00  0.00     0.005 C 
HETATM   18  C12 UNL     1      26.661   4.162  49.478  1.00  0.00     0.000 C 
HETATM   19  C13 UNL     1      26.195   5.561  49.245  1.00  0.00     0.000 C 
HETATM   20  C14 UNL     1      24.806   5.740  48.769  1.00  0.00     0.000 C 
HETATM   21  C15 UNL     1      23.905   4.893  49.647  1.00  0.00     0.005 C 
ENDBRANCH  15  16
ENDBRANCH  14  15
ENDBRANCH   1  12
TORSDOF 6
ENDMDL
MODEL 7
REMARK VINA RESULT:      -7.0      3.841      5.986
REMARK  6 active torsions:
REMARK  status: ('A' for Active; 'I' for Inactive)
REMARK    1  A    between atoms: N2_2  and  N3_3 
REMARK    2  A    between atoms: C4_8  and  C5_9 
REMARK    3  A    between atoms: C5_9  and  C6_10 
REMARK    4  A    between atoms: C6_10  and  N5_11 
REMARK    5  A    between atoms: C8_13  and  C9_14 
REMARK    6  A    between atoms: C9_14  and  C10_15 
ROOT
HETATM    1  C6  UNL     1      21.096   2.699  52.309  1.00  0.00     0.134 C 
ENDROOT
BRANCH   1   2
HETATM    2  C5  UNL     1      20.529   1.428  52.732  1.00  0.00     0.026 C 
BRANCH   2   3
HETATM    3  C4  UNL     1      21.348   0.769  53.406  1.00  0.00     0.018 A 
HETATM    4  N3  UNL     1      20.802  -0.642  53.995  1.00  0.00     0.000 N 
HETATM    5  N4  UNL     1      21.409  -1.693  54.843  1.00  0.00    -0.221 NA
HETATM    6  C2  UNL     1      22.224  -0.765  54.637  1.00  0.00     0.100 A 
HETATM    7  C3  UNL     1      21.838  -0.066  54.080  1.00  0.00    -0.035 A 
HETATM    8  C1  UNL     1      22.675  -1.628  55.313  1.00  0.00     0.129 A 
BRANCH   4   9
HETATM    9  N2  UNL     1      19.316  -0.845  53.524  1.00  0.00    -0.032 NA
HETATM   10  N1  UNL     1      18.807  -1.914  53.941  1.00  0.00    -0.182 NA
HETATM   11  H1  UNL     1      17.815  -2.121  53.667  1.00  0.00     0.214 HD
ENDBRANCH   4   9
ENDBRANCH   2   3
ENDBRANCH   1   2
BRANCH   1  12
HETATM   12  N5  UNL     1      22.494   2.593  51.892  1.00  0.00    -0.357 N 
HETATM   13  C7  UNL     1      23.253   2.433  50.708  1.00  0.00     0.116 A 
HETATM   14  C8  UNL     1      23.919   2.520  51.884  1.00  0.00     0.027 A 
BRANCH  14  15
HETATM   15  C9  UNL     1      25.045   2.561  52.859  1.00  0.00     0.063 C 
BRANCH  15  16
HETATM   16  C10 UNL     1      25.500   1.120  53.085  1.00  0.00    -0.009 C 
HETATM   17  C11 UNL     1      26.155   0.964  54.425  1.00  0.00     0.005 C 
HETATM   18  C12 UNL     1      27.329   0.081  54.511  1.00  0.00     0.000 C 
HETATM   19  C13 UNL     1      27.716  -0.700  53.298  1.00  0.00     0.000 C 
HETATM   20  C14 UNL     1      26.762  -0.707  52.168  1.00  0.00     0.000 C 
HETATM   21  C15 UNL     1      26.341   0.726  51.909  1.00  0.00     0.005 C 
ENDBRANCH  15  16
ENDBRANCH  14  15
ENDBRANCH   1  12
TORSDOF 6
ENDMDL
MODEL 8
REMARK VINA RESULT:      -6.9      2.044      3.035
REMARK  6 active torsions:
REMARK  status: ('A' for Active; 'I' for Inactive)
REMARK    1  A    between atoms: N2_2  and  N3_3 
REMARK    2  A    between atoms: C4_8  and  C5_9 
REMARK    3  A    between atoms: C5_9  and  C6_10 
REMARK    4  A    between atoms: C6_10  and  N5_11 
REMARK    5  A    between atoms: C8_13  and  C9_14 
REMARK    6  A    between atoms: C9_14  and  C10_15 
ROOT
HETATM    1  C6  UNL     1      24.070  -0.850  53.496  1.00  0.00     0.134 C 
ENDROOT
BRANCH   1   2
HETATM    2  C5  UNL     1      25.136   0.111  53.259  1.00  0.00     0.026 C 
BRANCH   2   3
HETATM    3  C4  UNL     1      26.249  -0.451  53.198  1.00  0.00     0.018 A 
HETATM    4  N3  UNL     1      27.514   0.433  53.699  1.00  0.00     0.000 N 
HETATM    5  N4  UNL     1      28.970   0.176  53.770  1.00  0.00    -0.221 NA
HETATM    6  C2  UNL     1      28.368  -0.818  53.305  1.00  0.00     0.100 A 
HETATM    7  C3  UNL     1      27.407  -0.663  53.253  1.00  0.00    -0.035 A 
HETATM    8  C1  UNL     1      29.539  -0.985  53.378  1.00  0.00     0.129 A 
BRANCH   4   9
HETATM    9  N2  UNL     1      26.990   1.834  54.185  1.00  0.00    -0.032 NA
HETATM   10  N1  UNL     1      27.861   2.736  54.125  1.00  0.00    -0.182 NA
HETATM   11  H1  UNL     1      27.587   3.701  54.433  1.00  0.00     0.214 HD
ENDBRANCH   4   9
ENDBRANCH   2   3
ENDBRANCH   1   2
BRANCH   1  12
HETATM   12  N5  UNL     1      22.734  -0.279  53.327  1.00  0.00    -0.357 N 
HETATM   13  C7  UNL     1      21.622   0.104  54.114  1.00  0.00     0.116 A 
HETATM   14  C8  UNL     1      21.538   0.264  52.772  1.00  0.00     0.027 A 
BRANCH  14  15
HETATM   15  C9  UNL     1      20.986   0.614  51.433  1.00  0.00     0.063 C 
BRANCH  15  16
HETATM   16  C10 UNL     1      21.584   1.962  51.034  1.00  0.00    -0.009 C 
HETATM   17  C11 UNL     1      23.033   1.824  50.671  1.00  0.00     0.005 C 
HETATM   18  C12 UNL     1      23.946   2.898  51.092  1.00  0.00     0.000 C 
HETATM   19  C13 UNL     1      23.359   4.110  51.738  1.00  0.00     0.000 C 
HETATM   20  C14 UNL     1      21.888   4.250  51.702  1.00  0.00     0.000 C 
HETATM   21  C15 UNL     1      21.288   2.928  52.140  1.00  0.00     0.005 C 
ENDBRANCH  15  16
ENDBRANCH  14  15
ENDBRANCH   1  12
TORSDOF 6
ENDMDL
MODEL 9
REMARK VINA RESULT:      -6.9      3.921      7.235
REMARK  6 active torsions:
REMARK  status: ('A' for Active; 'I' for Inactive)
REMARK    1  A    between atoms: N2_2  and  N3_3 
REMARK    2  A    between atoms: C4_8  and  C5_9 
REMARK    3  A    between atoms: C5_9  and  C6_10 
REMARK    4  A    between atoms: C6_10  and  N5_11 
REMARK    5  A    between atoms: C8_13  and  C9_14 
REMARK    6  A    between atoms: C9_14  and  C10_15 
ROOT
HETATM    1  C6  UNL     1      25.366   3.296  50.482  1.00  0.00     0.134 C 
ENDROOT
BRANCH   1   2
HETATM    2  C5  UNL     1      26.290   3.768  49.463  1.00  0.00     0.026 C 
BRANCH   2   3
HETATM    3  C4  UNL     1      26.006   4.927  49.095  1.00  0.00     0.018 A 
HETATM    4  N3  UNL     1      27.238   5.800  48.501  1.00  0.00     0.000 N 
HETATM    5  N4  UNL     1      27.350   7.186  47.991  1.00  0.00    -0.221 NA
HETATM    6  C2  UNL     1      26.176   6.940  48.351  1.00  0.00     0.100 A 
HETATM    7  C3  UNL     1      26.088   6.031  48.688  1.00  0.00    -0.035 A 
HETATM    8  C1  UNL     1      26.306   8.043  47.935  1.00  0.00     0.129 A 
BRANCH   4   9
HETATM    9  N2  UNL     1      28.537   4.915  48.513  1.00  0.00    -0.032 NA
HETATM   10  N1  UNL     1      29.538   5.511  48.981  1.00  0.00    -0.182 NA
HETATM   11  H1  UNL     1      30.444   4.985  49.022  1.00  0.00     0.214 HD
ENDBRANCH   4   9
ENDBRANCH   2   3
ENDBRANCH   1   2
BRANCH   1  12
HETATM   12  N5  UNL     1      26.018   2.502  51.523  1.00  0.00    -0.357 N 
HETATM   13  C7  UNL     1      27.292   2.351  52.120  1.00  0.00     0.116 A 
HETATM   14  C8  UNL     1      26.283   1.564  52.565  1.00  0.00     0.027 A 
BRANCH  14  15
HETATM   15  C9  UNL     1      25.552   0.533  53.353  1.00  0.00     0.063 C 
BRANCH  15  16
HETATM   16  C10 UNL     1      26.562  -0.550  53.730  1.00  0.00    -0.009 C 
HETATM   17  C11 UNL     1      27.722   0.031  54.482  1.00  0.00     0.005 C 
HETATM   18  C12 UNL     1      29.060  -0.508  54.193  1.00  0.00     0.000 C 
HETATM   19  C13 UNL     1      29.166  -1.678  53.271  1.00  0.00     0.000 C 
HETATM   20  C14 UNL     1      27.908  -2.356  52.893  1.00  0.00     0.000 C 
HETATM   21  C15 UNL     1      26.915  -1.289  52.475  1.00  0.00     0.005 C 
ENDBRANCH  15  16
ENDBRANCH  14  15
ENDBRANCH   1  12
TORSDOF 6
ENDMDL
