MODEL 1
REMARK VINA RESULT:      -8.3      0.000      0.000
REMARK  5 active torsions:
REMARK  status: ('A' for Active; 'I' for Inactive)
REMARK    1  A    between atoms: O1_2  and  C2_3 
REMARK    2  A    between atoms: C2_3  and  C3_4 
REMARK    3  A    between atoms: C3_4  and  C4_6 
REMARK    4  A    between atoms: C4_6  and  C5_7 
REMARK    5  A    between atoms: C6_8  and  C7_9 
ROOT
HETATM    1  C5  UNL     1      24.461   0.290  52.790  1.00  0.00    -0.000 A 
HETATM    2  C6  UNL     1      23.169   0.398  53.256  1.00  0.00     0.083 A 
HETATM    3  O3  UNL     1      22.600   1.481  52.818  1.00  0.00    -0.305 OA
HETATM    4  C9  UNL     1      23.435   2.169  52.044  1.00  0.00     0.141 A 
HETATM    5  C10 UNL     1      24.626   1.428  52.013  1.00  0.00     0.062 A 
HETATM    6  C11 UNL     1      25.783   1.892  51.247  1.00  0.00     0.196 A 
HETATM    7  O4  UNL     1      26.874   1.267  51.185  1.00  0.00    -0.286 OA
HETATM    8  C12 UNL     1      25.665   3.149  50.514  1.00  0.00     0.029 A 
HETATM    9  C13 UNL     1      26.763   3.585  49.789  1.00  0.00     0.016 A 
HETATM   10  C14 UNL     1      26.720   4.761  49.077  1.00  0.00     0.001 A 
HETATM   11  C15 UNL     1      25.561   5.508  49.091  1.00  0.00     0.001 A 
HETATM   12  C16 UNL     1      24.463   5.063  49.821  1.00  0.00     0.016 A 
HETATM   13  C17 UNL     1      24.502   3.886  50.536  1.00  0.00     0.031 A 
HETATM   14  C18 UNL     1      23.361   3.409  51.305  1.00  0.00     0.217 A 
HETATM   15  O5  UNL     1      22.294   4.070  51.335  1.00  0.00    -0.284 OA
ENDROOT
BRANCH   1  16
HETATM   16  C4  UNL     1      25.473  -0.742  53.032  1.00  0.00     0.123 C 
BRANCH  16  17
HETATM   17  C3  UNL     1      26.363  -0.274  54.120  1.00  0.00     0.154 C 
HETATM   18  O2  UNL     1      25.772  -1.185  54.719  1.00  0.00    -0.295 OA
BRANCH  17  19
HETATM   19  C2  UNL     1      27.397   0.556  54.755  1.00  0.00     0.245 C 
BRANCH  19  20
HETATM   20  O1  UNL     1      28.541  -0.168  55.082  1.00  0.00    -0.389 OA
HETATM   21  C1  UNL     1      29.221  -0.587  53.942  1.00  0.00     0.202 C 
ENDBRANCH  19  20
ENDBRANCH  17  19
ENDBRANCH  16  17
ENDBRANCH   1  16
BRANCH   2  22
HETATM   22  C7  UNL     1      22.508  -0.566  54.124  1.00  0.00     0.049 C 
HETATM   23  C8  UNL     1      21.428  -0.396  54.858  1.00  0.00     0.444 C 
HETATM   24  F1  UNL     1      20.557   0.610  55.112  1.00  0.00    -0.452 F 
ENDBRANCH   2  22
TORSDOF 5
ENDMDL
MODEL 2
REMARK VINA RESULT:      -8.2      2.841      5.362
REMARK  5 active torsions:
REMARK  status: ('A' for Active; 'I' for Inactive)
REMARK    1  A    between atoms: O1_2  and  C2_3 
REMARK    2  A    between atoms: C2_3  and  C3_4 
REMARK    3  A    between atoms: C3_4  and  C4_6 
REMARK    4  A    between atoms: C4_6  and  C5_7 
REMARK    5  A    between atoms: C6_8  and  C7_9 
ROOT
HETATM    1  C5  UNL     1      24.065   1.287  52.637  1.00  0.00    -0.000 A 
HETATM    2  C6  UNL     1      24.095   2.633  52.926  1.00  0.00     0.083 A 
HETATM    3  O3  UNL     1      25.276   3.006  53.317  1.00  0.00    -0.305 OA
HETATM    4  C9  UNL     1      26.114   1.972  53.324  1.00  0.00     0.141 A 
HETATM    5  C10 UNL     1      25.362   0.868  52.894  1.00  0.00     0.062 A 
HETATM    6  C11 UNL     1      25.970  -0.459  52.778  1.00  0.00     0.196 A 
HETATM    7  O4  UNL     1      25.342  -1.482  52.398  1.00  0.00    -0.286 OA
HETATM    8  C12 UNL     1      27.382  -0.603  53.122  1.00  0.00     0.029 A 
HETATM    9  C13 UNL     1      27.952  -1.861  53.012  1.00  0.00     0.016 A 
HETATM   10  C14 UNL     1      29.276  -2.067  53.321  1.00  0.00     0.001 A 
HETATM   11  C15 UNL     1      30.038  -0.998  53.746  1.00  0.00     0.001 A 
HETATM   12  C16 UNL     1      29.456   0.262  53.854  1.00  0.00     0.016 A 
HETATM   13  C17 UNL     1      28.130   0.473  53.546  1.00  0.00     0.031 A 
HETATM   14  C18 UNL     1      27.509   1.785  53.655  1.00  0.00     0.217 A 
HETATM   15  O5  UNL     1      28.178   2.775  54.040  1.00  0.00    -0.284 OA
ENDROOT
BRANCH   1  16
HETATM   16  C4  UNL     1      22.959   0.439  52.183  1.00  0.00     0.123 C 
BRANCH  16  17
HETATM   17  C3  UNL     1      22.229  -0.051  53.375  1.00  0.00     0.154 C 
HETATM   18  O2  UNL     1      21.658  -0.716  52.498  1.00  0.00    -0.295 OA
BRANCH  17  19
HETATM   19  C2  UNL     1      21.884  -0.149  54.800  1.00  0.00     0.245 C 
BRANCH  19  20
HETATM   20  O1  UNL     1      22.233  -1.378  55.355  1.00  0.00    -0.389 OA
HETATM   21  C1  UNL     1      23.603  -1.463  55.583  1.00  0.00     0.202 C 
ENDBRANCH  19  20
ENDBRANCH  17  19
ENDBRANCH  16  17
ENDBRANCH   1  16
BRANCH   2  22
HETATM   22  C7  UNL     1      22.961   3.540  52.810  1.00  0.00     0.049 C 
HETATM   23  C8  UNL     1      22.968   4.816  52.486  1.00  0.00     0.444 C 
HETATM   24  F1  UNL     1      23.897   5.746  52.158  1.00  0.00    -0.452 F 
ENDBRANCH   2  22
TORSDOF 5
ENDMDL
MODEL 3
REMARK VINA RESULT:      -8.2      2.795      5.406
REMARK  5 active torsions:
REMARK  status: ('A' for Active; 'I' for Inactive)
REMARK    1  A    between atoms: O1_2  and  C2_3 
REMARK    2  A    between atoms: C2_3  and  C3_4 
REMARK    3  A    between atoms: C3_4  and  C4_6 
REMARK    4  A    between atoms: C4_6  and  C5_7 
REMARK    5  A    between atoms: C6_8  and  C7_9 
ROOT
HETATM    1  C5  UNL     1      24.421   0.909  52.778  1.00  0.00    -0.000 A 
HETATM    2  C6  UNL     1      24.782   1.663  51.683  1.00  0.00     0.083 A 
HETATM    3  O3  UNL     1      23.775   1.845  50.882  1.00  0.00    -0.305 OA
HETATM    4  C9  UNL     1      22.686   1.247  51.358  1.00  0.00     0.141 A 
HETATM    5  C10 UNL     1      23.075   0.646  52.564  1.00  0.00     0.062 A 
HETATM    6  C11 UNL     1      22.119  -0.111  53.373  1.00  0.00     0.196 A 
HETATM    7  O4  UNL     1      22.415  -0.670  54.461  1.00  0.00    -0.286 OA
HETATM    8  C12 UNL     1      20.745  -0.223  52.890  1.00  0.00     0.029 A 
HETATM    9  C13 UNL     1      19.842  -0.941  53.659  1.00  0.00     0.016 A 
HETATM   10  C14 UNL     1      18.534  -1.087  53.262  1.00  0.00     0.001 A 
HETATM   11  C15 UNL     1      18.125  -0.504  52.080  1.00  0.00     0.001 A 
HETATM   12  C16 UNL     1      19.038   0.214  51.315  1.00  0.00     0.016 A 
HETATM   13  C17 UNL     1      20.350   0.363  51.708  1.00  0.00     0.031 A 
HETATM   14  C18 UNL     1      21.316   1.112  50.916  1.00  0.00     0.217 A 
HETATM   15  O5  UNL     1      20.971   1.651  49.837  1.00  0.00    -0.284 OA
ENDROOT
BRANCH   1  16
HETATM   16  C4  UNL     1      25.219   0.448  53.916  1.00  0.00     0.123 C 
BRANCH  16  17
HETATM   17  C3  UNL     1      25.960  -0.767  53.503  1.00  0.00     0.154 C 
HETATM   18  O2  UNL     1      25.641  -1.104  54.653  1.00  0.00    -0.295 OA
BRANCH  17  19
HETATM   19  C2  UNL     1      26.739  -1.633  52.607  1.00  0.00     0.245 C 
BRANCH  19  20
HETATM   20  O1  UNL     1      27.893  -2.129  53.208  1.00  0.00    -0.389 OA
HETATM   21  C1  UNL     1      28.870  -1.144  53.325  1.00  0.00     0.202 C 
ENDBRANCH  19  20
ENDBRANCH  17  19
ENDBRANCH  16  17
ENDBRANCH   1  16
BRANCH   2  22
HETATM   22  C7  UNL     1      26.114   2.199  51.438  1.00  0.00     0.049 C 
HETATM   23  C8  UNL     1      26.547   2.854  50.381  1.00  0.00     0.444 C 
HETATM   24  F1  UNL     1      26.032   3.272  49.200  1.00  0.00    -0.452 F 
ENDBRANCH   2  22
TORSDOF 5
ENDMDL
MODEL 4
REMARK VINA RESULT:      -8.1      2.197      5.403
REMARK  5 active torsions:
REMARK  status: ('A' for Active; 'I' for Inactive)
REMARK    1  A    between atoms: O1_2  and  C2_3 
REMARK    2  A    between atoms: C2_3  and  C3_4 
REMARK    3  A    between atoms: C3_4  and  C4_6 
REMARK    4  A    between atoms: C4_6  and  C5_7 
REMARK    5  A    between atoms: C6_8  and  C7_9 
ROOT
HETATM    1  C5  UNL     1      23.174   1.233  51.780  1.00  0.00    -0.000 A 
HETATM    2  C6  UNL     1      22.387   0.257  52.352  1.00  0.00     0.083 A 
HETATM    3  O3  UNL     1      23.037  -0.395  53.269  1.00  0.00    -0.305 OA
HETATM    4  C9  UNL     1      24.277   0.074  53.387  1.00  0.00     0.141 A 
HETATM    5  C10 UNL     1      24.384   1.111  52.448  1.00  0.00     0.062 A 
HETATM    6  C11 UNL     1      25.629   1.865  52.296  1.00  0.00     0.196 A 
HETATM    7  O4  UNL     1      25.780   2.803  51.470  1.00  0.00    -0.286 OA
HETATM    8  C12 UNL     1      26.759   1.508  53.150  1.00  0.00     0.029 A 
HETATM    9  C13 UNL     1      27.936   2.225  53.003  1.00  0.00     0.016 A 
HETATM   10  C14 UNL     1      29.039   1.940  53.774  1.00  0.00     0.001 A 
HETATM   11  C15 UNL     1      28.959   0.926  54.706  1.00  0.00     0.001 A 
HETATM   12  C16 UNL     1      27.774   0.212  54.846  1.00  0.00     0.016 A 
HETATM   13  C17 UNL     1      26.667   0.493  54.076  1.00  0.00     0.031 A 
HETATM   14  C18 UNL     1      25.419  -0.247  54.212  1.00  0.00     0.217 A 
HETATM   15  O5  UNL     1      25.320  -1.175  55.051  1.00  0.00    -0.284 OA
ENDROOT
BRANCH   1  16
HETATM   16  C4  UNL     1      22.871   2.188  50.711  1.00  0.00     0.123 C 
BRANCH  16  17
HETATM   17  C3  UNL     1      22.212   3.369  51.314  1.00  0.00     0.154 C 
HETATM   18  O2  UNL     1      22.786   3.921  50.365  1.00  0.00    -0.295 OA
BRANCH  17  19
HETATM   19  C2  UNL     1      21.381   4.105  52.278  1.00  0.00     0.245 C 
BRANCH  19  20
HETATM   20  O1  UNL     1      20.226   3.410  52.632  1.00  0.00    -0.389 OA
HETATM   21  C1  UNL     1      19.319   3.359  51.577  1.00  0.00     0.202 C 
ENDBRANCH  19  20
ENDBRANCH  17  19
ENDBRANCH  16  17
ENDBRANCH   1  16
BRANCH   2  22
HETATM   22  C7  UNL     1      21.004  -0.021  51.992  1.00  0.00     0.049 C 
HETATM   23  C8  UNL     1      19.964  -0.146  52.790  1.00  0.00     0.444 C 
HETATM   24  F1  UNL     1      19.729  -0.085  54.123  1.00  0.00    -0.452 F 
ENDBRANCH   2  22
TORSDOF 5
ENDMDL
MODEL 5
REMARK VINA RESULT:      -7.9      2.876      6.575
REMARK  5 active torsions:
REMARK  status: ('A' for Active; 'I' for Inactive)
REMARK    1  A    between atoms: O1_2  and  C2_3 
REMARK    2  A    between atoms: C2_3  and  C3_4 
REMARK    3  A    between atoms: C3_4  and  C4_6 
REMARK    4  A    between atoms: C4_6  and  C5_7 
REMARK    5  A    between atoms: C6_8  and  C7_9 
ROOT
HETATM    1  C5  UNL     1      23.749   1.068  52.272  1.00  0.00    -0.000 A 
HETATM    2  C6  UNL     1      24.516   0.463  53.244  1.00  0.00     0.083 A 
HETATM    3  O3  UNL     1      23.803  -0.341  53.975  1.00  0.00    -0.305 OA
HETATM    4  C9  UNL     1      22.536  -0.344  53.566  1.00  0.00     0.141 A 
HETATM    5  C10 UNL     1      22.481   0.546  52.483  1.00  0.00     0.062 A 
HETATM    6  C11 UNL     1      21.224   0.796  51.776  1.00  0.00     0.196 A 
HETATM    7  O4  UNL     1      21.118   1.584  50.800  1.00  0.00    -0.286 OA
HETATM    8  C12 UNL     1      20.027   0.092  52.229  1.00  0.00     0.029 A 
HETATM    9  C13 UNL     1      18.839   0.333  51.557  1.00  0.00     0.016 A 
HETATM   10  C14 UNL     1      17.674  -0.295  51.931  1.00  0.00     0.001 A 
HETATM   11  C15 UNL     1      17.702  -1.176  52.993  1.00  0.00     0.001 A 
HETATM   12  C16 UNL     1      18.899  -1.411  53.662  1.00  0.00     0.016 A 
HETATM   13  C17 UNL     1      20.068  -0.784  53.291  1.00  0.00     0.031 A 
HETATM   14  C18 UNL     1      21.327  -1.020  53.982  1.00  0.00     0.217 A 
HETATM   15  O5  UNL     1      21.380  -1.815  54.952  1.00  0.00    -0.284 OA
ENDROOT
BRANCH   1  16
HETATM   16  C4  UNL     1      24.119   2.046  51.246  1.00  0.00     0.123 C 
BRANCH  16  17
HETATM   17  C3  UNL     1      23.981   3.403  51.825  1.00  0.00     0.154 C 
HETATM   18  O2  UNL     1      25.053   3.548  51.219  1.00  0.00    -0.295 OA
BRANCH  17  19
HETATM   19  C2  UNL     1      23.354   4.480  52.605  1.00  0.00     0.245 C 
BRANCH  19  20
HETATM   20  O1  UNL     1      21.985   4.583  52.373  1.00  0.00    -0.389 OA
HETATM   21  C1  UNL     1      21.719   5.278  51.197  1.00  0.00     0.202 C 
ENDBRANCH  19  20
ENDBRANCH  17  19
ENDBRANCH  16  17
ENDBRANCH   1  16
BRANCH   2  22
HETATM   22  C7  UNL     1      25.942   0.680  53.442  1.00  0.00     0.049 C 
HETATM   23  C8  UNL     1      26.949   0.066  52.856  1.00  0.00     0.444 C 
HETATM   24  F1  UNL     1      27.105  -0.914  51.934  1.00  0.00    -0.452 F 
ENDBRANCH   2  22
TORSDOF 5
ENDMDL
MODEL 6
REMARK VINA RESULT:      -7.8      2.653      6.717
REMARK  5 active torsions:
REMARK  status: ('A' for Active; 'I' for Inactive)
REMARK    1  A    between atoms: O1_2  and  C2_3 
REMARK    2  A    between atoms: C2_3  and  C3_4 
REMARK    3  A    between atoms: C3_4  and  C4_6 
REMARK    4  A    between atoms: C4_6  and  C5_7 
REMARK    5  A    between atoms: C6_8  and  C7_9 
ROOT
HETATM    1  C5  UNL     1      25.160   3.235  49.911  1.00  0.00    -0.000 A 
HETATM    2  C6  UNL     1      26.473   3.648  49.864  1.00  0.00     0.083 A 
HETATM    3  O3  UNL     1      27.179   3.083  50.797  1.00  0.00    -0.305 OA
HETATM    4  C9  UNL     1      26.422   2.268  51.528  1.00  0.00     0.141 A 
HETATM    5  C10 UNL     1      25.133   2.350  50.980  1.00  0.00     0.062 A 
HETATM    6  C11 UNL     1      24.025   1.575  51.540  1.00  0.00     0.196 A 
HETATM    7  O4  UNL     1      22.851   1.612  51.088  1.00  0.00    -0.286 OA
HETATM    8  C12 UNL     1      24.298   0.713  52.687  1.00  0.00     0.029 A 
HETATM    9  C13 UNL     1      23.246  -0.019  53.214  1.00  0.00     0.016 A 
HETATM   10  C14 UNL     1      23.433  -0.850  54.294  1.00  0.00     0.001 A 
HETATM   11  C15 UNL     1      24.692  -0.949  54.851  1.00  0.00     0.001 A 
HETATM   12  C16 UNL     1      25.742  -0.210  54.315  1.00  0.00     0.016 A 
HETATM   13  C17 UNL     1      25.559   0.623  53.234  1.00  0.00     0.031 A 
HETATM   14  C18 UNL     1      26.649   1.402  52.663  1.00  0.00     0.217 A 
HETATM   15  O5  UNL     1      27.803   1.331  53.150  1.00  0.00    -0.284 OA
ENDROOT
BRANCH   1  16
HETATM   16  C4  UNL     1      24.017   3.614  49.077  1.00  0.00     0.123 C 
BRANCH  16  17
HETATM   17  C3  UNL     1      23.359   4.789  49.694  1.00  0.00     0.154 C 
HETATM   18  O2  UNL     1      22.398   4.326  49.063  1.00  0.00    -0.295 OA
BRANCH  17  19
HETATM   19  C2  UNL     1      23.262   6.003  50.517  1.00  0.00     0.245 C 
BRANCH  19  20
HETATM   20  O1  UNL     1      23.751   5.818  51.808  1.00  0.00    -0.389 OA
HETATM   21  C1  UNL     1      22.951   4.940  52.534  1.00  0.00     0.202 C 
ENDBRANCH  19  20
ENDBRANCH  17  19
ENDBRANCH  16  17
ENDBRANCH   1  16
BRANCH   2  22
HETATM   22  C7  UNL     1      27.021   4.590  48.898  1.00  0.00     0.049 C 
HETATM   23  C8  UNL     1      26.921   5.903  48.895  1.00  0.00     0.444 C 
HETATM   24  F1  UNL     1      26.346   6.852  49.673  1.00  0.00    -0.452 F 
ENDBRANCH   2  22
TORSDOF 5
ENDMDL
MODEL 7
REMARK VINA RESULT:      -7.8      2.384      5.314
REMARK  5 active torsions:
REMARK  status: ('A' for Active; 'I' for Inactive)
REMARK    1  A    between atoms: O1_2  and  C2_3 
REMARK    2  A    between atoms: C2_3  and  C3_4 
REMARK    3  A    between atoms: C3_4  and  C4_6 
REMARK    4  A    between atoms: C4_6  and  C5_7 
REMARK    5  A    between atoms: C6_8  and  C7_9 
ROOT
HETATM    1  C5  UNL     1      25.258   2.163  51.520  1.00  0.00    -0.000 A 
HETATM    2  C6  UNL     1      24.807   3.327  50.939  1.00  0.00     0.083 A 
HETATM    3  O3  UNL     1      23.519   3.448  51.065  1.00  0.00    -0.305 OA
HETATM    4  C9  UNL     1      23.013   2.407  51.722  1.00  0.00     0.141 A 
HETATM    5  C10 UNL     1      24.104   1.577  52.021  1.00  0.00     0.062 A 
HETATM    6  C11 UNL     1      23.919   0.321  52.749  1.00  0.00     0.196 A 
HETATM    7  O4  UNL     1      24.861  -0.460  53.043  1.00  0.00    -0.286 OA
HETATM    8  C12 UNL     1      22.565  -0.045  53.158  1.00  0.00     0.029 A 
HETATM    9  C13 UNL     1      22.394  -1.235  53.847  1.00  0.00     0.016 A 
HETATM   10  C14 UNL     1      21.147  -1.640  54.259  1.00  0.00     0.001 A 
HETATM   11  C15 UNL     1      20.057  -0.842  53.979  1.00  0.00     0.001 A 
HETATM   12  C16 UNL     1      20.238   0.351  53.286  1.00  0.00     0.016 A 
HETATM   13  C17 UNL     1      21.486   0.761  52.870  1.00  0.00     0.031 A 
HETATM   14  C18 UNL     1      21.690   2.007  52.144  1.00  0.00     0.217 A 
HETATM   15  O5  UNL     1      20.717   2.752  51.874  1.00  0.00    -0.284 OA
ENDROOT
BRANCH   1  16
HETATM   16  C4  UNL     1      26.613   1.610  51.607  1.00  0.00     0.123 C 
BRANCH  16  17
HETATM   17  C3  UNL     1      27.183   1.982  52.923  1.00  0.00     0.154 C 
HETATM   18  O2  UNL     1      28.031   2.498  52.181  1.00  0.00    -0.295 OA
BRANCH  17  19
HETATM   19  C2  UNL     1      27.261   2.049  54.389  1.00  0.00     0.245 C 
BRANCH  19  20
HETATM   20  O1  UNL     1      27.276   0.789  54.985  1.00  0.00    -0.389 OA
HETATM   21  C1  UNL     1      28.468   0.118  54.726  1.00  0.00     0.202 C 
ENDBRANCH  19  20
ENDBRANCH  17  19
ENDBRANCH  16  17
ENDBRANCH   1  16
BRANCH   2  22
HETATM   22  C7  UNL     1      25.647   4.309  50.268  1.00  0.00     0.049 C 
HETATM   23  C8  UNL     1      26.592   4.100  49.375  1.00  0.00     0.444 C 
HETATM   24  F1  UNL     1      27.144   3.029  48.755  1.00  0.00    -0.452 F 
ENDBRANCH   2  22
TORSDOF 5
ENDMDL
MODEL 8
REMARK VINA RESULT:      -7.1      2.833      7.084
REMARK  5 active torsions:
REMARK  status: ('A' for Active; 'I' for Inactive)
REMARK    1  A    between atoms: O1_2  and  C2_3 
REMARK    2  A    between atoms: C2_3  and  C3_4 
REMARK    3  A    between atoms: C3_4  and  C4_6 
REMARK    4  A    between atoms: C4_6  and  C5_7 
REMARK    5  A    between atoms: C6_8  and  C7_9 
ROOT
HETATM    1  C5  UNL     1      24.847   3.867  50.079  1.00  0.00    -0.000 A 
HETATM    2  C6  UNL     1      26.180   4.092  49.814  1.00  0.00     0.083 A 
HETATM    3  O3  UNL     1      26.939   3.289  50.498  1.00  0.00    -0.305 OA
HETATM    4  C9  UNL     1      26.201   2.482  51.256  1.00  0.00     0.141 A 
HETATM    5  C10 UNL     1      24.867   2.834  51.004  1.00  0.00     0.062 A 
HETATM    6  C11 UNL     1      23.765   2.143  51.676  1.00  0.00     0.196 A 
HETATM    7  O4  UNL     1      22.551   2.419  51.487  1.00  0.00    -0.286 OA
HETATM    8  C12 UNL     1      24.093   1.076  52.617  1.00  0.00     0.029 A 
HETATM    9  C13 UNL     1      23.047   0.425  53.252  1.00  0.00     0.016 A 
HETATM   10  C14 UNL     1      23.284  -0.589  54.150  1.00  0.00     0.001 A 
HETATM   11  C15 UNL     1      24.588  -0.955  54.415  1.00  0.00     0.001 A 
HETATM   12  C16 UNL     1      25.632  -0.295  53.774  1.00  0.00     0.016 A 
HETATM   13  C17 UNL     1      25.399   0.721  52.874  1.00  0.00     0.031 A 
HETATM   14  C18 UNL     1      26.482   1.419  52.196  1.00  0.00     0.217 A 
HETATM   15  O5  UNL     1      27.677   1.107  52.419  1.00  0.00    -0.284 OA
ENDROOT
BRANCH   1  16
HETATM   16  C4  UNL     1      23.652   4.535  49.558  1.00  0.00     0.123 C 
BRANCH  16  17
HETATM   17  C3  UNL     1      23.081   3.694  48.480  1.00  0.00     0.154 C 
HETATM   18  O2  UNL     1      23.108   4.785  47.893  1.00  0.00    -0.295 OA
BRANCH  17  19
HETATM   19  C2  UNL     1      22.586   2.462  47.849  1.00  0.00     0.245 C 
BRANCH  19  20
HETATM   20  O1  UNL     1      21.232   2.531  47.526  1.00  0.00    -0.389 OA
HETATM   21  C1  UNL     1      20.437   2.525  48.668  1.00  0.00     0.202 C 
ENDBRANCH  19  20
ENDBRANCH  17  19
ENDBRANCH  16  17
ENDBRANCH   1  16
BRANCH   2  22
HETATM   22  C7  UNL     1      26.693   5.092  48.888  1.00  0.00     0.049 C 
HETATM   23  C8  UNL     1      26.679   6.403  49.014  1.00  0.00     0.444 C 
HETATM   24  F1  UNL     1      26.244   7.301  49.929  1.00  0.00    -0.452 F 
ENDBRANCH   2  22
TORSDOF 5
ENDMDL
MODEL 9
REMARK VINA RESULT:      -7.1      2.860      6.267
REMARK  5 active torsions:
REMARK  status: ('A' for Active; 'I' for Inactive)
REMARK    1  A    between atoms: O1_2  and  C2_3 
REMARK    2  A    between atoms: C2_3  and  C3_4 
REMARK    3  A    between atoms: C3_4  and  C4_6 
REMARK    4  A    between atoms: C4_6  and  C5_7 
REMARK    5  A    between atoms: C6_8  and  C7_9 
ROOT
HETATM    1  C5  UNL     1      22.565   4.047  51.822  1.00  0.00    -0.000 A 
HETATM    2  C6  UNL     1      23.172   5.049  51.097  1.00  0.00     0.083 A 
HETATM    3  O3  UNL     1      24.398   4.739  50.801  1.00  0.00    -0.305 OA
HETATM    4  C9  UNL     1      24.708   3.540  51.286  1.00  0.00     0.141 A 
HETATM    5  C10 UNL     1      23.554   3.082  51.940  1.00  0.00     0.062 A 
HETATM    6  C11 UNL     1      23.530   1.777  52.602  1.00  0.00     0.196 A 
HETATM    7  O4  UNL     1      22.523   1.319  53.202  1.00  0.00    -0.286 OA
HETATM    8  C12 UNL     1      24.742   0.963  52.563  1.00  0.00     0.029 A 
HETATM    9  C13 UNL     1      24.715  -0.272  53.192  1.00  0.00     0.016 A 
HETATM   10  C14 UNL     1      25.821  -1.089  53.195  1.00  0.00     0.001 A 
HETATM   11  C15 UNL     1      26.968  -0.663  52.558  1.00  0.00     0.001 A 
HETATM   12  C16 UNL     1      26.987   0.578  51.930  1.00  0.00     0.016 A 
HETATM   13  C17 UNL     1      25.881   1.400  51.925  1.00  0.00     0.031 A 
HETATM   14  C18 UNL     1      25.886   2.702  51.272  1.00  0.00     0.217 A 
HETATM   15  O5  UNL     1      26.917   3.115  50.687  1.00  0.00    -0.284 OA
ENDROOT
BRANCH   1  16
HETATM   16  C4  UNL     1      21.211   3.967  52.378  1.00  0.00     0.123 C 
BRANCH  16  17
HETATM   17  C3  UNL     1      20.326   3.351  51.362  1.00  0.00     0.154 C 
HETATM   18  O2  UNL     1      19.633   3.167  52.373  1.00  0.00    -0.295 OA
BRANCH  17  19
HETATM   19  C2  UNL     1      19.909   2.917  50.021  1.00  0.00     0.245 C 
BRANCH  19  20
HETATM   20  O1  UNL     1      20.967   2.416  49.265  1.00  0.00    -0.389 OA
HETATM   21  C1  UNL     1      21.283   1.112  49.636  1.00  0.00     0.202 C 
ENDBRANCH  19  20
ENDBRANCH  17  19
ENDBRANCH  16  17
ENDBRANCH   1  16
BRANCH   2  22
HETATM   22  C7  UNL     1      22.537   6.299  50.701  1.00  0.00     0.049 C 
HETATM   23  C8  UNL     1      21.692   6.506  49.713  1.00  0.00     0.444 C 
HETATM   24  F1  UNL     1      21.105   5.763  48.744  1.00  0.00    -0.452 F 
ENDBRANCH   2  22
TORSDOF 5
ENDMDL
