MODEL 1
REMARK VINA RESULT:      -8.3      0.000      0.000
REMARK  2 active torsions:
REMARK  status: ('A' for Active; 'I' for Inactive)
REMARK    1  A    between atoms: N1_5  and  C5_6 
REMARK    2  A    between atoms: C12_16  and  N3_17 
ROOT
HETATM    1  C5  UNL     1      25.755   2.510  51.996  1.00  0.00     0.117 C 
HETATM    2  C6  UNL     1      26.372   2.651  50.792  1.00  0.00     0.166 C 
HETATM    3  N2  UNL     1      26.306   3.529  49.642  1.00  0.00    -0.244 NA
HETATM    4  C7  UNL     1      27.230   4.440  49.487  1.00  0.00     0.267 C 
HETATM    5  O1  UNL     1      27.062   5.246  48.330  1.00  0.00    -0.272 OA
HETATM    6  S1  UNL     1      27.340   6.967  48.409  1.00  0.00    -0.000 SA
HETATM    7  C8  UNL     1      26.365   7.700  49.776  1.00  0.00     0.132 C 
HETATM    8  C9  UNL     1      24.943   7.611  49.398  1.00  0.00    -0.014 C 
HETATM    9  C10 UNL     1      23.892   7.020  49.831  1.00  0.00    -0.001 C 
HETATM   10  C11 UNL     1      22.802   6.305  50.416  1.00  0.00     0.024 C 
HETATM   11  C12 UNL     1      22.963   5.543  51.471  1.00  0.00     0.004 C 
HETATM   12  C13 UNL     1      22.546   4.607  52.542  1.00  0.00     0.076 C 
HETATM   13  C14 UNL     1      23.293   3.285  52.236  1.00  0.00     0.127 C 
HETATM   14  N4  UNL     1      24.722   3.417  52.395  1.00  0.00    -0.375 N 
HETATM   15  H20 UNL     1      25.468   4.021  52.781  1.00  0.00     0.161 HD
ENDROOT
BRANCH   1  16
HETATM   16  N1  UNL     1      26.245   1.406  52.784  1.00  0.00    -0.358 N 
HETATM   17  C4  UNL     1      27.254   1.706  53.777  1.00  0.00     0.152 C 
HETATM   18  C3  UNL     1      28.300   0.658  53.765  1.00  0.00    -0.005 C 
HETATM   19  C2  UNL     1      28.117  -0.518  53.212  1.00  0.00    -0.084 C 
HETATM   20  C1  UNL     1      29.237  -1.521  53.249  1.00  0.00     0.043 C 
HETATM   21  C17 UNL     1      26.857  -0.967  52.524  1.00  0.00     0.058 C 
HETATM   22  C15 UNL     1      25.767   0.048  52.612  1.00  0.00     0.086 C 
HETATM   23  C16 UNL     1      24.864  -0.316  53.780  1.00  0.00     0.032 C 
ENDBRANCH   1  16
BRANCH  11  24
HETATM   24  N3  UNL     1      24.329   5.877  51.484  1.00  0.00    -0.402 N 
HETATM   25  H14 UNL     1      24.965   6.293  50.834  1.00  0.00     0.156 HD
HETATM   26  H15 UNL     1      25.004   5.712  52.292  1.00  0.00     0.156 HD
ENDBRANCH  11  24
TORSDOF 2
ENDMDL
MODEL 2
REMARK VINA RESULT:      -7.7      4.372      5.712
REMARK  2 active torsions:
REMARK  status: ('A' for Active; 'I' for Inactive)
REMARK    1  A    between atoms: N1_5  and  C5_6 
REMARK    2  A    between atoms: C12_16  and  N3_17 
ROOT
HETATM    1  C5  UNL     1      24.132   0.592  53.269  1.00  0.00     0.117 C 
HETATM    2  C6  UNL     1      23.148  -0.056  53.949  1.00  0.00     0.166 C 
HETATM    3  N2  UNL     1      21.715   0.051  54.134  1.00  0.00    -0.244 NA
HETATM    4  C7  UNL     1      20.931  -0.786  53.505  1.00  0.00     0.267 C 
HETATM    5  O1  UNL     1      19.549  -0.586  53.756  1.00  0.00    -0.272 OA
HETATM    6  S1  UNL     1      18.393  -0.691  52.453  1.00  0.00    -0.000 SA
HETATM    7  C8  UNL     1      18.900   0.404  51.074  1.00  0.00     0.132 C 
HETATM    8  C9  UNL     1      18.747   1.795  51.539  1.00  0.00    -0.014 C 
HETATM    9  C10 UNL     1      19.512   2.799  51.760  1.00  0.00    -0.001 C 
HETATM   10  C11 UNL     1      20.472   3.837  51.965  1.00  0.00     0.024 C 
HETATM   11  C12 UNL     1      21.752   3.644  51.755  1.00  0.00     0.004 C 
HETATM   12  C13 UNL     1      23.188   4.010  51.713  1.00  0.00     0.076 C 
HETATM   13  C14 UNL     1      23.862   3.125  52.792  1.00  0.00     0.127 C 
HETATM   14  N4  UNL     1      23.826   1.724  52.448  1.00  0.00    -0.375 N 
HETATM   15  H20 UNL     1      23.651   1.056  51.677  1.00  0.00     0.161 HD
ENDROOT
BRANCH   1  16
HETATM   16  N1  UNL     1      25.446   0.028  53.456  1.00  0.00    -0.358 N 
HETATM   17  C4  UNL     1      25.879  -0.189  54.820  1.00  0.00     0.152 C 
HETATM   18  C3  UNL     1      27.295   0.218  54.970  1.00  0.00    -0.005 C 
HETATM   19  C2  UNL     1      28.097   0.379  53.944  1.00  0.00    -0.084 C 
HETATM   20  C1  UNL     1      29.521   0.792  54.193  1.00  0.00     0.043 C 
HETATM   21  C17 UNL     1      27.714   0.184  52.503  1.00  0.00     0.058 C 
HETATM   22  C15 UNL     1      26.316  -0.315  52.347  1.00  0.00     0.086 C 
HETATM   23  C16 UNL     1      26.359  -1.827  52.195  1.00  0.00     0.032 C 
ENDBRANCH   1  16
BRANCH  11  24
HETATM   24  N3  UNL     1      21.474   2.319  51.375  1.00  0.00    -0.402 N 
HETATM   25  H14 UNL     1      21.527   1.426  51.822  1.00  0.00     0.156 HD
HETATM   26  H15 UNL     1      21.123   2.004  50.419  1.00  0.00     0.156 HD
ENDBRANCH  11  24
TORSDOF 2
ENDMDL
MODEL 3
REMARK VINA RESULT:      -7.6      3.262      7.189
REMARK  2 active torsions:
REMARK  status: ('A' for Active; 'I' for Inactive)
REMARK    1  A    between atoms: N1_5  and  C5_6 
REMARK    2  A    between atoms: C12_16  and  N3_17 
ROOT
HETATM    1  C5  UNL     1      24.494   3.874  50.601  1.00  0.00     0.117 C 
HETATM    2  C6  UNL     1      23.413   3.204  50.121  1.00  0.00     0.166 C 
HETATM    3  N2  UNL     1      22.767   1.922  50.311  1.00  0.00    -0.244 NA
HETATM    4  C7  UNL     1      21.670   1.864  51.020  1.00  0.00     0.267 C 
HETATM    5  O1  UNL     1      21.128   0.558  51.144  1.00  0.00    -0.272 OA
HETATM    6  S1  UNL     1      20.493   0.011  52.675  1.00  0.00    -0.000 SA
HETATM    7  C8  UNL     1      21.740   0.253  53.996  1.00  0.00     0.132 C 
HETATM    8  C9  UNL     1      22.841  -0.693  53.737  1.00  0.00    -0.014 C 
HETATM    9  C10 UNL     1      24.087  -0.625  53.445  1.00  0.00    -0.001 C 
HETATM   10  C11 UNL     1      25.462  -0.408  53.121  1.00  0.00     0.024 C 
HETATM   11  C12 UNL     1      25.956   0.800  52.984  1.00  0.00     0.004 C 
HETATM   12  C13 UNL     1      27.004   1.810  52.706  1.00  0.00     0.076 C 
HETATM   13  C14 UNL     1      26.551   2.515  51.404  1.00  0.00     0.127 C 
HETATM   14  N4  UNL     1      25.339   3.279  51.591  1.00  0.00    -0.375 N 
HETATM   15  H20 UNL     1      24.703   3.676  52.303  1.00  0.00     0.161 HD
ENDROOT
BRANCH   1  16
HETATM   16  N1  UNL     1      24.674   5.188  50.032  1.00  0.00    -0.358 N 
HETATM   17  C4  UNL     1      25.670   5.320  48.990  1.00  0.00     0.152 C 
HETATM   18  C3  UNL     1      26.447   6.564  49.191  1.00  0.00    -0.005 C 
HETATM   19  C2  UNL     1      26.029   7.543  49.960  1.00  0.00    -0.084 C 
HETATM   20  C1  UNL     1      26.885   8.771  50.103  1.00  0.00     0.043 C 
HETATM   21  C17 UNL     1      24.739   7.550  50.733  1.00  0.00     0.058 C 
HETATM   22  C15 UNL     1      23.907   6.340  50.464  1.00  0.00     0.086 C 
HETATM   23  C16 UNL     1      22.883   6.688  49.396  1.00  0.00     0.032 C 
ENDBRANCH   1  16
BRANCH  11  24
HETATM   24  N3  UNL     1      24.688   1.335  53.274  1.00  0.00    -0.402 N 
HETATM   25  H14 UNL     1      24.114   2.053  52.881  1.00  0.00     0.156 HD
HETATM   26  H15 UNL     1      24.050   1.029  54.070  1.00  0.00     0.156 HD
ENDBRANCH  11  24
TORSDOF 2
ENDMDL
MODEL 4
REMARK VINA RESULT:      -7.5      3.285      7.472
REMARK  2 active torsions:
REMARK  status: ('A' for Active; 'I' for Inactive)
REMARK    1  A    between atoms: N1_5  and  C5_6 
REMARK    2  A    between atoms: C12_16  and  N3_17 
ROOT
HETATM    1  C5  UNL     1      24.406   3.982  50.794  1.00  0.00     0.117 C 
HETATM    2  C6  UNL     1      23.304   3.330  50.337  1.00  0.00     0.166 C 
HETATM    3  N2  UNL     1      22.679   2.032  50.485  1.00  0.00    -0.244 NA
HETATM    4  C7  UNL     1      21.625   1.920  51.250  1.00  0.00     0.267 C 
HETATM    5  O1  UNL     1      21.101   0.603  51.326  1.00  0.00    -0.272 OA
HETATM    6  S1  UNL     1      20.558  -0.042  52.854  1.00  0.00    -0.000 SA
HETATM    7  C8  UNL     1      21.877   0.134  54.114  1.00  0.00     0.132 C 
HETATM    8  C9  UNL     1      22.968  -0.783  53.738  1.00  0.00    -0.014 C 
HETATM    9  C10 UNL     1      24.195  -0.684  53.380  1.00  0.00    -0.001 C 
HETATM   10  C11 UNL     1      25.547  -0.433  52.992  1.00  0.00     0.024 C 
HETATM   11  C12 UNL     1      26.024   0.785  52.901  1.00  0.00     0.004 C 
HETATM   12  C13 UNL     1      27.047   1.822  52.626  1.00  0.00     0.076 C 
HETATM   13  C14 UNL     1      26.515   2.599  51.396  1.00  0.00     0.127 C 
HETATM   14  N4  UNL     1      25.311   3.337  51.697  1.00  0.00    -0.375 N 
HETATM   15  H20 UNL     1      24.713   3.684  52.467  1.00  0.00     0.161 HD
ENDROOT
BRANCH   1  16
HETATM   16  N1  UNL     1      24.544   5.329  50.297  1.00  0.00    -0.358 N 
HETATM   17  C4  UNL     1      24.311   6.402  51.240  1.00  0.00     0.152 C 
HETATM   18  C3  UNL     1      23.523   7.477  50.595  1.00  0.00    -0.005 C 
HETATM   19  C2  UNL     1      23.403   7.582  49.292  1.00  0.00    -0.084 C 
HETATM   20  C1  UNL     1      22.583   8.708  48.726  1.00  0.00     0.043 C 
HETATM   21  C17 UNL     1      24.026   6.655  48.285  1.00  0.00     0.058 C 
HETATM   22  C15 UNL     1      24.898   5.624  48.922  1.00  0.00     0.086 C 
HETATM   23  C16 UNL     1      26.336   6.111  48.870  1.00  0.00     0.032 C 
ENDBRANCH   1  16
BRANCH  11  24
HETATM   24  N3  UNL     1      24.771   1.289  53.294  1.00  0.00    -0.402 N 
HETATM   25  H14 UNL     1      24.383   2.200  53.432  1.00  0.00     0.156 HD
HETATM   26  H15 UNL     1      23.917   0.705  53.551  1.00  0.00     0.156 HD
ENDBRANCH  11  24
TORSDOF 2
ENDMDL
MODEL 5
REMARK VINA RESULT:      -7.5      1.812      2.246
REMARK  2 active torsions:
REMARK  status: ('A' for Active; 'I' for Inactive)
REMARK    1  A    between atoms: N1_5  and  C5_6 
REMARK    2  A    between atoms: C12_16  and  N3_17 
ROOT
HETATM    1  C5  UNL     1      24.587   1.861  52.446  1.00  0.00     0.117 C 
HETATM    2  C6  UNL     1      25.158   2.401  51.336  1.00  0.00     0.166 C 
HETATM    3  N2  UNL     1      24.785   3.291  50.256  1.00  0.00    -0.244 NA
HETATM    4  C7  UNL     1      25.209   4.528  50.278  1.00  0.00     0.267 C 
HETATM    5  O1  UNL     1      24.779   5.308  49.174  1.00  0.00    -0.272 OA
HETATM    6  S1  UNL     1      24.246   6.953  49.413  1.00  0.00    -0.000 SA
HETATM    7  C8  UNL     1      22.953   7.013  50.709  1.00  0.00     0.132 C 
HETATM    8  C9  UNL     1      21.753   6.353  50.162  1.00  0.00    -0.014 C 
HETATM    9  C10 UNL     1      21.052   5.313  50.424  1.00  0.00    -0.001 C 
HETATM   10  C11 UNL     1      20.362   4.127  50.822  1.00  0.00     0.024 C 
HETATM   11  C12 UNL     1      20.774   3.394  51.829  1.00  0.00     0.004 C 
HETATM   12  C13 UNL     1      20.748   2.249  52.770  1.00  0.00     0.076 C 
HETATM   13  C14 UNL     1      22.029   1.438  52.455  1.00  0.00     0.127 C 
HETATM   14  N4  UNL     1      23.231   2.166  52.789  1.00  0.00    -0.375 N 
HETATM   15  H20 UNL     1      23.596   2.986  53.304  1.00  0.00     0.161 HD
ENDROOT
BRANCH   1  16
HETATM   16  N1  UNL     1      25.464   1.000  53.200  1.00  0.00    -0.358 N 
HETATM   17  C4  UNL     1      26.527   1.638  53.947  1.00  0.00     0.152 C 
HETATM   18  C3  UNL     1      27.780   0.862  53.805  1.00  0.00    -0.005 C 
HETATM   19  C2  UNL     1      27.797  -0.382  53.388  1.00  0.00    -0.084 C 
HETATM   20  C1  UNL     1      29.118  -1.093  53.275  1.00  0.00     0.043 C 
HETATM   21  C17 UNL     1      26.586  -1.186  53.000  1.00  0.00     0.058 C 
HETATM   22  C15 UNL     1      25.312  -0.442  53.229  1.00  0.00     0.086 C 
HETATM   23  C16 UNL     1      24.746  -0.859  54.576  1.00  0.00     0.032 C 
ENDBRANCH   1  16
BRANCH  11  24
HETATM   24  N3  UNL     1      21.839   4.291  52.026  1.00  0.00    -0.402 N 
HETATM   25  H14 UNL     1      22.485   4.768  51.431  1.00  0.00     0.156 HD
HETATM   26  H15 UNL     1      22.185   4.651  52.967  1.00  0.00     0.156 HD
ENDBRANCH  11  24
TORSDOF 2
ENDMDL
MODEL 6
REMARK VINA RESULT:      -7.5      3.251      4.235
REMARK  2 active torsions:
REMARK  status: ('A' for Active; 'I' for Inactive)
REMARK    1  A    between atoms: N1_5  and  C5_6 
REMARK    2  A    between atoms: C12_16  and  N3_17 
ROOT
HETATM    1  C5  UNL     1      24.968   1.690  52.263  1.00  0.00     0.117 C 
HETATM    2  C6  UNL     1      23.695   1.794  52.729  1.00  0.00     0.166 C 
HETATM    3  N2  UNL     1      22.448   2.417  52.333  1.00  0.00    -0.244 NA
HETATM    4  C7  UNL     1      21.504   1.672  51.819  1.00  0.00     0.267 C 
HETATM    5  O1  UNL     1      20.331   2.388  51.463  1.00  0.00    -0.272 OA
HETATM    6  S1  UNL     1      19.504   2.033  49.967  1.00  0.00    -0.000 SA
HETATM    7  C8  UNL     1      20.681   2.108  48.565  1.00  0.00     0.132 C 
HETATM    8  C9  UNL     1      21.076   3.518  48.398  1.00  0.00    -0.014 C 
HETATM    9  C10 UNL     1      22.151   4.209  48.493  1.00  0.00    -0.001 C 
HETATM   10  C11 UNL     1      23.416   4.859  48.634  1.00  0.00     0.024 C 
HETATM   11  C12 UNL     1      24.494   4.201  48.985  1.00  0.00     0.004 C 
HETATM   12  C13 UNL     1      25.926   4.033  49.333  1.00  0.00     0.076 C 
HETATM   13  C14 UNL     1      25.933   3.619  50.825  1.00  0.00     0.127 C 
HETATM   14  N4  UNL     1      25.346   2.317  51.033  1.00  0.00    -0.375 N 
HETATM   15  H20 UNL     1      25.037   1.452  50.554  1.00  0.00     0.161 HD
ENDROOT
BRANCH   1  16
HETATM   16  N1  UNL     1      25.842   0.909  53.104  1.00  0.00    -0.358 N 
HETATM   17  C4  UNL     1      26.846   1.632  53.855  1.00  0.00     0.152 C 
HETATM   18  C3  UNL     1      28.132   0.898  53.812  1.00  0.00    -0.005 C 
HETATM   19  C2  UNL     1      28.213  -0.367  53.472  1.00  0.00    -0.084 C 
HETATM   20  C1  UNL     1      29.563  -1.031  53.457  1.00  0.00     0.043 C 
HETATM   21  C17 UNL     1      27.051  -1.238  53.082  1.00  0.00     0.058 C 
HETATM   22  C15 UNL     1      25.742  -0.533  53.212  1.00  0.00     0.086 C 
HETATM   23  C16 UNL     1      25.133  -0.892  54.558  1.00  0.00     0.032 C 
ENDBRANCH   1  16
BRANCH  11  24
HETATM   24  N3  UNL     1      23.734   3.019  49.047  1.00  0.00    -0.402 N 
HETATM   25  H14 UNL     1      23.901   2.082  49.355  1.00  0.00     0.156 HD
HETATM   26  H15 UNL     1      22.724   2.910  48.724  1.00  0.00     0.156 HD
ENDBRANCH  11  24
TORSDOF 2
ENDMDL
MODEL 7
REMARK VINA RESULT:      -7.4      2.518      4.151
REMARK  2 active torsions:
REMARK  status: ('A' for Active; 'I' for Inactive)
REMARK    1  A    between atoms: N1_5  and  C5_6 
REMARK    2  A    between atoms: C12_16  and  N3_17 
ROOT
HETATM    1  C5  UNL     1      24.285   2.404  51.631  1.00  0.00     0.117 C 
HETATM    2  C6  UNL     1      23.430   3.280  52.224  1.00  0.00     0.166 C 
HETATM    3  N2  UNL     1      23.055   4.673  52.099  1.00  0.00    -0.244 NA
HETATM    4  C7  UNL     1      21.925   4.975  51.514  1.00  0.00     0.267 C 
HETATM    5  O1  UNL     1      21.664   6.369  51.443  1.00  0.00    -0.272 OA
HETATM    6  S1  UNL     1      20.997   7.065  49.988  1.00  0.00    -0.000 SA
HETATM    7  C8  UNL     1      22.012   6.587  48.540  1.00  0.00     0.132 C 
HETATM    8  C9  UNL     1      23.311   7.273  48.669  1.00  0.00    -0.014 C 
HETATM    9  C10 UNL     1      24.538   6.937  48.823  1.00  0.00    -0.001 C 
HETATM   10  C11 UNL     1      25.862   6.427  48.994  1.00  0.00     0.024 C 
HETATM   11  C12 UNL     1      26.099   5.140  49.083  1.00  0.00     0.004 C 
HETATM   12  C13 UNL     1      26.932   3.925  49.249  1.00  0.00     0.076 C 
HETATM   13  C14 UNL     1      26.484   3.309  50.598  1.00  0.00     0.127 C 
HETATM   14  N4  UNL     1      25.125   2.824  50.551  1.00  0.00    -0.375 N 
HETATM   15  H20 UNL     1      24.344   2.584  49.915  1.00  0.00     0.161 HD
ENDROOT
BRANCH   1  16
HETATM   16  N1  UNL     1      24.242   1.072  52.184  1.00  0.00    -0.358 N 
HETATM   17  C4  UNL     1      23.067   0.280  51.893  1.00  0.00     0.152 C 
HETATM   18  C3  UNL     1      22.636  -0.448  53.109  1.00  0.00    -0.005 C 
HETATM   19  C2  UNL     1      23.424  -0.624  54.143  1.00  0.00    -0.084 C 
HETATM   20  C1  UNL     1      22.901  -1.379  55.335  1.00  0.00     0.043 C 
HETATM   21  C17 UNL     1      24.839  -0.127  54.253  1.00  0.00     0.058 C 
HETATM   22  C15 UNL     1      25.312   0.526  52.997  1.00  0.00     0.086 C 
HETATM   23  C16 UNL     1      26.086  -0.497  52.183  1.00  0.00     0.032 C 
ENDBRANCH   1  16
BRANCH  11  24
HETATM   24  N3  UNL     1      24.723   4.892  48.938  1.00  0.00    -0.402 N 
HETATM   25  H14 UNL     1      23.899   5.457  48.902  1.00  0.00     0.156 HD
HETATM   26  H15 UNL     1      24.269   3.932  48.839  1.00  0.00     0.156 HD
ENDBRANCH  11  24
TORSDOF 2
ENDMDL
MODEL 8
REMARK VINA RESULT:      -7.3      2.929      4.852
REMARK  2 active torsions:
REMARK  status: ('A' for Active; 'I' for Inactive)
REMARK    1  A    between atoms: N1_5  and  C5_6 
REMARK    2  A    between atoms: C12_16  and  N3_17 
ROOT
HETATM    1  C5  UNL     1      23.374   2.993  51.237  1.00  0.00     0.117 C 
HETATM    2  C6  UNL     1      22.692   4.054  51.747  1.00  0.00     0.166 C 
HETATM    3  N2  UNL     1      22.723   5.499  51.661  1.00  0.00    -0.244 NA
HETATM    4  C7  UNL     1      21.828   6.110  50.930  1.00  0.00     0.267 C 
HETATM    5  O1  UNL     1      21.958   7.523  50.915  1.00  0.00    -0.272 OA
HETATM    6  S1  UNL     1      21.754   8.410  49.425  1.00  0.00    -0.000 SA
HETATM    7  C8  UNL     1      22.837   7.710  48.123  1.00  0.00     0.132 C 
HETATM    8  C9  UNL     1      24.229   8.015  48.501  1.00  0.00    -0.014 C 
HETATM    9  C10 UNL     1      25.280   7.355  48.821  1.00  0.00    -0.001 C 
HETATM   10  C11 UNL     1      26.375   6.502  49.162  1.00  0.00     0.024 C 
HETATM   11  C12 UNL     1      26.247   5.197  49.198  1.00  0.00     0.004 C 
HETATM   12  C13 UNL     1      26.690   3.798  49.408  1.00  0.00     0.076 C 
HETATM   13  C14 UNL     1      25.874   3.294  50.625  1.00  0.00     0.127 C 
HETATM   14  N4  UNL     1      24.464   3.197  50.332  1.00  0.00    -0.375 N 
HETATM   15  H20 UNL     1      23.767   3.192  49.567  1.00  0.00     0.161 HD
ENDROOT
BRANCH   1  16
HETATM   16  N1  UNL     1      22.889   1.710  51.683  1.00  0.00    -0.358 N 
HETATM   17  C4  UNL     1      22.123   0.932  50.733  1.00  0.00     0.152 C 
HETATM   18  C3  UNL     1      20.960   0.313  51.410  1.00  0.00    -0.005 C 
HETATM   19  C2  UNL     1      20.882   0.194  52.714  1.00  0.00    -0.084 C 
HETATM   20  C1  UNL     1      19.663  -0.450  53.314  1.00  0.00     0.043 C 
HETATM   21  C17 UNL     1      21.927   0.657  53.693  1.00  0.00     0.058 C 
HETATM   22  C15 UNL     1      23.142   1.197  53.016  1.00  0.00     0.086 C 
HETATM   23  C16 UNL     1      24.182   0.092  52.937  1.00  0.00     0.032 C 
ENDBRANCH   1  16
BRANCH  11  24
HETATM   24  N3  UNL     1      24.898   5.334  48.823  1.00  0.00    -0.402 N 
HETATM   25  H14 UNL     1      24.269   6.102  48.704  1.00  0.00     0.156 HD
HETATM   26  H15 UNL     1      24.234   4.537  48.581  1.00  0.00     0.156 HD
ENDBRANCH  11  24
TORSDOF 2
ENDMDL
MODEL 9
REMARK VINA RESULT:      -7.1      3.499      7.229
REMARK  2 active torsions:
REMARK  status: ('A' for Active; 'I' for Inactive)
REMARK    1  A    between atoms: N1_5  and  C5_6 
REMARK    2  A    between atoms: C12_16  and  N3_17 
ROOT
HETATM    1  C5  UNL     1      23.257   2.846  50.706  1.00  0.00     0.117 C 
HETATM    2  C6  UNL     1      24.187   3.261  51.608  1.00  0.00     0.166 C 
HETATM    3  N2  UNL     1      24.656   2.883  52.925  1.00  0.00    -0.244 NA
HETATM    4  C7  UNL     1      25.789   2.240  53.034  1.00  0.00     0.267 C 
HETATM    5  O1  UNL     1      26.147   1.916  54.369  1.00  0.00    -0.272 OA
HETATM    6  S1  UNL     1      26.824   0.352  54.743  1.00  0.00    -0.000 SA
HETATM    7  C8  UNL     1      25.742  -0.975  54.091  1.00  0.00     0.132 C 
HETATM    8  C9  UNL     1      24.498  -0.955  54.883  1.00  0.00    -0.014 C 
HETATM    9  C10 UNL     1      23.255  -0.728  54.671  1.00  0.00    -0.001 C 
HETATM   10  C11 UNL     1      21.903  -0.452  54.300  1.00  0.00     0.024 C 
HETATM   11  C12 UNL     1      21.577  -0.130  53.071  1.00  0.00     0.004 C 
HETATM   12  C13 UNL     1      20.665   0.261  51.970  1.00  0.00     0.076 C 
HETATM   13  C14 UNL     1      21.103   1.693  51.573  1.00  0.00     0.127 C 
HETATM   14  N4  UNL     1      22.423   1.717  50.988  1.00  0.00    -0.375 N 
HETATM   15  H20 UNL     1      23.168   1.126  50.581  1.00  0.00     0.161 HD
ENDROOT
BRANCH   1  16
HETATM   16  N1  UNL     1      23.220   3.629  49.495  1.00  0.00    -0.358 N 
HETATM   17  C4  UNL     1      24.442   4.305  49.114  1.00  0.00     0.152 C 
HETATM   18  C3  UNL     1      24.133   5.672  48.636  1.00  0.00    -0.005 C 
HETATM   19  C2  UNL     1      22.926   6.038  48.272  1.00  0.00    -0.084 C 
HETATM   20  C1  UNL     1      22.707   7.448  47.798  1.00  0.00     0.043 C 
HETATM   21  C17 UNL     1      21.709   5.154  48.285  1.00  0.00     0.058 C 
HETATM   22  C15 UNL     1      22.029   3.750  48.677  1.00  0.00     0.086 C 
HETATM   23  C16 UNL     1      22.205   2.926  47.412  1.00  0.00     0.032 C 
ENDBRANCH   1  16
BRANCH  11  24
HETATM   24  N3  UNL     1      22.929  -0.245  52.699  1.00  0.00    -0.402 N 
HETATM   25  H14 UNL     1      23.803   0.016  53.109  1.00  0.00     0.156 HD
HETATM   26  H15 UNL     1      23.293  -0.677  51.796  1.00  0.00     0.156 HD
ENDBRANCH  11  24
TORSDOF 2
ENDMDL
