MODEL 1
REMARK VINA RESULT:      -8.3      0.000      0.000
REMARK  7 active torsions:
REMARK  status: ('A' for Active; 'I' for Inactive)
REMARK    1  A    between atoms: S1_2  and  N1_4 
REMARK    2  A    between atoms: C5_8  and  C6_9 
REMARK    3  A    between atoms: C7_10  and  N2_11 
REMARK    4  A    between atoms: N2_11  and  C8_12 
REMARK    5  A    between atoms: C11_15  and  O2_16 
REMARK    6  A    between atoms: O2_16  and  C12_17 
REMARK    7  A    between atoms: C12_17  and  C13_18 
ROOT
HETATM    1  C8  UNL     1      25.980   4.666  49.586  1.00  0.00     0.041 A 
HETATM    2  C9  UNL     1      26.683   3.476  49.628  1.00  0.00     0.033 A 
HETATM    3  C10 UNL     1      26.287   2.424  50.426  1.00  0.00     0.041 A 
HETATM    4  C11 UNL     1      25.161   2.513  51.223  1.00  0.00     0.091 A 
HETATM    5  C19 UNL     1      24.449   3.699  51.189  1.00  0.00     0.069 A 
HETATM    6 CL1  UNL     1      22.986   4.032  52.122  1.00  0.00    -0.081 Cl
HETATM    7  C20 UNL     1      24.847   4.756  50.389  1.00  0.00     0.056 A 
ENDROOT
BRANCH   1   8
HETATM    8  N2  UNL     1      26.497   5.653  48.729  1.00  0.00    -0.315 N 
HETATM    9  H11 UNL     1      25.722   6.226  48.372  1.00  0.00     0.176 HD
BRANCH   8  10
HETATM   10  C7  UNL     1      27.850   5.817  48.424  1.00  0.00     0.012 C 
HETATM   11  C6  UNL     1      29.015   5.980  48.163  1.00  0.00    -0.063 C 
BRANCH  11  12
HETATM   12  C5  UNL     1      30.436   6.186  47.870  1.00  0.00     0.152 C 
HETATM   13  N1  UNL     1      31.197   5.271  48.663  1.00  0.00    -0.217 NA
HETATM   14  C2  UNL     1      31.899   6.022  49.671  1.00  0.00     0.106 C 
HETATM   15  C3  UNL     1      31.905   7.464  49.253  1.00  0.00     0.018 C 
HETATM   16  C4  UNL     1      30.805   7.580  48.240  1.00  0.00     0.034 C 
BRANCH  13  17
HETATM   17  S1  UNL     1      32.351   4.349  47.741  1.00  0.00     0.088 S 
HETATM   18  C1  UNL     1      33.679   5.333  47.074  1.00  0.00     0.146 C 
HETATM   19  O1  UNL     1      31.728   3.445  46.715  1.00  0.00    -0.242 OA
ENDBRANCH  13  17
ENDBRANCH  11  12
ENDBRANCH   8  10
ENDBRANCH   1   8
BRANCH   4  20
HETATM   20  O2  UNL     1      24.620   1.581  52.071  1.00  0.00    -0.345 OA
BRANCH  20  21
HETATM   21  C12 UNL     1      25.181   1.352  53.327  1.00  0.00     0.214 C 
BRANCH  21  22
HETATM   22  C13 UNL     1      26.353   0.459  53.288  1.00  0.00    -0.031 A 
HETATM   23  C14 UNL     1      27.587   0.941  53.702  1.00  0.00     0.009 A 
HETATM   24  C15 UNL     1      28.754   0.194  53.709  1.00  0.00     0.004 A 
HETATM   25  C16 UNL     1      28.721  -1.104  53.287  1.00  0.00     0.042 A 
HETATM   26  C17 UNL     1      27.520  -1.607  52.874  1.00  0.00     0.117 A 
HETATM   27  F1  UNL     1      27.486  -2.895  52.455  1.00  0.00    -0.206 F 
HETATM   28  C18 UNL     1      26.361  -0.872  52.865  1.00  0.00     0.051 A 
ENDBRANCH  21  22
ENDBRANCH  20  21
ENDBRANCH   4  20
TORSDOF 7
ENDMDL
MODEL 2
REMARK VINA RESULT:      -8.3      0.878      1.276
REMARK  7 active torsions:
REMARK  status: ('A' for Active; 'I' for Inactive)
REMARK    1  A    between atoms: S1_2  and  N1_4 
REMARK    2  A    between atoms: C5_8  and  C6_9 
REMARK    3  A    between atoms: C7_10  and  N2_11 
REMARK    4  A    between atoms: N2_11  and  C8_12 
REMARK    5  A    between atoms: C11_15  and  O2_16 
REMARK    6  A    between atoms: O2_16  and  C12_17 
REMARK    7  A    between atoms: C12_17  and  C13_18 
ROOT
HETATM    1  C8  UNL     1      25.940   4.312  49.780  1.00  0.00     0.041 A 
HETATM    2  C9  UNL     1      26.755   3.195  49.819  1.00  0.00     0.033 A 
HETATM    3  C10 UNL     1      26.494   2.132  50.657  1.00  0.00     0.041 A 
HETATM    4  C11 UNL     1      25.399   2.136  51.500  1.00  0.00     0.091 A 
HETATM    5  C19 UNL     1      24.577   3.248  51.471  1.00  0.00     0.069 A 
HETATM    6 CL1  UNL     1      23.129   3.467  52.459  1.00  0.00    -0.081 Cl
HETATM    7  C20 UNL     1      24.839   4.316  50.630  1.00  0.00     0.056 A 
ENDROOT
BRANCH   1   8
HETATM    8  N2  UNL     1      26.326   5.320  48.879  1.00  0.00    -0.315 N 
HETATM    9  H11 UNL     1      25.485   5.812  48.548  1.00  0.00     0.176 HD
BRANCH   8  10
HETATM   10  C7  UNL     1      27.642   5.597  48.506  1.00  0.00     0.012 C 
HETATM   11  C6  UNL     1      28.782   5.844  48.203  1.00  0.00    -0.063 C 
BRANCH  11  12
HETATM   12  C5  UNL     1      30.175   6.129  47.852  1.00  0.00     0.152 C 
HETATM   13  N1  UNL     1      31.021   5.305  48.659  1.00  0.00    -0.217 NA
HETATM   14  C2  UNL     1      31.702   6.146  49.608  1.00  0.00     0.106 C 
HETATM   15  C3  UNL     1      31.598   7.564  49.127  1.00  0.00     0.018 C 
HETATM   16  C4  UNL     1      30.462   7.561  48.148  1.00  0.00     0.034 C 
BRANCH  13  17
HETATM   17  S1  UNL     1      32.205   4.419  47.739  1.00  0.00     0.088 S 
HETATM   18  C1  UNL     1      33.510   5.442  47.086  1.00  0.00     0.146 C 
HETATM   19  O1  UNL     1      31.614   3.504  46.705  1.00  0.00    -0.242 OA
ENDBRANCH  13  17
ENDBRANCH  11  12
ENDBRANCH   8  10
ENDBRANCH   1   8
BRANCH   4  20
HETATM   20  O2  UNL     1      24.985   1.180  52.392  1.00  0.00    -0.345 OA
BRANCH  20  21
HETATM   21  C12 UNL     1      25.717   0.925  53.552  1.00  0.00     0.214 C 
BRANCH  21  22
HETATM   22  C13 UNL     1      26.766  -0.094  53.365  1.00  0.00    -0.031 A 
HETATM   23  C14 UNL     1      26.433  -1.313  52.790  1.00  0.00     0.009 A 
HETATM   24  C15 UNL     1      27.333  -2.342  52.565  1.00  0.00     0.004 A 
HETATM   25  C16 UNL     1      28.641  -2.177  52.922  1.00  0.00     0.042 A 
HETATM   26  C17 UNL     1      28.999  -0.988  53.491  1.00  0.00     0.117 A 
HETATM   27  F1  UNL     1      30.296  -0.824  53.846  1.00  0.00    -0.206 F 
HETATM   28  C18 UNL     1      28.111   0.034  53.715  1.00  0.00     0.051 A 
ENDBRANCH  21  22
ENDBRANCH  20  21
ENDBRANCH   4  20
TORSDOF 7
ENDMDL
MODEL 3
REMARK VINA RESULT:      -8.0      2.181      2.999
REMARK  7 active torsions:
REMARK  status: ('A' for Active; 'I' for Inactive)
REMARK    1  A    between atoms: S1_2  and  N1_4 
REMARK    2  A    between atoms: C5_8  and  C6_9 
REMARK    3  A    between atoms: C7_10  and  N2_11 
REMARK    4  A    between atoms: N2_11  and  C8_12 
REMARK    5  A    between atoms: C11_15  and  O2_16 
REMARK    6  A    between atoms: O2_16  and  C12_17 
REMARK    7  A    between atoms: C12_17  and  C13_18 
ROOT
HETATM    1  C8  UNL     1      27.091   5.639  48.864  1.00  0.00     0.041 A 
HETATM    2  C9  UNL     1      27.143   4.270  49.057  1.00  0.00     0.033 A 
HETATM    3  C10 UNL     1      26.173   3.599  49.770  1.00  0.00     0.041 A 
HETATM    4  C11 UNL     1      25.098   4.268  50.326  1.00  0.00     0.091 A 
HETATM    5  C19 UNL     1      25.036   5.638  50.140  1.00  0.00     0.069 A 
HETATM    6 CL1  UNL     1      23.759   6.690  50.759  1.00  0.00    -0.081 Cl
HETATM    7  C20 UNL     1      26.011   6.313  49.424  1.00  0.00     0.056 A 
ENDROOT
BRANCH   1   8
HETATM    8  N2  UNL     1      28.146   6.192  48.118  1.00  0.00    -0.315 N 
HETATM    9  H11 UNL     1      27.816   7.049  47.656  1.00  0.00     0.176 HD
BRANCH   8  10
HETATM   10  C7  UNL     1      29.431   5.652  48.029  1.00  0.00     0.012 C 
HETATM   11  C6  UNL     1      30.540   5.190  47.931  1.00  0.00    -0.063 C 
BRANCH  11  12
HETATM   12  C5  UNL     1      31.896   4.650  47.805  1.00  0.00     0.152 C 
HETATM   13  N1  UNL     1      32.780   5.725  47.474  1.00  0.00    -0.217 NA
HETATM   14  C2  UNL     1      33.215   5.551  46.113  1.00  0.00     0.106 C 
HETATM   15  C3  UNL     1      32.929   4.132  45.715  1.00  0.00     0.018 C 
HETATM   16  C4  UNL     1      31.913   3.646  46.705  1.00  0.00     0.034 C 
BRANCH  13  17
HETATM   17  S1  UNL     1      34.179   5.814  48.507  1.00  0.00     0.088 S 
HETATM   18  C1  UNL     1      35.115   7.318  48.310  1.00  0.00     0.146 C 
HETATM   19  O1  UNL     1      35.043   4.585  48.471  1.00  0.00    -0.242 OA
ENDBRANCH  13  17
ENDBRANCH  11  12
ENDBRANCH   8  10
ENDBRANCH   1   8
BRANCH   4  20
HETATM   20  O2  UNL     1      24.050   3.773  51.059  1.00  0.00    -0.345 OA
BRANCH  20  21
HETATM   21  C12 UNL     1      24.121   3.711  52.450  1.00  0.00     0.214 C 
BRANCH  21  22
HETATM   22  C13 UNL     1      24.579   2.403  52.952  1.00  0.00    -0.031 A 
HETATM   23  C14 UNL     1      23.793   1.280  52.731  1.00  0.00     0.009 A 
HETATM   24  C15 UNL     1      24.122   0.002  53.155  1.00  0.00     0.004 A 
HETATM   25  C16 UNL     1      25.288  -0.198  53.836  1.00  0.00     0.042 A 
HETATM   26  C17 UNL     1      26.083   0.888  54.068  1.00  0.00     0.117 A 
HETATM   27  F1  UNL     1      27.240   0.691  54.744  1.00  0.00    -0.206 F 
HETATM   28  C18 UNL     1      25.762   2.156  53.651  1.00  0.00     0.051 A 
ENDBRANCH  21  22
ENDBRANCH  20  21
ENDBRANCH   4  20
TORSDOF 7
ENDMDL
MODEL 4
REMARK VINA RESULT:      -8.0      2.660      3.272
REMARK  7 active torsions:
REMARK  status: ('A' for Active; 'I' for Inactive)
REMARK    1  A    between atoms: S1_2  and  N1_4 
REMARK    2  A    between atoms: C5_8  and  C6_9 
REMARK    3  A    between atoms: C7_10  and  N2_11 
REMARK    4  A    between atoms: N2_11  and  C8_12 
REMARK    5  A    between atoms: C11_15  and  O2_16 
REMARK    6  A    between atoms: O2_16  and  C12_17 
REMARK    7  A    between atoms: C12_17  and  C13_18 
ROOT
HETATM    1  C8  UNL     1      25.946   4.752  49.469  1.00  0.00     0.041 A 
HETATM    2  C9  UNL     1      24.669   5.056  49.903  1.00  0.00     0.033 A 
HETATM    3  C10 UNL     1      23.986   4.245  50.784  1.00  0.00     0.041 A 
HETATM    4  C11 UNL     1      24.552   3.082  51.274  1.00  0.00     0.091 A 
HETATM    5  C19 UNL     1      25.829   2.767  50.846  1.00  0.00     0.069 A 
HETATM    6 CL1  UNL     1      26.742   1.337  51.340  1.00  0.00    -0.081 Cl
HETATM    7  C20 UNL     1      26.515   3.581  49.961  1.00  0.00     0.056 A 
ENDROOT
BRANCH   1   8
HETATM    8  N2  UNL     1      26.523   5.668  48.572  1.00  0.00    -0.315 N 
HETATM    9  H11 UNL     1      25.774   6.202  48.112  1.00  0.00     0.176 HD
BRANCH   8  10
HETATM   10  C7  UNL     1      27.893   5.816  48.353  1.00  0.00     0.012 C 
HETATM   11  C6  UNL     1      29.073   5.961  48.151  1.00  0.00    -0.063 C 
BRANCH  11  12
HETATM   12  C5  UNL     1      30.505   6.159  47.915  1.00  0.00     0.152 C 
HETATM   13  N1  UNL     1      31.228   5.222  48.718  1.00  0.00    -0.217 NA
HETATM   14  C2  UNL     1      31.898   5.945  49.767  1.00  0.00     0.106 C 
HETATM   15  C3  UNL     1      31.932   7.395  49.379  1.00  0.00     0.018 C 
HETATM   16  C4  UNL     1      30.872   7.543  48.328  1.00  0.00     0.034 C 
BRANCH  13  17
HETATM   17  S1  UNL     1      32.407   4.307  47.821  1.00  0.00     0.088 S 
HETATM   18  C1  UNL     1      33.753   5.297  47.199  1.00  0.00     0.146 C 
HETATM   19  O1  UNL     1      31.814   3.411  46.771  1.00  0.00    -0.242 OA
ENDBRANCH  13  17
ENDBRANCH  11  12
ENDBRANCH   8  10
ENDBRANCH   1   8
BRANCH   4  20
HETATM   20  O2  UNL     1      24.030   2.162  52.146  1.00  0.00    -0.345 OA
BRANCH  20  21
HETATM   21  C12 UNL     1      23.025   1.285  51.737  1.00  0.00     0.214 C 
BRANCH  21  22
HETATM   22  C13 UNL     1      22.652   0.304  52.772  1.00  0.00    -0.031 A 
HETATM   23  C14 UNL     1      23.602  -0.091  53.705  1.00  0.00     0.009 A 
HETATM   24  C15 UNL     1      23.365  -1.004  54.720  1.00  0.00     0.004 A 
HETATM   25  C16 UNL     1      22.128  -1.569  54.838  1.00  0.00     0.042 A 
HETATM   26  C17 UNL     1      21.173  -1.200  53.935  1.00  0.00     0.117 A 
HETATM   27  F1  UNL     1      19.945  -1.760  54.050  1.00  0.00    -0.206 F 
HETATM   28  C18 UNL     1      21.401  -0.296  52.927  1.00  0.00     0.051 A 
ENDBRANCH  21  22
ENDBRANCH  20  21
ENDBRANCH   4  20
TORSDOF 7
ENDMDL
MODEL 5
REMARK VINA RESULT:      -7.9      7.562     11.349
REMARK  7 active torsions:
REMARK  status: ('A' for Active; 'I' for Inactive)
REMARK    1  A    between atoms: S1_2  and  N1_4 
REMARK    2  A    between atoms: C5_8  and  C6_9 
REMARK    3  A    between atoms: C7_10  and  N2_11 
REMARK    4  A    between atoms: N2_11  and  C8_12 
REMARK    5  A    between atoms: C11_15  and  O2_16 
REMARK    6  A    between atoms: O2_16  and  C12_17 
REMARK    7  A    between atoms: C12_17  and  C13_18 
ROOT
HETATM    1  C8  UNL     1      20.764  -0.903  53.754  1.00  0.00     0.041 A 
HETATM    2  C9  UNL     1      21.586  -1.444  54.725  1.00  0.00     0.033 A 
HETATM    3  C10 UNL     1      22.937  -1.178  54.768  1.00  0.00     0.041 A 
HETATM    4  C11 UNL     1      23.535  -0.351  53.834  1.00  0.00     0.091 A 
HETATM    5  C19 UNL     1      22.723   0.196  52.857  1.00  0.00     0.069 A 
HETATM    6 CL1  UNL     1      23.270   1.275  51.569  1.00  0.00    -0.081 Cl
HETATM    7  C20 UNL     1      21.365  -0.072  52.814  1.00  0.00     0.056 A 
ENDROOT
BRANCH   1   8
HETATM    8  N2  UNL     1      19.406  -1.260  53.831  1.00  0.00    -0.315 N 
HETATM    9  H11 UNL     1      19.275  -1.908  54.618  1.00  0.00     0.176 HD
BRANCH   8  10
HETATM   10  C7  UNL     1      18.409  -0.799  52.969  1.00  0.00     0.012 C 
HETATM   11  C6  UNL     1      17.541  -0.422  52.223  1.00  0.00    -0.063 C 
BRANCH  11  12
HETATM   12  C5  UNL     1      16.470   0.029  51.331  1.00  0.00     0.152 C 
HETATM   13  N1  UNL     1      15.331  -0.811  51.535  1.00  0.00    -0.217 NA
HETATM   14  C2  UNL     1      15.159  -1.634  50.366  1.00  0.00     0.106 C 
HETATM   15  C3  UNL     1      15.949  -1.019  49.248  1.00  0.00     0.018 C 
HETATM   16  C4  UNL     1      16.931  -0.106  49.921  1.00  0.00     0.034 C 
BRANCH  13  17
HETATM   17  S1  UNL     1      13.859   0.075  51.822  1.00  0.00     0.088 S 
HETATM   18  C1  UNL     1      14.058   1.843  51.696  1.00  0.00     0.146 C 
HETATM   19  O1  UNL     1      13.131  -0.339  53.069  1.00  0.00    -0.242 OA
ENDBRANCH  13  17
ENDBRANCH  11  12
ENDBRANCH   8  10
ENDBRANCH   1   8
BRANCH   4  20
HETATM   20  O2  UNL     1      24.849   0.024  53.719  1.00  0.00    -0.345 OA
BRANCH  20  21
HETATM   21  C12 UNL     1      25.770  -0.802  53.076  1.00  0.00     0.214 C 
BRANCH  21  22
HETATM   22  C13 UNL     1      27.170  -0.402  53.307  1.00  0.00    -0.031 A 
HETATM   23  C14 UNL     1      28.177  -1.349  53.173  1.00  0.00     0.009 A 
HETATM   24  C15 UNL     1      29.524  -1.088  53.365  1.00  0.00     0.004 A 
HETATM   25  C16 UNL     1      29.919   0.173  53.709  1.00  0.00     0.042 A 
HETATM   26  C17 UNL     1      28.952   1.127  53.847  1.00  0.00     0.117 A 
HETATM   27  F1  UNL     1      29.343   2.378  54.188  1.00  0.00    -0.206 F 
HETATM   28  C18 UNL     1      27.616   0.874  53.658  1.00  0.00     0.051 A 
ENDBRANCH  21  22
ENDBRANCH  20  21
ENDBRANCH   4  20
TORSDOF 7
ENDMDL
MODEL 6
REMARK VINA RESULT:      -7.7      7.483     11.308
REMARK  7 active torsions:
REMARK  status: ('A' for Active; 'I' for Inactive)
REMARK    1  A    between atoms: S1_2  and  N1_4 
REMARK    2  A    between atoms: C5_8  and  C6_9 
REMARK    3  A    between atoms: C7_10  and  N2_11 
REMARK    4  A    between atoms: N2_11  and  C8_12 
REMARK    5  A    between atoms: C11_15  and  O2_16 
REMARK    6  A    between atoms: O2_16  and  C12_17 
REMARK    7  A    between atoms: C12_17  and  C13_18 
ROOT
HETATM    1  C8  UNL     1      20.690  -1.081  53.850  1.00  0.00     0.041 A 
HETATM    2  C9  UNL     1      20.957  -0.264  52.767  1.00  0.00     0.033 A 
HETATM    3  C10 UNL     1      22.215   0.253  52.537  1.00  0.00     0.041 A 
HETATM    4  C11 UNL     1      23.271  -0.027  53.384  1.00  0.00     0.091 A 
HETATM    5  C19 UNL     1      23.016  -0.844  54.471  1.00  0.00     0.069 A 
HETATM    6 CL1  UNL     1      24.210  -1.330  55.678  1.00  0.00    -0.081 Cl
HETATM    7  C20 UNL     1      21.753  -1.362  54.703  1.00  0.00     0.056 A 
ENDROOT
BRANCH   1   8
HETATM    8  N2  UNL     1      19.365  -1.536  53.962  1.00  0.00    -0.315 N 
HETATM    9  H11 UNL     1      19.317  -2.250  54.701  1.00  0.00     0.176 HD
BRANCH   8  10
HETATM   10  C7  UNL     1      18.296  -1.081  53.187  1.00  0.00     0.012 C 
HETATM   11  C6  UNL     1      17.381  -0.667  52.521  1.00  0.00    -0.063 C 
BRANCH  11  12
HETATM   12  C5  UNL     1      16.284  -0.157  51.695  1.00  0.00     0.152 C 
HETATM   13  N1  UNL     1      15.350   0.510  52.548  1.00  0.00    -0.217 NA
HETATM   14  C2  UNL     1      14.150  -0.283  52.614  1.00  0.00     0.106 C 
HETATM   15  C3  UNL     1      14.173  -1.252  51.467  1.00  0.00     0.018 C 
HETATM   16  C4  UNL     1      15.607  -1.306  51.031  1.00  0.00     0.034 C 
BRANCH  13  17
HETATM   17  S1  UNL     1      14.937   2.112  52.005  1.00  0.00     0.088 S 
HETATM   18  C1  UNL     1      15.914   2.668  50.621  1.00  0.00     0.146 C 
HETATM   19  O1  UNL     1      14.862   3.129  53.108  1.00  0.00    -0.242 OA
ENDBRANCH  13  17
ENDBRANCH  11  12
ENDBRANCH   8  10
ENDBRANCH   1   8
BRANCH   4  20
HETATM   20  O2  UNL     1      24.575   0.392  53.316  1.00  0.00    -0.345 OA
BRANCH  20  21
HETATM   21  C12 UNL     1      25.566  -0.447  52.808  1.00  0.00     0.214 C 
BRANCH  21  22
HETATM   22  C13 UNL     1      26.931  -0.016  53.163  1.00  0.00    -0.031 A 
HETATM   23  C14 UNL     1      27.168   1.322  53.442  1.00  0.00     0.009 A 
HETATM   24  C15 UNL     1      28.406   1.840  53.787  1.00  0.00     0.004 A 
HETATM   25  C16 UNL     1      29.483   1.004  53.866  1.00  0.00     0.042 A 
HETATM   26  C17 UNL     1      29.281  -0.319  53.597  1.00  0.00     0.117 A 
HETATM   27  F1  UNL     1      30.348  -1.149  53.675  1.00  0.00    -0.206 F 
HETATM   28  C18 UNL     1      28.056  -0.838  53.255  1.00  0.00     0.051 A 
ENDBRANCH  21  22
ENDBRANCH  20  21
ENDBRANCH   4  20
TORSDOF 7
ENDMDL
MODEL 7
REMARK VINA RESULT:      -7.5      2.662      3.166
REMARK  7 active torsions:
REMARK  status: ('A' for Active; 'I' for Inactive)
REMARK    1  A    between atoms: S1_2  and  N1_4 
REMARK    2  A    between atoms: C5_8  and  C6_9 
REMARK    3  A    between atoms: C7_10  and  N2_11 
REMARK    4  A    between atoms: N2_11  and  C8_12 
REMARK    5  A    between atoms: C11_15  and  O2_16 
REMARK    6  A    between atoms: O2_16  and  C12_17 
REMARK    7  A    between atoms: C12_17  and  C13_18 
ROOT
HETATM    1  C8  UNL     1      26.503   5.677  48.918  1.00  0.00     0.041 A 
HETATM    2  C9  UNL     1      27.154   4.457  48.953  1.00  0.00     0.033 A 
HETATM    3  C10 UNL     1      26.701   3.412  49.728  1.00  0.00     0.041 A 
HETATM    4  C11 UNL     1      25.567   3.537  50.509  1.00  0.00     0.091 A 
HETATM    5  C19 UNL     1      24.907   4.753  50.483  1.00  0.00     0.069 A 
HETATM    6 CL1  UNL     1      23.446   5.135  51.399  1.00  0.00    -0.081 Cl
HETATM    7  C20 UNL     1      25.363   5.804  49.705  1.00  0.00     0.056 A 
ENDROOT
BRANCH   1   8
HETATM    8  N2  UNL     1      27.076   6.653  48.084  1.00  0.00    -0.315 N 
HETATM    9  H11 UNL     1      26.480   6.776  47.255  1.00  0.00     0.176 HD
BRANCH   8  10
HETATM   10  C7  UNL     1      28.263   7.337  48.353  1.00  0.00     0.012 C 
HETATM   11  C6  UNL     1      29.283   7.926  48.608  1.00  0.00    -0.063 C 
BRANCH  11  12
HETATM   12  C5  UNL     1      30.532   8.621  48.927  1.00  0.00     0.152 C 
HETATM   13  N1  UNL     1      31.067   9.166  47.718  1.00  0.00    -0.217 NA
HETATM   14  C2  UNL     1      32.253   8.426  47.373  1.00  0.00     0.106 C 
HETATM   15  C3  UNL     1      32.700   7.676  48.594  1.00  0.00     0.018 C 
HETATM   16  C4  UNL     1      31.499   7.638  49.491  1.00  0.00     0.034 C 
BRANCH  13  17
HETATM   17  S1  UNL     1      31.472  10.855  47.839  1.00  0.00     0.088 S 
HETATM   18  C1  UNL     1      30.442  11.754  48.983  1.00  0.00     0.146 C 
HETATM   19  O1  UNL     1      31.604  11.547  46.512  1.00  0.00    -0.242 OA
ENDBRANCH  13  17
ENDBRANCH  11  12
ENDBRANCH   8  10
ENDBRANCH   1   8
BRANCH   4  20
HETATM   20  O2  UNL     1      24.974   2.617  51.335  1.00  0.00    -0.345 OA
BRANCH  20  21
HETATM   21  C12 UNL     1      25.395   2.472  52.657  1.00  0.00     0.214 C 
BRANCH  21  22
HETATM   22  C13 UNL     1      26.366   1.379  52.842  1.00  0.00    -0.031 A 
HETATM   23  C14 UNL     1      26.025   0.094  52.444  1.00  0.00     0.009 A 
HETATM   24  C15 UNL     1      26.856  -1.008  52.568  1.00  0.00     0.004 A 
HETATM   25  C16 UNL     1      28.098  -0.852  53.113  1.00  0.00     0.042 A 
HETATM   26  C17 UNL     1      28.463   0.402  53.514  1.00  0.00     0.117 A 
HETATM   27  F1  UNL     1      29.695   0.558  54.056  1.00  0.00    -0.206 F 
HETATM   28  C18 UNL     1      27.644   1.497  53.394  1.00  0.00     0.051 A 
ENDBRANCH  21  22
ENDBRANCH  20  21
ENDBRANCH   4  20
TORSDOF 7
ENDMDL
MODEL 8
REMARK VINA RESULT:      -7.4      1.861      2.413
REMARK  7 active torsions:
REMARK  status: ('A' for Active; 'I' for Inactive)
REMARK    1  A    between atoms: S1_2  and  N1_4 
REMARK    2  A    between atoms: C5_8  and  C6_9 
REMARK    3  A    between atoms: C7_10  and  N2_11 
REMARK    4  A    between atoms: N2_11  and  C8_12 
REMARK    5  A    between atoms: C11_15  and  O2_16 
REMARK    6  A    between atoms: O2_16  and  C12_17 
REMARK    7  A    between atoms: C12_17  and  C13_18 
ROOT
HETATM    1  C8  UNL     1      26.858   6.220  48.665  1.00  0.00     0.041 A 
HETATM    2  C9  UNL     1      27.214   4.885  48.712  1.00  0.00     0.033 A 
HETATM    3  C10 UNL     1      26.585   3.993  49.554  1.00  0.00     0.041 A 
HETATM    4  C11 UNL     1      25.563   4.397  50.393  1.00  0.00     0.091 A 
HETATM    5  C19 UNL     1      25.199   5.730  50.355  1.00  0.00     0.069 A 
HETATM    6 CL1  UNL     1      23.926   6.464  51.337  1.00  0.00    -0.081 Cl
HETATM    7  C20 UNL     1      25.831   6.627  49.510  1.00  0.00     0.056 A 
ENDROOT
BRANCH   1   8
HETATM    8  N2  UNL     1      27.583   7.016  47.761  1.00  0.00    -0.315 N 
HETATM    9  H11 UNL     1      26.930   7.630  47.258  1.00  0.00     0.176 HD
BRANCH   8  10
HETATM   10  C7  UNL     1      28.967   6.968  47.587  1.00  0.00     0.012 C 
HETATM   11  C6  UNL     1      30.166   6.933  47.458  1.00  0.00    -0.063 C 
BRANCH  11  12
HETATM   12  C5  UNL     1      31.622   6.872  47.318  1.00  0.00     0.152 C 
HETATM   13  N1  UNL     1      31.977   5.564  46.861  1.00  0.00    -0.217 NA
HETATM   14  C2  UNL     1      32.640   4.873  47.937  1.00  0.00     0.106 C 
HETATM   15  C3  UNL     1      33.073   5.897  48.946  1.00  0.00     0.018 C 
HETATM   16  C4  UNL     1      32.243   7.111  48.650  1.00  0.00     0.034 C 
BRANCH  13  17
HETATM   17  S1  UNL     1      33.024   5.577  45.469  1.00  0.00     0.088 S 
HETATM   18  C1  UNL     1      32.722   6.943  44.364  1.00  0.00     0.146 C 
HETATM   19  O1  UNL     1      33.102   4.258  44.753  1.00  0.00    -0.242 OA
ENDBRANCH  13  17
ENDBRANCH  11  12
ENDBRANCH   8  10
ENDBRANCH   1   8
BRANCH   4  20
HETATM   20  O2  UNL     1      24.831   3.660  51.288  1.00  0.00    -0.345 OA
BRANCH  20  21
HETATM   21  C12 UNL     1      24.368   2.388  50.952  1.00  0.00     0.214 C 
BRANCH  21  22
HETATM   22  C13 UNL     1      24.876   1.330  51.844  1.00  0.00    -0.031 A 
HETATM   23  C14 UNL     1      26.216   0.972  51.777  1.00  0.00     0.009 A 
HETATM   24  C15 UNL     1      26.803  -0.005  52.565  1.00  0.00     0.004 A 
HETATM   25  C16 UNL     1      26.040  -0.678  53.475  1.00  0.00     0.042 A 
HETATM   26  C17 UNL     1      24.718  -0.349  53.565  1.00  0.00     0.117 A 
HETATM   27  F1  UNL     1      23.961  -1.016  54.467  1.00  0.00    -0.206 F 
HETATM   28  C18 UNL     1      24.132   0.619  52.787  1.00  0.00     0.051 A 
ENDBRANCH  21  22
ENDBRANCH  20  21
ENDBRANCH   4  20
TORSDOF 7
ENDMDL
MODEL 9
REMARK VINA RESULT:      -7.1      4.878      9.696
REMARK  7 active torsions:
REMARK  status: ('A' for Active; 'I' for Inactive)
REMARK    1  A    between atoms: S1_2  and  N1_4 
REMARK    2  A    between atoms: C5_8  and  C6_9 
REMARK    3  A    between atoms: C7_10  and  N2_11 
REMARK    4  A    between atoms: N2_11  and  C8_12 
REMARK    5  A    between atoms: C11_15  and  O2_16 
REMARK    6  A    between atoms: O2_16  and  C12_17 
REMARK    7  A    between atoms: C12_17  and  C13_18 
ROOT
HETATM    1  C8  UNL     1      26.859   4.897  48.956  1.00  0.00     0.041 A 
HETATM    2  C9  UNL     1      26.212   6.118  49.002  1.00  0.00     0.033 A 
HETATM    3  C10 UNL     1      26.845   7.291  48.651  1.00  0.00     0.041 A 
HETATM    4  C11 UNL     1      28.163   7.298  48.235  1.00  0.00     0.091 A 
HETATM    5  C19 UNL     1      28.821   6.083  48.185  1.00  0.00     0.069 A 
HETATM    6 CL1  UNL     1      30.501   5.857  47.685  1.00  0.00    -0.081 Cl
HETATM    7  C20 UNL     1      28.186   4.904  48.538  1.00  0.00     0.056 A 
ENDROOT
BRANCH   1   8
HETATM    8  N2  UNL     1      26.093   3.782  49.341  1.00  0.00    -0.315 N 
HETATM    9  H11 UNL     1      25.393   3.590  48.613  1.00  0.00     0.176 HD
BRANCH   8  10
HETATM   10  C7  UNL     1      26.269   3.063  50.524  1.00  0.00     0.012 C 
HETATM   11  C6  UNL     1      26.437   2.455  51.551  1.00  0.00    -0.063 C 
BRANCH  11  12
HETATM   12  C5  UNL     1      26.636   1.736  52.812  1.00  0.00     0.152 C 
HETATM   13  N1  UNL     1      27.559   0.668  52.580  1.00  0.00    -0.217 NA
HETATM   14  C2  UNL     1      26.840  -0.577  52.663  1.00  0.00     0.106 C 
HETATM   15  C3  UNL     1      25.536  -0.313  53.359  1.00  0.00     0.018 C 
HETATM   16  C4  UNL     1      25.331   1.169  53.252  1.00  0.00     0.034 C 
BRANCH  13  17
HETATM   17  S1  UNL     1      28.878   0.634  53.717  1.00  0.00     0.088 S 
HETATM   18  C1  UNL     1      29.809  -0.886  53.681  1.00  0.00     0.146 C 
HETATM   19  O1  UNL     1      28.494   1.046  55.109  1.00  0.00    -0.242 OA
ENDBRANCH  13  17
ENDBRANCH  11  12
ENDBRANCH   8  10
ENDBRANCH   1   8
BRANCH   4  20
HETATM   20  O2  UNL     1      28.948   8.355  47.852  1.00  0.00    -0.345 OA
BRANCH  20  21
HETATM   21  C12 UNL     1      28.921   8.822  46.537  1.00  0.00     0.214 C 
BRANCH  21  22
HETATM   22  C13 UNL     1      29.908   9.886  46.278  1.00  0.00    -0.031 A 
HETATM   23  C14 UNL     1      29.859  10.577  45.075  1.00  0.00     0.009 A 
HETATM   24  C15 UNL     1      30.732  11.594  44.723  1.00  0.00     0.004 A 
HETATM   25  C16 UNL     1      31.715  11.964  45.596  1.00  0.00     0.042 A 
HETATM   26  C17 UNL     1      31.788  11.303  46.788  1.00  0.00     0.117 A 
HETATM   27  F1  UNL     1      32.763  11.669  47.654  1.00  0.00    -0.206 F 
HETATM   28  C18 UNL     1      30.926  10.295  47.142  1.00  0.00     0.051 A 
ENDBRANCH  21  22
ENDBRANCH  20  21
ENDBRANCH   4  20
TORSDOF 7
ENDMDL
