MODEL 1
REMARK VINA RESULT:      -8.1      0.000      0.000
REMARK  9 active torsions:
REMARK  status: ('A' for Active; 'I' for Inactive)
REMARK    1  A    between atoms: C2_2  and  C3_3 
REMARK    2  A    between atoms: C3_3  and  C4_4 
REMARK    3  A    between atoms: C3_3  and  N3_15 
REMARK    4  A    between atoms: C5_5  and  C6_6 
REMARK    5  A    between atoms: C6_6  and  O1_7 
REMARK    6  A    between atoms: O1_7  and  C7_8 
REMARK    7  A    between atoms: C9_10  and  N1_11 
REMARK       I    between atoms: N3_15  and  C12_16 
REMARK       I    between atoms: C12_16  and  N4_18 
REMARK    8  A    between atoms: N4_18  and  C13_19 
REMARK    9  A    between atoms: C17_24  and  C18_25 
ROOT
HETATM    1  N3  UNL     1      22.265   1.062  51.354  1.00  0.00    -0.335 N 
HETATM    2  C12 UNL     1      23.121   2.167  51.116  1.00  0.00     0.321 C 
HETATM    3  O2  UNL     1      23.269   2.986  52.055  1.00  0.00    -0.247 OA
HETATM    4  N4  UNL     1      23.807   2.395  49.898  1.00  0.00    -0.309 N 
HETATM    5  H18 UNL     1      22.118   0.363  50.602  1.00  0.00     0.164 HD
HETATM    6  H19 UNL     1      23.601   1.645  49.203  1.00  0.00     0.170 HD
ENDROOT
BRANCH   1   7
HETATM    7  C3  UNL     1      21.606   0.913  52.632  1.00  0.00     0.108 C 
BRANCH   7   8
HETATM    8  C2  UNL     1      20.111   0.752  52.440  1.00  0.00     0.025 C 
HETATM    9  C1  UNL     1      19.635  -0.444  53.200  1.00  0.00     0.007 C 
ENDBRANCH   7   8
BRANCH   7  10
HETATM   10  C4  UNL     1      22.247  -0.221  53.319  1.00  0.00    -0.004 C 
HETATM   11  C5  UNL     1      23.466  -0.566  53.709  1.00  0.00    -0.002 C 
BRANCH  11  12
HETATM   12  C6  UNL     1      24.845  -0.089  53.709  1.00  0.00     0.204 C 
BRANCH  12  13
HETATM   13  O1  UNL     1      25.774  -1.040  53.165  1.00  0.00    -0.331 OA
BRANCH  13  14
HETATM   14  C7  UNL     1      27.115  -0.790  53.516  1.00  0.00     0.162 A 
HETATM   15  C8  UNL     1      27.484   0.294  54.219  1.00  0.00     0.071 A 
HETATM   16  C9  UNL     1      28.971   0.263  54.424  1.00  0.00     0.287 A 
HETATM   17  C11 UNL     1      29.322  -0.995  53.724  1.00  0.00     0.132 A 
HETATM   18  N2  UNL     1      28.292  -1.570  53.226  1.00  0.00    -0.239 NA
BRANCH  16  19
HETATM   19  N1  UNL     1      29.601   1.399  53.773  1.00  0.00     0.092 N 
HETATM   20  C10 UNL     1      28.580   2.409  53.593  1.00  0.00     0.308 C 
HETATM   21  H13 UNL     1      29.937   1.027  52.838  1.00  0.00     0.316 HD
ENDBRANCH  16  19
ENDBRANCH  13  14
ENDBRANCH  12  13
ENDBRANCH  11  12
ENDBRANCH   7  10
ENDBRANCH   1   7
BRANCH   4  22
HETATM   22  C13 UNL     1      24.680   3.447  49.540  1.00  0.00     0.037 A 
HETATM   23  C14 UNL     1      26.038   3.229  49.609  1.00  0.00     0.032 A 
HETATM   24  C15 UNL     1      26.952   4.203  49.277  1.00  0.00     0.045 A 
HETATM   25  C16 UNL     1      26.561   5.451  48.857  1.00  0.00     0.128 A 
HETATM   26  F1  UNL     1      27.517   6.359  48.546  1.00  0.00    -0.205 F 
HETATM   27  C17 UNL     1      25.208   5.699  48.777  1.00  0.00     0.053 A 
HETATM   28  C20 UNL     1      24.322   4.704  49.115  1.00  0.00     0.046 A 
BRANCH  27  29
HETATM   29  C18 UNL     1      24.745   7.037  48.326  1.00  0.00     0.270 C 
HETATM   30  C19 UNL     1      24.880   8.048  49.460  1.00  0.00     0.096 C 
HETATM   31  F2  UNL     1      25.368   7.453  47.191  1.00  0.00    -0.201 F 
HETATM   32  F3  UNL     1      23.388   6.888  48.052  1.00  0.00    -0.201 F 
ENDBRANCH  27  29
ENDBRANCH   4  22
TORSDOF 9
ENDMDL
MODEL 2
REMARK VINA RESULT:      -8.0      3.715      6.804
REMARK  9 active torsions:
REMARK  status: ('A' for Active; 'I' for Inactive)
REMARK    1  A    between atoms: C2_2  and  C3_3 
REMARK    2  A    between atoms: C3_3  and  C4_4 
REMARK    3  A    between atoms: C3_3  and  N3_15 
REMARK    4  A    between atoms: C5_5  and  C6_6 
REMARK    5  A    between atoms: C6_6  and  O1_7 
REMARK    6  A    between atoms: O1_7  and  C7_8 
REMARK    7  A    between atoms: C9_10  and  N1_11 
REMARK       I    between atoms: N3_15  and  C12_16 
REMARK       I    between atoms: C12_16  and  N4_18 
REMARK    8  A    between atoms: N4_18  and  C13_19 
REMARK    9  A    between atoms: C17_24  and  C18_25 
ROOT
HETATM    1  N3  UNL     1      24.863   5.536  50.831  1.00  0.00    -0.335 N 
HETATM    2  C12 UNL     1      23.923   4.488  51.004  1.00  0.00     0.321 C 
HETATM    3  O2  UNL     1      23.365   4.047  49.970  1.00  0.00    -0.247 OA
HETATM    4  N4  UNL     1      23.584   3.921  52.256  1.00  0.00    -0.309 N 
HETATM    5  H18 UNL     1      25.345   5.926  51.663  1.00  0.00     0.164 HD
HETATM    6  H19 UNL     1      24.115   4.374  53.032  1.00  0.00     0.170 HD
ENDROOT
BRANCH   1   7
HETATM    7  C3  UNL     1      25.145   6.052  49.511  1.00  0.00     0.108 C 
BRANCH   7   8
HETATM    8  C2  UNL     1      25.274   7.561  49.550  1.00  0.00     0.025 C 
HETATM    9  C1  UNL     1      26.657   7.956  49.139  1.00  0.00     0.007 C 
ENDBRANCH   7   8
BRANCH   7  10
HETATM   10  C4  UNL     1      26.351   5.360  49.025  1.00  0.00    -0.004 C 
HETATM   11  C5  UNL     1      26.924   4.175  49.173  1.00  0.00    -0.002 C 
BRANCH  11  12
HETATM   12  C6  UNL     1      26.752   2.897  49.857  1.00  0.00     0.204 C 
BRANCH  12  13
HETATM   13  O1  UNL     1      26.513   3.035  51.266  1.00  0.00    -0.331 OA
BRANCH  13  14
HETATM   14  C7  UNL     1      27.042   1.983  52.039  1.00  0.00     0.162 A 
HETATM   15  C8  UNL     1      27.912   2.194  53.041  1.00  0.00     0.071 A 
HETATM   16  C9  UNL     1      28.278   0.875  53.659  1.00  0.00     0.287 A 
HETATM   17  C11 UNL     1      27.472  -0.053  52.831  1.00  0.00     0.132 A 
HETATM   18  N2  UNL     1      26.793   0.566  51.940  1.00  0.00    -0.239 NA
BRANCH  16  19
HETATM   19  N1  UNL     1      29.696   0.607  53.489  1.00  0.00     0.092 N 
HETATM   20  C10 UNL     1      29.896  -0.805  53.727  1.00  0.00     0.308 C 
HETATM   21  H13 UNL     1      30.176   1.191  54.233  1.00  0.00     0.316 HD
ENDBRANCH  16  19
ENDBRANCH  13  14
ENDBRANCH  12  13
ENDBRANCH  11  12
ENDBRANCH   7  10
ENDBRANCH   1   7
BRANCH   4  22
HETATM   22  C13 UNL     1      22.672   2.883  52.558  1.00  0.00     0.037 A 
HETATM   23  C14 UNL     1      21.330   3.104  52.345  1.00  0.00     0.032 A 
HETATM   24  C15 UNL     1      20.380   2.144  52.614  1.00  0.00     0.045 A 
HETATM   25  C16 UNL     1      20.720   0.909  53.111  1.00  0.00     0.128 A 
HETATM   26  F1  UNL     1      19.731   0.014  53.352  1.00  0.00    -0.205 F 
HETATM   27  C17 UNL     1      22.056   0.659  53.334  1.00  0.00     0.053 A 
HETATM   28  C20 UNL     1      22.978   1.639  53.054  1.00  0.00     0.046 A 
BRANCH  27  29
HETATM   29  C18 UNL     1      22.462  -0.666  53.870  1.00  0.00     0.270 C 
HETATM   30  C19 UNL     1      23.968  -0.694  54.112  1.00  0.00     0.096 C 
HETATM   31  F2  UNL     1      21.759  -1.022  54.979  1.00  0.00    -0.201 F 
HETATM   32  F3  UNL     1      22.179  -1.579  52.858  1.00  0.00    -0.201 F 
ENDBRANCH  27  29
ENDBRANCH   4  22
TORSDOF 9
ENDMDL
MODEL 3
REMARK VINA RESULT:      -7.9      4.852      8.188
REMARK  9 active torsions:
REMARK  status: ('A' for Active; 'I' for Inactive)
REMARK    1  A    between atoms: C2_2  and  C3_3 
REMARK    2  A    between atoms: C3_3  and  C4_4 
REMARK    3  A    between atoms: C3_3  and  N3_15 
REMARK    4  A    between atoms: C5_5  and  C6_6 
REMARK    5  A    between atoms: C6_6  and  O1_7 
REMARK    6  A    between atoms: O1_7  and  C7_8 
REMARK    7  A    between atoms: C9_10  and  N1_11 
REMARK       I    between atoms: N3_15  and  C12_16 
REMARK       I    between atoms: C12_16  and  N4_18 
REMARK    8  A    between atoms: N4_18  and  C13_19 
REMARK    9  A    between atoms: C17_24  and  C18_25 
ROOT
HETATM    1  N3  UNL     1      26.019   4.710  50.426  1.00  0.00    -0.335 N 
HETATM    2  C12 UNL     1      25.236   3.577  50.765  1.00  0.00     0.321 C 
HETATM    3  O2  UNL     1      24.692   2.958  49.819  1.00  0.00    -0.247 OA
HETATM    4  N4  UNL     1      25.037   3.113  52.087  1.00  0.00    -0.309 N 
HETATM    5  H18 UNL     1      26.485   5.248  51.181  1.00  0.00     0.164 HD
HETATM    6  H19 UNL     1      25.541   3.712  52.777  1.00  0.00     0.170 HD
ENDROOT
BRANCH   1   7
HETATM    7  C3  UNL     1      26.165   5.110  49.045  1.00  0.00     0.108 C 
BRANCH   7   8
HETATM    8  C2  UNL     1      25.729   6.549  48.862  1.00  0.00     0.025 C 
HETATM    9  C1  UNL     1      25.774   7.257  50.178  1.00  0.00     0.007 C 
ENDBRANCH   7   8
BRANCH   7  10
HETATM   10  C4  UNL     1      27.565   4.855  48.667  1.00  0.00    -0.004 C 
HETATM   11  C5  UNL     1      28.604   5.555  48.236  1.00  0.00    -0.002 C 
BRANCH  11  12
HETATM   12  C6  UNL     1      29.003   6.915  47.886  1.00  0.00     0.204 C 
BRANCH  12  13
HETATM   13  O1  UNL     1      30.154   6.965  47.028  1.00  0.00    -0.331 OA
BRANCH  13  14
HETATM   14  C7  UNL     1      31.311   6.396  47.595  1.00  0.00     0.162 A 
HETATM   15  C8  UNL     1      32.012   5.429  46.978  1.00  0.00     0.071 A 
HETATM   16  C9  UNL     1      33.179   5.044  47.841  1.00  0.00     0.287 A 
HETATM   17  C11 UNL     1      32.982   5.950  48.997  1.00  0.00     0.132 A 
HETATM   18  N2  UNL     1      31.949   6.692  48.853  1.00  0.00    -0.239 NA
BRANCH  16  19
HETATM   19  N1  UNL     1      33.070   3.656  48.259  1.00  0.00     0.092 N 
HETATM   20  C10 UNL     1      32.642   2.895  47.106  1.00  0.00     0.308 C 
HETATM   21  H13 UNL     1      32.324   3.656  49.014  1.00  0.00     0.316 HD
ENDBRANCH  16  19
ENDBRANCH  13  14
ENDBRANCH  12  13
ENDBRANCH  11  12
ENDBRANCH   7  10
ENDBRANCH   1   7
BRANCH   4  22
HETATM   22  C13 UNL     1      24.288   2.008  52.551  1.00  0.00     0.037 A 
HETATM   23  C14 UNL     1      24.952   0.839  52.847  1.00  0.00     0.032 A 
HETATM   24  C15 UNL     1      24.293  -0.281  53.303  1.00  0.00     0.045 A 
HETATM   25  C16 UNL     1      22.933  -0.295  53.488  1.00  0.00     0.128 A 
HETATM   26  F1  UNL     1      22.353  -1.433  53.940  1.00  0.00    -0.205 F 
HETATM   27  C17 UNL     1      22.240   0.861  53.201  1.00  0.00     0.053 A 
HETATM   28  C20 UNL     1      22.929   1.961  52.748  1.00  0.00     0.046 A 
BRANCH  27  29
HETATM   29  C18 UNL     1      20.766   0.885  53.389  1.00  0.00     0.270 C 
HETATM   30  C19 UNL     1      20.082   0.100  52.275  1.00  0.00     0.096 C 
HETATM   31  F2  UNL     1      20.388   0.457  54.624  1.00  0.00    -0.201 F 
HETATM   32  F3  UNL     1      20.396   2.220  53.255  1.00  0.00    -0.201 F 
ENDBRANCH  27  29
ENDBRANCH   4  22
TORSDOF 9
ENDMDL
MODEL 4
REMARK VINA RESULT:      -7.9      4.718      8.016
REMARK  9 active torsions:
REMARK  status: ('A' for Active; 'I' for Inactive)
REMARK    1  A    between atoms: C2_2  and  C3_3 
REMARK    2  A    between atoms: C3_3  and  C4_4 
REMARK    3  A    between atoms: C3_3  and  N3_15 
REMARK    4  A    between atoms: C5_5  and  C6_6 
REMARK    5  A    between atoms: C6_6  and  O1_7 
REMARK    6  A    between atoms: O1_7  and  C7_8 
REMARK    7  A    between atoms: C9_10  and  N1_11 
REMARK       I    between atoms: N3_15  and  C12_16 
REMARK       I    between atoms: C12_16  and  N4_18 
REMARK    8  A    between atoms: N4_18  and  C13_19 
REMARK    9  A    between atoms: C17_24  and  C18_25 
ROOT
HETATM    1  N3  UNL     1      25.350   5.214  50.097  1.00  0.00    -0.335 N 
HETATM    2  C12 UNL     1      25.984   3.982  50.399  1.00  0.00     0.321 C 
HETATM    3  O2  UNL     1      26.659   3.450  49.485  1.00  0.00    -0.247 OA
HETATM    4  N4  UNL     1      25.900   3.329  51.652  1.00  0.00    -0.309 N 
HETATM    5  H18 UNL     1      24.784   5.685  50.827  1.00  0.00     0.164 HD
HETATM    6  H19 UNL     1      25.313   3.872  52.322  1.00  0.00     0.170 HD
ENDROOT
BRANCH   1   7
HETATM    7  C3  UNL     1      25.493   5.806  48.786  1.00  0.00     0.108 C 
BRANCH   7   8
HETATM    8  C2  UNL     1      24.145   6.253  48.258  1.00  0.00     0.025 C 
HETATM    9  C1  UNL     1      23.362   6.889  49.361  1.00  0.00     0.007 C 
ENDBRANCH   7   8
BRANCH   7  10
HETATM   10  C4  UNL     1      26.479   6.893  48.908  1.00  0.00    -0.004 C 
HETATM   11  C5  UNL     1      27.723   7.132  48.519  1.00  0.00    -0.002 C 
BRANCH  11  12
HETATM   12  C6  UNL     1      28.829   6.527  47.784  1.00  0.00     0.204 C 
BRANCH  12  13
HETATM   13  O1  UNL     1      29.421   5.411  48.467  1.00  0.00    -0.331 OA
BRANCH  13  14
HETATM   14  C7  UNL     1      30.828   5.398  48.423  1.00  0.00     0.162 A 
HETATM   15  C8  UNL     1      31.513   4.631  47.557  1.00  0.00     0.071 A 
HETATM   16  C9  UNL     1      32.984   4.848  47.767  1.00  0.00     0.287 A 
HETATM   17  C11 UNL     1      32.965   5.838  48.869  1.00  0.00     0.132 A 
HETATM   18  N2  UNL     1      31.771   6.136  49.225  1.00  0.00    -0.239 NA
BRANCH  16  19
HETATM   19  N1  UNL     1      33.625   3.618  48.201  1.00  0.00     0.092 N 
HETATM   20  C10 UNL     1      33.100   2.549  47.380  1.00  0.00     0.308 C 
HETATM   21  H13 UNL     1      33.332   3.500  49.214  1.00  0.00     0.316 HD
ENDBRANCH  16  19
ENDBRANCH  13  14
ENDBRANCH  12  13
ENDBRANCH  11  12
ENDBRANCH   7  10
ENDBRANCH   1   7
BRANCH   4  22
HETATM   22  C13 UNL     1      26.480   2.111  52.074  1.00  0.00     0.037 A 
HETATM   23  C14 UNL     1      25.937   0.931  51.617  1.00  0.00     0.032 A 
HETATM   24  C15 UNL     1      26.445  -0.296  51.982  1.00  0.00     0.045 A 
HETATM   25  C16 UNL     1      27.523  -0.412  52.824  1.00  0.00     0.128 A 
HETATM   26  F1  UNL     1      27.968  -1.652  53.140  1.00  0.00    -0.205 F 
HETATM   27  C17 UNL     1      28.088   0.752  53.297  1.00  0.00     0.053 A 
HETATM   28  C20 UNL     1      27.557   1.960  52.913  1.00  0.00     0.046 A 
BRANCH  27  29
HETATM   29  C18 UNL     1      29.257   0.668  54.211  1.00  0.00     0.270 C 
HETATM   30  C19 UNL     1      29.717   2.068  54.605  1.00  0.00     0.096 C 
HETATM   31  F2  UNL     1      29.021  -0.118  55.295  1.00  0.00    -0.201 F 
HETATM   32  F3  UNL     1      30.274   0.084  53.459  1.00  0.00    -0.201 F 
ENDBRANCH  27  29
ENDBRANCH   4  22
TORSDOF 9
ENDMDL
MODEL 5
REMARK VINA RESULT:      -7.9      1.608      2.731
REMARK  9 active torsions:
REMARK  status: ('A' for Active; 'I' for Inactive)
REMARK    1  A    between atoms: C2_2  and  C3_3 
REMARK    2  A    between atoms: C3_3  and  C4_4 
REMARK    3  A    between atoms: C3_3  and  N3_15 
REMARK    4  A    between atoms: C5_5  and  C6_6 
REMARK    5  A    between atoms: C6_6  and  O1_7 
REMARK    6  A    between atoms: O1_7  and  C7_8 
REMARK    7  A    between atoms: C9_10  and  N1_11 
REMARK       I    between atoms: N3_15  and  C12_16 
REMARK       I    between atoms: C12_16  and  N4_18 
REMARK    8  A    between atoms: N4_18  and  C13_19 
REMARK    9  A    between atoms: C17_24  and  C18_25 
ROOT
HETATM    1  N3  UNL     1      21.145  -0.078  51.977  1.00  0.00    -0.335 N 
HETATM    2  C12 UNL     1      21.502   1.192  51.459  1.00  0.00     0.321 C 
HETATM    3  O2  UNL     1      21.001   2.198  52.019  1.00  0.00    -0.247 OA
HETATM    4  N4  UNL     1      22.378   1.389  50.363  1.00  0.00    -0.309 N 
HETATM    5  H18 UNL     1      21.539  -0.933  51.541  1.00  0.00     0.164 HD
HETATM    6  H19 UNL     1      22.724   0.478  49.990  1.00  0.00     0.170 HD
ENDROOT
BRANCH   1   7
HETATM    7  C3  UNL     1      20.242  -0.180  53.101  1.00  0.00     0.108 C 
BRANCH   7   8
HETATM    8  C2  UNL     1      18.828  -0.437  52.621  1.00  0.00     0.025 C 
HETATM    9  C1  UNL     1      18.219  -1.538  53.429  1.00  0.00     0.007 C 
ENDBRANCH   7   8
BRANCH   7  10
HETATM   10  C4  UNL     1      20.773  -1.228  53.989  1.00  0.00    -0.004 C 
HETATM   11  C5  UNL     1      21.919  -1.510  54.592  1.00  0.00    -0.002 C 
BRANCH  11  12
HETATM   12  C6  UNL     1      23.281  -1.011  54.752  1.00  0.00     0.204 C 
BRANCH  12  13
HETATM   13  O1  UNL     1      23.923  -0.703  53.505  1.00  0.00    -0.331 OA
BRANCH  13  14
HETATM   14  C7  UNL     1      25.308  -0.475  53.619  1.00  0.00     0.162 A 
HETATM   15  C8  UNL     1      26.187  -0.917  52.703  1.00  0.00     0.071 A 
HETATM   16  C9  UNL     1      27.572  -0.509  53.116  1.00  0.00     0.287 A 
HETATM   17  C11 UNL     1      27.286   0.208  54.381  1.00  0.00     0.132 A 
HETATM   18  N2  UNL     1      26.034   0.222  54.651  1.00  0.00    -0.239 NA
BRANCH  16  19
HETATM   19  N1  UNL     1      28.394  -1.680  53.371  1.00  0.00     0.092 N 
HETATM   20  C10 UNL     1      29.712  -1.206  53.734  1.00  0.00     0.308 C 
HETATM   21  H13 UNL     1      28.419  -2.203  52.448  1.00  0.00     0.316 HD
ENDBRANCH  16  19
ENDBRANCH  13  14
ENDBRANCH  12  13
ENDBRANCH  11  12
ENDBRANCH   7  10
ENDBRANCH   1   7
BRANCH   4  22
HETATM   22  C13 UNL     1      22.808   2.591  49.759  1.00  0.00     0.037 A 
HETATM   23  C14 UNL     1      21.920   3.286  48.969  1.00  0.00     0.032 A 
HETATM   24  C15 UNL     1      22.263   4.465  48.345  1.00  0.00     0.045 A 
HETATM   25  C16 UNL     1      23.514   5.015  48.477  1.00  0.00     0.128 A 
HETATM   26  F1  UNL     1      23.782   6.178  47.834  1.00  0.00    -0.205 F 
HETATM   27  C17 UNL     1      24.425   4.343  49.262  1.00  0.00     0.053 A 
HETATM   28  C20 UNL     1      24.050   3.169  49.870  1.00  0.00     0.046 A 
BRANCH  27  29
HETATM   29  C18 UNL     1      25.790   4.907  49.429  1.00  0.00     0.270 C 
HETATM   30  C19 UNL     1      26.741   3.834  49.948  1.00  0.00     0.096 C 
HETATM   31  F2  UNL     1      26.255   5.501  48.297  1.00  0.00    -0.201 F 
HETATM   32  F3  UNL     1      25.670   5.881  50.417  1.00  0.00    -0.201 F 
ENDBRANCH  27  29
ENDBRANCH   4  22
TORSDOF 9
ENDMDL
MODEL 6
REMARK VINA RESULT:      -7.9      5.178      8.177
REMARK  9 active torsions:
REMARK  status: ('A' for Active; 'I' for Inactive)
REMARK    1  A    between atoms: C2_2  and  C3_3 
REMARK    2  A    between atoms: C3_3  and  C4_4 
REMARK    3  A    between atoms: C3_3  and  N3_15 
REMARK    4  A    between atoms: C5_5  and  C6_6 
REMARK    5  A    between atoms: C6_6  and  O1_7 
REMARK    6  A    between atoms: O1_7  and  C7_8 
REMARK    7  A    between atoms: C9_10  and  N1_11 
REMARK       I    between atoms: N3_15  and  C12_16 
REMARK       I    between atoms: C12_16  and  N4_18 
REMARK    8  A    between atoms: N4_18  and  C13_19 
REMARK    9  A    between atoms: C17_24  and  C18_25 
ROOT
HETATM    1  N3  UNL     1      25.970   5.352  50.039  1.00  0.00    -0.335 N 
HETATM    2  C12 UNL     1      25.857   3.969  50.334  1.00  0.00     0.321 C 
HETATM    3  O2  UNL     1      25.764   3.184  49.359  1.00  0.00    -0.247 OA
HETATM    4  N4  UNL     1      25.846   3.432  51.644  1.00  0.00    -0.309 N 
HETATM    5  H18 UNL     1      26.050   6.031  50.819  1.00  0.00     0.164 HD
HETATM    6  H19 UNL     1      25.931   4.185  52.361  1.00  0.00     0.170 HD
ENDROOT
BRANCH   1   7
HETATM    7  C3  UNL     1      25.972   5.807  48.667  1.00  0.00     0.108 C 
BRANCH   7   8
HETATM    8  C2  UNL     1      24.658   6.484  48.333  1.00  0.00     0.025 C 
HETATM    9  C1  UNL     1      24.898   7.582  47.347  1.00  0.00     0.007 C 
ENDBRANCH   7   8
BRANCH   7  10
HETATM   10  C4  UNL     1      27.151   6.674  48.502  1.00  0.00    -0.004 C 
HETATM   11  C5  UNL     1      28.446   6.527  48.264  1.00  0.00    -0.002 C 
BRANCH  11  12
HETATM   12  C6  UNL     1      29.459   5.501  48.033  1.00  0.00     0.204 C 
BRANCH  12  13
HETATM   13  O1  UNL     1      30.394   5.375  49.115  1.00  0.00    -0.331 OA
BRANCH  13  14
HETATM   14  C7  UNL     1      31.734   5.584  48.736  1.00  0.00     0.162 A 
HETATM   15  C8  UNL     1      32.397   4.729  47.938  1.00  0.00     0.071 A 
HETATM   16  C9  UNL     1      33.794   5.239  47.728  1.00  0.00     0.287 A 
HETATM   17  C11 UNL     1      33.762   6.481  48.535  1.00  0.00     0.132 A 
HETATM   18  N2  UNL     1      32.622   6.664  49.087  1.00  0.00    -0.239 NA
BRANCH  16  19
HETATM   19  N1  UNL     1      34.765   4.305  48.273  1.00  0.00     0.092 N 
HETATM   20  C10 UNL     1      34.374   2.981  47.842  1.00  0.00     0.308 C 
HETATM   21  H13 UNL     1      34.679   4.404  49.326  1.00  0.00     0.316 HD
ENDBRANCH  16  19
ENDBRANCH  13  14
ENDBRANCH  12  13
ENDBRANCH  11  12
ENDBRANCH   7  10
ENDBRANCH   1   7
BRANCH   4  22
HETATM   22  C13 UNL     1      25.741   2.087  52.065  1.00  0.00     0.037 A 
HETATM   23  C14 UNL     1      26.856   1.283  51.983  1.00  0.00     0.032 A 
HETATM   24  C15 UNL     1      26.834  -0.038  52.374  1.00  0.00     0.045 A 
HETATM   25  C16 UNL     1      25.697  -0.628  52.868  1.00  0.00     0.128 A 
HETATM   26  F1  UNL     1      25.750  -1.932  53.232  1.00  0.00    -0.205 F 
HETATM   27  C17 UNL     1      24.566   0.153  52.962  1.00  0.00     0.053 A 
HETATM   28  C20 UNL     1      24.622   1.467  52.564  1.00  0.00     0.046 A 
BRANCH  27  29
HETATM   29  C18 UNL     1      23.315  -0.451  53.493  1.00  0.00     0.270 C 
HETATM   30  C19 UNL     1      22.205   0.595  53.533  1.00  0.00     0.096 C 
HETATM   31  F2  UNL     1      22.942  -1.569  52.814  1.00  0.00    -0.201 F 
HETATM   32  F3  UNL     1      23.605  -0.810  54.806  1.00  0.00    -0.201 F 
ENDBRANCH  27  29
ENDBRANCH   4  22
TORSDOF 9
ENDMDL
MODEL 7
REMARK VINA RESULT:      -7.5      5.102      8.715
REMARK  9 active torsions:
REMARK  status: ('A' for Active; 'I' for Inactive)
REMARK    1  A    between atoms: C2_2  and  C3_3 
REMARK    2  A    between atoms: C3_3  and  C4_4 
REMARK    3  A    between atoms: C3_3  and  N3_15 
REMARK    4  A    between atoms: C5_5  and  C6_6 
REMARK    5  A    between atoms: C6_6  and  O1_7 
REMARK    6  A    between atoms: O1_7  and  C7_8 
REMARK    7  A    between atoms: C9_10  and  N1_11 
REMARK       I    between atoms: N3_15  and  C12_16 
REMARK       I    between atoms: C12_16  and  N4_18 
REMARK    8  A    between atoms: N4_18  and  C13_19 
REMARK    9  A    between atoms: C17_24  and  C18_25 
ROOT
HETATM    1  N3  UNL     1      25.280   5.183  50.039  1.00  0.00    -0.335 N 
HETATM    2  C12 UNL     1      25.884   3.943  50.372  1.00  0.00     0.321 C 
HETATM    3  O2  UNL     1      26.538   3.368  49.468  1.00  0.00    -0.247 OA
HETATM    4  N4  UNL     1      25.794   3.330  51.644  1.00  0.00    -0.309 N 
HETATM    5  H18 UNL     1      24.732   5.689  50.759  1.00  0.00     0.164 HD
HETATM    6  H19 UNL     1      25.227   3.907  52.302  1.00  0.00     0.170 HD
ENDROOT
BRANCH   1   7
HETATM    7  C3  UNL     1      25.428   5.732  48.710  1.00  0.00     0.108 C 
BRANCH   7   8
HETATM    8  C2  UNL     1      24.107   6.289  48.219  1.00  0.00     0.025 C 
HETATM    9  C1  UNL     1      23.058   5.225  48.291  1.00  0.00     0.007 C 
ENDBRANCH   7   8
BRANCH   7  10
HETATM   10  C4  UNL     1      26.511   6.728  48.772  1.00  0.00    -0.004 C 
HETATM   11  C5  UNL     1      27.813   6.771  48.531  1.00  0.00    -0.002 C 
BRANCH  11  12
HETATM   12  C6  UNL     1      28.924   5.935  48.087  1.00  0.00     0.204 C 
BRANCH  12  13
HETATM   13  O1  UNL     1      30.197   6.367  48.593  1.00  0.00    -0.331 OA
BRANCH  13  14
HETATM   14  C7  UNL     1      30.467   7.731  48.362  1.00  0.00     0.162 A 
HETATM   15  C8  UNL     1      30.912   8.548  49.332  1.00  0.00     0.071 A 
HETATM   16  C9  UNL     1      31.100   9.925  48.763  1.00  0.00     0.287 A 
HETATM   17  C11 UNL     1      30.686   9.705  47.358  1.00  0.00     0.132 A 
HETATM   18  N2  UNL     1      30.338   8.491  47.145  1.00  0.00    -0.239 NA
BRANCH  16  19
HETATM   19  N1  UNL     1      30.208  10.872  49.413  1.00  0.00     0.092 N 
HETATM   20  C10 UNL     1      30.664  12.199  49.061  1.00  0.00     0.308 C 
HETATM   21  H13 UNL     1      30.328  10.691  50.451  1.00  0.00     0.316 HD
ENDBRANCH  16  19
ENDBRANCH  13  14
ENDBRANCH  12  13
ENDBRANCH  11  12
ENDBRANCH   7  10
ENDBRANCH   1   7
BRANCH   4  22
HETATM   22  C13 UNL     1      26.345   2.109  52.097  1.00  0.00     0.037 A 
HETATM   23  C14 UNL     1      25.744   0.932  51.712  1.00  0.00     0.032 A 
HETATM   24  C15 UNL     1      26.221  -0.296  52.111  1.00  0.00     0.045 A 
HETATM   25  C16 UNL     1      27.326  -0.417  52.918  1.00  0.00     0.128 A 
HETATM   26  F1  UNL     1      27.738  -1.658  53.270  1.00  0.00    -0.205 F 
HETATM   27  C17 UNL     1      27.949   0.744  53.319  1.00  0.00     0.053 A 
HETATM   28  C20 UNL     1      27.448   1.954  52.902  1.00  0.00     0.046 A 
BRANCH  27  29
HETATM   29  C18 UNL     1      29.148   0.655  54.192  1.00  0.00     0.270 C 
HETATM   30  C19 UNL     1      30.219  -0.204  53.526  1.00  0.00     0.096 C 
HETATM   31  F2  UNL     1      29.624   1.875  54.558  1.00  0.00    -0.201 F 
HETATM   32  F3  UNL     1      28.724  -0.012  55.339  1.00  0.00    -0.201 F 
ENDBRANCH  27  29
ENDBRANCH   4  22
TORSDOF 9
ENDMDL
MODEL 8
REMARK VINA RESULT:      -7.4      4.455      8.332
REMARK  9 active torsions:
REMARK  status: ('A' for Active; 'I' for Inactive)
REMARK    1  A    between atoms: C2_2  and  C3_3 
REMARK    2  A    between atoms: C3_3  and  C4_4 
REMARK    3  A    between atoms: C3_3  and  N3_15 
REMARK    4  A    between atoms: C5_5  and  C6_6 
REMARK    5  A    between atoms: C6_6  and  O1_7 
REMARK    6  A    between atoms: O1_7  and  C7_8 
REMARK    7  A    between atoms: C9_10  and  N1_11 
REMARK       I    between atoms: N3_15  and  C12_16 
REMARK       I    between atoms: C12_16  and  N4_18 
REMARK    8  A    between atoms: N4_18  and  C13_19 
REMARK    9  A    between atoms: C17_24  and  C18_25 
ROOT
HETATM    1  N3  UNL     1      24.660   3.943  49.881  1.00  0.00    -0.335 N 
HETATM    2  C12 UNL     1      24.411   3.186  51.054  1.00  0.00     0.321 C 
HETATM    3  O2  UNL     1      24.584   3.766  52.154  1.00  0.00    -0.247 OA
HETATM    4  N4  UNL     1      23.985   1.836  51.056  1.00  0.00    -0.309 N 
HETATM    5  H18 UNL     1      24.527   3.498  48.953  1.00  0.00     0.164 HD
HETATM    6  H19 UNL     1      23.879   1.473  50.084  1.00  0.00     0.170 HD
ENDROOT
BRANCH   1   7
HETATM    7  C3  UNL     1      25.093   5.318  49.979  1.00  0.00     0.108 C 
BRANCH   7   8
HETATM    8  C2  UNL     1      26.113   5.629  48.902  1.00  0.00     0.025 C 
HETATM    9  C1  UNL     1      27.187   4.589  48.915  1.00  0.00     0.007 C 
ENDBRANCH   7   8
BRANCH   7  10
HETATM   10  C4  UNL     1      23.884   6.157  49.920  1.00  0.00    -0.004 C 
HETATM   11  C5  UNL     1      22.819   6.283  49.142  1.00  0.00    -0.002 C 
BRANCH  11  12
HETATM   12  C6  UNL     1      22.203   5.722  47.944  1.00  0.00     0.204 C 
BRANCH  12  13
HETATM   13  O1  UNL     1      22.763   4.457  47.559  1.00  0.00    -0.331 OA
BRANCH  13  14
HETATM   14  C7  UNL     1      22.029   3.346  48.020  1.00  0.00     0.162 A 
HETATM   15  C8  UNL     1      20.734   3.436  48.369  1.00  0.00     0.071 A 
HETATM   16  C9  UNL     1      20.252   2.084  48.812  1.00  0.00     0.287 A 
HETATM   17  C11 UNL     1      21.485   1.280  48.645  1.00  0.00     0.132 A 
HETATM   18  N2  UNL     1      22.461   1.984  48.208  1.00  0.00    -0.239 NA
BRANCH  16  19
HETATM   19  N1  UNL     1      19.853   2.118  50.210  1.00  0.00     0.092 N 
HETATM   20  C10 UNL     1      19.161   3.370  50.427  1.00  0.00     0.308 C 
HETATM   21  H13 UNL     1      20.763   2.086  50.755  1.00  0.00     0.316 HD
ENDBRANCH  16  19
ENDBRANCH  13  14
ENDBRANCH  12  13
ENDBRANCH  11  12
ENDBRANCH   7  10
ENDBRANCH   1   7
BRANCH   4  22
HETATM   22  C13 UNL     1      23.706   0.981  52.146  1.00  0.00     0.037 A 
HETATM   23  C14 UNL     1      24.760   0.385  52.802  1.00  0.00     0.032 A 
HETATM   24  C15 UNL     1      24.570  -0.461  53.873  1.00  0.00     0.045 A 
HETATM   25  C16 UNL     1      23.316  -0.757  54.347  1.00  0.00     0.128 A 
HETATM   26  F1  UNL     1      23.205  -1.597  55.404  1.00  0.00    -0.205 F 
HETATM   27  C17 UNL     1      22.242  -0.176  53.711  1.00  0.00     0.053 A 
HETATM   28  C20 UNL     1      22.466   0.664  52.646  1.00  0.00     0.046 A 
BRANCH  27  29
HETATM   29  C18 UNL     1      20.868  -0.472  54.196  1.00  0.00     0.270 C 
HETATM   30  C19 UNL     1      19.847  -0.143  53.112  1.00  0.00     0.096 C 
HETATM   31  F2  UNL     1      20.737  -1.746  54.654  1.00  0.00    -0.201 F 
HETATM   32  F3  UNL     1      20.653   0.401  55.259  1.00  0.00    -0.201 F 
ENDBRANCH  27  29
ENDBRANCH   4  22
TORSDOF 9
ENDMDL
MODEL 9
REMARK VINA RESULT:      -7.4      5.147      8.381
REMARK  9 active torsions:
REMARK  status: ('A' for Active; 'I' for Inactive)
REMARK    1  A    between atoms: C2_2  and  C3_3 
REMARK    2  A    between atoms: C3_3  and  C4_4 
REMARK    3  A    between atoms: C3_3  and  N3_15 
REMARK    4  A    between atoms: C5_5  and  C6_6 
REMARK    5  A    between atoms: C6_6  and  O1_7 
REMARK    6  A    between atoms: O1_7  and  C7_8 
REMARK    7  A    between atoms: C9_10  and  N1_11 
REMARK       I    between atoms: N3_15  and  C12_16 
REMARK       I    between atoms: C12_16  and  N4_18 
REMARK    8  A    between atoms: N4_18  and  C13_19 
REMARK    9  A    between atoms: C17_24  and  C18_25 
ROOT
HETATM    1  N3  UNL     1      25.496   5.927  49.842  1.00  0.00    -0.335 N 
HETATM    2  C12 UNL     1      25.283   4.576  50.218  1.00  0.00     0.321 C 
HETATM    3  O2  UNL     1      25.392   3.711  49.315  1.00  0.00    -0.247 OA
HETATM    4  N4  UNL     1      24.962   4.155  51.531  1.00  0.00    -0.309 N 
HETATM    5  H18 UNL     1      25.416   6.671  50.561  1.00  0.00     0.164 HD
HETATM    6  H19 UNL     1      24.902   4.967  52.183  1.00  0.00     0.170 HD
ENDROOT
BRANCH   1   7
HETATM    7  C3  UNL     1      25.821   6.262  48.474  1.00  0.00     0.108 C 
BRANCH   7   8
HETATM    8  C2  UNL     1      24.723   7.107  47.862  1.00  0.00     0.025 C 
HETATM    9  C1  UNL     1      25.296   8.406  47.392  1.00  0.00     0.007 C 
ENDBRANCH   7   8
BRANCH   7  10
HETATM   10  C4  UNL     1      27.141   6.914  48.491  1.00  0.00    -0.004 C 
HETATM   11  C5  UNL     1      28.410   6.556  48.355  1.00  0.00    -0.002 C 
BRANCH  11  12
HETATM   12  C6  UNL     1      29.251   5.386  48.122  1.00  0.00     0.204 C 
BRANCH  12  13
HETATM   13  O1  UNL     1      30.520   5.458  48.792  1.00  0.00    -0.331 OA
BRANCH  13  14
HETATM   14  C7  UNL     1      31.621   5.533  47.917  1.00  0.00     0.162 A 
HETATM   15  C8  UNL     1      32.784   4.909  48.172  1.00  0.00     0.071 A 
HETATM   16  C9  UNL     1      33.744   5.187  47.051  1.00  0.00     0.287 A 
HETATM   17  C11 UNL     1      32.912   6.047  46.178  1.00  0.00     0.132 A 
HETATM   18  N2  UNL     1      31.742   6.233  46.663  1.00  0.00    -0.239 NA
BRANCH  16  19
HETATM   19  N1  UNL     1      34.899   5.924  47.539  1.00  0.00     0.092 N 
HETATM   20  C10 UNL     1      35.139   5.492  48.898  1.00  0.00     0.308 C 
HETATM   21  H13 UNL     1      34.605   6.943  47.509  1.00  0.00     0.316 HD
ENDBRANCH  16  19
ENDBRANCH  13  14
ENDBRANCH  12  13
ENDBRANCH  11  12
ENDBRANCH   7  10
ENDBRANCH   1   7
BRANCH   4  22
HETATM   22  C13 UNL     1      24.728   2.853  52.027  1.00  0.00     0.037 A 
HETATM   23  C14 UNL     1      23.427   2.438  52.202  1.00  0.00     0.032 A 
HETATM   24  C15 UNL     1      23.117   1.185  52.681  1.00  0.00     0.045 A 
HETATM   25  C16 UNL     1      24.092   0.276  53.012  1.00  0.00     0.128 A 
HETATM   26  F1  UNL     1      23.713  -0.939  53.477  1.00  0.00    -0.205 F 
HETATM   27  C17 UNL     1      25.404   0.662  52.848  1.00  0.00     0.053 A 
HETATM   28  C20 UNL     1      25.678   1.920  52.367  1.00  0.00     0.046 A 
BRANCH  27  29
HETATM   29  C18 UNL     1      26.487  -0.295  53.195  1.00  0.00     0.270 C 
HETATM   30  C19 UNL     1      26.839  -0.174  54.674  1.00  0.00     0.096 C 
HETATM   31  F2  UNL     1      26.190  -1.575  52.841  1.00  0.00    -0.201 F 
HETATM   32  F3  UNL     1      27.596   0.117  52.461  1.00  0.00    -0.201 F 
ENDBRANCH  27  29
ENDBRANCH   4  22
TORSDOF 9
ENDMDL
