MODEL 1
REMARK VINA RESULT:      -7.9      0.000      0.000
REMARK  8 active torsions:
REMARK  status: ('A' for Active; 'I' for Inactive)
REMARK    1  A    between atoms: C2_2  and  C3_3 
REMARK    2  A    between atoms: C2_2  and  C11_12 
REMARK    3  A    between atoms: C3_3  and  C4_4 
REMARK    4  A    between atoms: C4_4  and  N1_5 
REMARK    5  A    between atoms: N1_5  and  C5_6 
REMARK    6  A    between atoms: N1_5  and  C8_9 
REMARK    7  A    between atoms: C14_15  and  N2_16 
REMARK    8  A    between atoms: N2_16  and  C15_17 
ROOT
HETATM    1  C11 UNL     1      22.962   2.909  51.113  1.00  0.00     0.039 A 
HETATM    2  C12 UNL     1      23.474   2.565  52.282  1.00  0.00     0.042 A 
HETATM    3  C13 UNL     1      24.929   2.649  52.298  1.00  0.00     0.011 A 
HETATM    4  C14 UNL     1      25.631   2.353  53.353  1.00  0.00     0.102 C 
HETATM    5  C20 UNL     1      25.672   3.072  51.119  1.00  0.00     0.077 A 
HETATM    6  N3  UNL     1      26.947   3.193  50.983  1.00  0.00    -0.298 NA
HETATM    7  C21 UNL     1      24.940   3.424  49.883  1.00  0.00     0.148 A 
HETATM    8  N4  UNL     1      23.634   3.326  49.938  1.00  0.00    -0.263 NA
HETATM    9  H29 UNL     1      27.632   2.993  51.741  1.00  0.00     0.187 HD
ENDROOT
BRANCH   1  10
HETATM   10  C2  UNL     1      21.492   2.861  50.982  1.00  0.00     0.035 C 
HETATM   11  C1  UNL     1      20.809   3.454  52.220  1.00  0.00     0.016 C 
BRANCH  10  12
HETATM   12  C3  UNL     1      20.964   1.444  50.882  1.00  0.00     0.030 C 
BRANCH  12  13
HETATM   13  C4  UNL     1      20.063   1.257  52.098  1.00  0.00     0.118 C 
BRANCH  13  14
HETATM   14  N1  UNL     1      19.869  -0.108  52.415  1.00  0.00    -0.405 N 
BRANCH  14  15
HETATM   15  C5  UNL     1      20.550  -0.563  53.577  1.00  0.00     0.071 C 
HETATM   16  C6  UNL     1      21.892  -1.185  53.329  1.00  0.00     0.031 C 
HETATM   17  C7  UNL     1      20.752   0.559  54.567  1.00  0.00     0.031 C 
ENDBRANCH  14  15
BRANCH  14  18
HETATM   18  C8  UNL     1      18.590  -0.659  52.178  1.00  0.00     0.071 C 
HETATM   19  C9  UNL     1      17.636   0.477  51.862  1.00  0.00     0.031 C 
HETATM   20  C10 UNL     1      17.991  -1.462  53.298  1.00  0.00     0.031 C 
ENDBRANCH  14  18
ENDBRANCH  13  14
ENDBRANCH  12  13
ENDBRANCH  10  12
ENDBRANCH   1  10
BRANCH   4  21
HETATM   21  N2  UNL     1      26.938   2.262  53.886  1.00  0.00    -0.367 N 
HETATM   22  H25 UNL     1      27.186   3.171  54.374  1.00  0.00     0.165 HD
BRANCH  21  23
HETATM   23  C15 UNL     1      27.850   1.170  53.829  1.00  0.00     0.034 A 
HETATM   24  C16 UNL     1      29.088   1.138  54.286  1.00  0.00     0.029 A 
HETATM   25  C17 UNL     1      29.592  -0.211  53.980  1.00  0.00     0.042 A 
HETATM   26  C18 UNL     1      28.667  -0.951  53.356  1.00  0.00     0.118 A 
HETATM   27  F1  UNL     1      28.750  -2.242  52.911  1.00  0.00    -0.209 F 
HETATM   28  C19 UNL     1      27.456  -0.129  53.200  1.00  0.00     0.193 A 
HETATM   29 CL1  UNL     1      26.111  -0.894  54.076  1.00  0.00    -0.111 Cl
ENDBRANCH  21  23
ENDBRANCH   4  21
TORSDOF 8
ENDMDL
MODEL 2
REMARK VINA RESULT:      -7.7      2.248      4.875
REMARK  8 active torsions:
REMARK  status: ('A' for Active; 'I' for Inactive)
REMARK    1  A    between atoms: C2_2  and  C3_3 
REMARK    2  A    between atoms: C2_2  and  C11_12 
REMARK    3  A    between atoms: C3_3  and  C4_4 
REMARK    4  A    between atoms: C4_4  and  N1_5 
REMARK    5  A    between atoms: N1_5  and  C5_6 
REMARK    6  A    between atoms: N1_5  and  C8_9 
REMARK    7  A    between atoms: C14_15  and  N2_16 
REMARK    8  A    between atoms: N2_16  and  C15_17 
ROOT
HETATM    1  C11 UNL     1      21.466   0.265  52.894  1.00  0.00     0.039 A 
HETATM    2  C12 UNL     1      22.746   0.256  52.562  1.00  0.00     0.042 A 
HETATM    3  C13 UNL     1      23.571  -0.428  53.549  1.00  0.00     0.011 A 
HETATM    4  C14 UNL     1      24.860  -0.549  53.414  1.00  0.00     0.102 C 
HETATM    5  C20 UNL     1      22.984  -1.013  54.747  1.00  0.00     0.077 A 
HETATM    6  N3  UNL     1      23.581  -1.642  55.699  1.00  0.00    -0.298 NA
HETATM    7  C21 UNL     1      21.525  -0.914  54.967  1.00  0.00     0.148 A 
HETATM    8  N4  UNL     1      20.844  -0.286  54.041  1.00  0.00    -0.263 NA
HETATM    9  H29 UNL     1      24.607  -1.815  55.725  1.00  0.00     0.187 HD
ENDROOT
BRANCH   1  10
HETATM   10  C2  UNL     1      20.535   0.933  51.964  1.00  0.00     0.035 C 
HETATM   11  C1  UNL     1      19.263   0.100  51.765  1.00  0.00     0.016 C 
BRANCH  10  12
HETATM   12  C3  UNL     1      21.119   1.097  50.575  1.00  0.00     0.030 C 
BRANCH  12  13
HETATM   13  C4  UNL     1      21.292   2.599  50.380  1.00  0.00     0.118 C 
BRANCH  13  14
HETATM   14  N1  UNL     1      22.543   2.922  49.803  1.00  0.00    -0.405 N 
BRANCH  14  15
HETATM   15  C5  UNL     1      22.500   3.291  48.430  1.00  0.00     0.071 C 
HETATM   16  C6  UNL     1      22.667   2.160  47.460  1.00  0.00     0.031 C 
HETATM   17  C7  UNL     1      21.203   3.985  48.091  1.00  0.00     0.031 C 
ENDBRANCH  14  15
BRANCH  14  18
HETATM   18  C8  UNL     1      23.478   3.608  50.611  1.00  0.00     0.071 C 
HETATM   19  C9  UNL     1      24.714   2.740  50.745  1.00  0.00     0.031 C 
HETATM   20  C10 UNL     1      23.021   3.974  51.995  1.00  0.00     0.031 C 
ENDBRANCH  14  18
ENDBRANCH  13  14
ENDBRANCH  12  13
ENDBRANCH  10  12
ENDBRANCH   1  10
BRANCH   4  21
HETATM   21  N2  UNL     1      26.043  -1.060  53.998  1.00  0.00    -0.367 N 
HETATM   22  H25 UNL     1      25.825  -1.969  54.501  1.00  0.00     0.165 HD
BRANCH  21  23
HETATM   23  C15 UNL     1      27.358  -0.516  53.970  1.00  0.00     0.034 A 
HETATM   24  C16 UNL     1      28.436  -1.057  53.437  1.00  0.00     0.029 A 
HETATM   25  C17 UNL     1      29.526  -0.097  53.677  1.00  0.00     0.042 A 
HETATM   26  C18 UNL     1      29.093   0.983  54.337  1.00  0.00     0.118 A 
HETATM   27  F1  UNL     1      29.793   2.086  54.742  1.00  0.00    -0.209 F 
HETATM   28  C19 UNL     1      27.653   0.814  54.589  1.00  0.00     0.193 A 
HETATM   29 CL1  UNL     1      26.760   2.121  53.779  1.00  0.00    -0.111 Cl
ENDBRANCH  21  23
ENDBRANCH   4  21
TORSDOF 8
ENDMDL
MODEL 3
REMARK VINA RESULT:      -7.5      5.776      7.377
REMARK  8 active torsions:
REMARK  status: ('A' for Active; 'I' for Inactive)
REMARK    1  A    between atoms: C2_2  and  C3_3 
REMARK    2  A    between atoms: C2_2  and  C11_12 
REMARK    3  A    between atoms: C3_3  and  C4_4 
REMARK    4  A    between atoms: C4_4  and  N1_5 
REMARK    5  A    between atoms: N1_5  and  C5_6 
REMARK    6  A    between atoms: N1_5  and  C8_9 
REMARK    7  A    between atoms: C14_15  and  N2_16 
REMARK    8  A    between atoms: N2_16  and  C15_17 
ROOT
HETATM    1  C11 UNL     1      26.965   5.566  48.822  1.00  0.00     0.039 A 
HETATM    2  C12 UNL     1      28.103   4.983  48.487  1.00  0.00     0.042 A 
HETATM    3  C13 UNL     1      29.160   5.947  48.210  1.00  0.00     0.011 A 
HETATM    4  C14 UNL     1      30.359   5.583  47.862  1.00  0.00     0.102 C 
HETATM    5  C20 UNL     1      28.918   7.380  48.310  1.00  0.00     0.077 A 
HETATM    6  N3  UNL     1      29.746   8.344  48.097  1.00  0.00    -0.298 NA
HETATM    7  C21 UNL     1      27.577   7.868  48.700  1.00  0.00     0.148 A 
HETATM    8  N4  UNL     1      26.675   6.948  48.935  1.00  0.00    -0.263 NA
HETATM    9  H29 UNL     1      30.738   8.203  47.814  1.00  0.00     0.187 HD
ENDROOT
BRANCH   1  10
HETATM   10  C2  UNL     1      25.821   4.683  49.126  1.00  0.00     0.035 C 
HETATM   11  C1  UNL     1      25.031   5.200  50.334  1.00  0.00     0.016 C 
BRANCH  10  12
HETATM   12  C3  UNL     1      26.255   3.282  49.509  1.00  0.00     0.030 C 
BRANCH  12  13
HETATM   13  C4  UNL     1      26.072   3.198  51.021  1.00  0.00     0.118 C 
BRANCH  13  14
HETATM   14  N1  UNL     1      25.719   1.895  51.445  1.00  0.00    -0.405 N 
BRANCH  14  15
HETATM   15  C5  UNL     1      26.806   1.077  51.859  1.00  0.00     0.071 C 
HETATM   16  C6  UNL     1      27.723   1.696  52.871  1.00  0.00     0.031 C 
HETATM   17  C7  UNL     1      26.318  -0.230  52.435  1.00  0.00     0.031 C 
ENDBRANCH  14  15
BRANCH  14  18
HETATM   18  C8  UNL     1      24.510   1.745  52.160  1.00  0.00     0.071 C 
HETATM   19  C9  UNL     1      23.377   1.638  51.158  1.00  0.00     0.031 C 
HETATM   20  C10 UNL     1      24.166   2.845  53.126  1.00  0.00     0.031 C 
ENDBRANCH  14  18
ENDBRANCH  13  14
ENDBRANCH  12  13
ENDBRANCH  10  12
ENDBRANCH   1  10
BRANCH   4  21
HETATM   21  N2  UNL     1      31.651   6.038  47.506  1.00  0.00    -0.367 N 
HETATM   22  H25 UNL     1      31.589   7.036  47.151  1.00  0.00     0.165 HD
BRANCH  21  23
HETATM   23  C15 UNL     1      32.892   5.344  47.577  1.00  0.00     0.034 A 
HETATM   24  C16 UNL     1      33.815   5.450  48.515  1.00  0.00     0.029 A 
HETATM   25  C17 UNL     1      34.892   4.527  48.121  1.00  0.00     0.042 A 
HETATM   26  C18 UNL     1      34.604   3.895  46.976  1.00  0.00     0.118 A 
HETATM   27  F1  UNL     1      35.343   2.970  46.292  1.00  0.00    -0.209 F 
HETATM   28  C19 UNL     1      33.287   4.364  46.518  1.00  0.00     0.193 A 
HETATM   29 CL1  UNL     1      32.164   2.986  46.456  1.00  0.00    -0.111 Cl
ENDBRANCH  21  23
ENDBRANCH   4  21
TORSDOF 8
ENDMDL
MODEL 4
REMARK VINA RESULT:      -7.2      2.212      4.981
REMARK  8 active torsions:
REMARK  status: ('A' for Active; 'I' for Inactive)
REMARK    1  A    between atoms: C2_2  and  C3_3 
REMARK    2  A    between atoms: C2_2  and  C11_12 
REMARK    3  A    between atoms: C3_3  and  C4_4 
REMARK    4  A    between atoms: C4_4  and  N1_5 
REMARK    5  A    between atoms: N1_5  and  C5_6 
REMARK    6  A    between atoms: N1_5  and  C8_9 
REMARK    7  A    between atoms: C14_15  and  N2_16 
REMARK    8  A    between atoms: N2_16  and  C15_17 
ROOT
HETATM    1  C11 UNL     1      22.176   1.410  51.121  1.00  0.00     0.039 A 
HETATM    2  C12 UNL     1      23.441   1.670  51.403  1.00  0.00     0.042 A 
HETATM    3  C13 UNL     1      23.943   0.855  52.503  1.00  0.00     0.011 A 
HETATM    4  C14 UNL     1      25.165   0.953  52.939  1.00  0.00     0.102 C 
HETATM    5  C20 UNL     1      23.090  -0.118  53.171  1.00  0.00     0.077 A 
HETATM    6  N3  UNL     1      23.390  -0.902  54.148  1.00  0.00    -0.298 NA
HETATM    7  C21 UNL     1      21.689  -0.284  52.727  1.00  0.00     0.148 A 
HETATM    8  N4  UNL     1      21.303   0.479  51.735  1.00  0.00    -0.263 NA
HETATM    9  H29 UNL     1      24.328  -0.934  54.597  1.00  0.00     0.187 HD
ENDROOT
BRANCH   1  10
HETATM   10  C2  UNL     1      21.562   2.179  50.021  1.00  0.00     0.035 C 
HETATM   11  C1  UNL     1      20.471   1.362  49.319  1.00  0.00     0.016 C 
BRANCH  10  12
HETATM   12  C3  UNL     1      22.555   2.528  48.931  1.00  0.00     0.030 C 
BRANCH  12  13
HETATM   13  C4  UNL     1      22.426   4.034  48.728  1.00  0.00     0.118 C 
BRANCH  13  14
HETATM   14  N1  UNL     1      23.319   4.762  49.548  1.00  0.00    -0.405 N 
BRANCH  14  15
HETATM   15  C5  UNL     1      24.575   5.068  48.955  1.00  0.00     0.071 C 
HETATM   16  C6  UNL     1      24.943   6.521  48.950  1.00  0.00     0.031 C 
HETATM   17  C7  UNL     1      25.697   4.323  49.638  1.00  0.00     0.031 C 
ENDBRANCH  14  15
BRANCH  14  18
HETATM   18  C8  UNL     1      22.770   5.745  50.402  1.00  0.00     0.071 C 
HETATM   19  C9  UNL     1      22.869   5.242  51.829  1.00  0.00     0.031 C 
HETATM   20  C10 UNL     1      21.337   6.124  50.148  1.00  0.00     0.031 C 
ENDBRANCH  14  18
ENDBRANCH  13  14
ENDBRANCH  12  13
ENDBRANCH  10  12
ENDBRANCH   1  10
BRANCH   4  21
HETATM   21  N2  UNL     1      26.102   0.465  53.881  1.00  0.00    -0.367 N 
HETATM   22  H25 UNL     1      25.845   0.815  54.850  1.00  0.00     0.165 HD
BRANCH  21  23
HETATM   23  C15 UNL     1      27.237  -0.366  53.661  1.00  0.00     0.034 A 
HETATM   24  C16 UNL     1      27.293  -1.466  52.935  1.00  0.00     0.029 A 
HETATM   25  C17 UNL     1      28.684  -1.939  53.033  1.00  0.00     0.042 A 
HETATM   26  C18 UNL     1      29.425  -1.131  53.802  1.00  0.00     0.118 A 
HETATM   27  F1  UNL     1      30.748  -1.229  54.133  1.00  0.00    -0.209 F 
HETATM   28  C19 UNL     1      28.559  -0.040  54.279  1.00  0.00     0.193 A 
HETATM   29 CL1  UNL     1      29.192   1.511  53.684  1.00  0.00    -0.111 Cl
ENDBRANCH  21  23
ENDBRANCH   4  21
TORSDOF 8
ENDMDL
MODEL 5
REMARK VINA RESULT:      -7.2      3.407      7.872
REMARK  8 active torsions:
REMARK  status: ('A' for Active; 'I' for Inactive)
REMARK    1  A    between atoms: C2_2  and  C3_3 
REMARK    2  A    between atoms: C2_2  and  C11_12 
REMARK    3  A    between atoms: C3_3  and  C4_4 
REMARK    4  A    between atoms: C4_4  and  N1_5 
REMARK    5  A    between atoms: N1_5  and  C5_6 
REMARK    6  A    between atoms: N1_5  and  C8_9 
REMARK    7  A    between atoms: C14_15  and  N2_16 
REMARK    8  A    between atoms: N2_16  and  C15_17 
ROOT
HETATM    1  C11 UNL     1      24.877   0.297  52.955  1.00  0.00     0.039 A 
HETATM    2  C12 UNL     1      23.625   0.508  52.587  1.00  0.00     0.042 A 
HETATM    3  C13 UNL     1      22.670  -0.148  53.472  1.00  0.00     0.011 A 
HETATM    4  C14 UNL     1      21.384  -0.068  53.288  1.00  0.00     0.102 C 
HETATM    5  C20 UNL     1      23.116  -0.932  54.615  1.00  0.00     0.077 A 
HETATM    6  N3  UNL     1      22.396  -1.563  55.477  1.00  0.00    -0.298 NA
HETATM    7  C21 UNL     1      24.564  -1.067  54.886  1.00  0.00     0.148 A 
HETATM    8  N4  UNL     1      25.366  -0.453  54.052  1.00  0.00    -0.263 NA
HETATM    9  H29 UNL     1      21.356  -1.587  55.456  1.00  0.00     0.187 HD
ENDROOT
BRANCH   1  10
HETATM   10  C2  UNL     1      25.933   0.916  52.129  1.00  0.00     0.035 C 
HETATM   11  C1  UNL     1      27.325   0.620  52.701  1.00  0.00     0.016 C 
BRANCH  10  12
HETATM   12  C3  UNL     1      25.834   2.428  52.096  1.00  0.00     0.030 C 
BRANCH  12  13
HETATM   13  C4  UNL     1      25.728   2.799  50.621  1.00  0.00     0.118 C 
BRANCH  13  14
HETATM   14  N1  UNL     1      25.064   4.033  50.427  1.00  0.00    -0.405 N 
BRANCH  14  15
HETATM   15  C5  UNL     1      25.832   5.039  49.780  1.00  0.00     0.071 C 
HETATM   16  C6  UNL     1      27.016   4.540  49.006  1.00  0.00     0.031 C 
HETATM   17  C7  UNL     1      24.983   5.848  48.829  1.00  0.00     0.031 C 
ENDBRANCH  14  15
BRANCH  14  18
HETATM   18  C8  UNL     1      23.687   3.993  50.113  1.00  0.00     0.071 C 
HETATM   19  C9  UNL     1      22.904   4.274  51.382  1.00  0.00     0.031 C 
HETATM   20  C10 UNL     1      23.172   2.705  49.533  1.00  0.00     0.031 C 
ENDBRANCH  14  18
ENDBRANCH  13  14
ENDBRANCH  12  13
ENDBRANCH  10  12
ENDBRANCH   1  10
BRANCH   4  21
HETATM   21  N2  UNL     1      20.117  -0.460  53.779  1.00  0.00    -0.367 N 
HETATM   22  H25 UNL     1      20.173  -0.601  54.830  1.00  0.00     0.165 HD
BRANCH  21  23
HETATM   23  C15 UNL     1      18.905  -0.661  53.061  1.00  0.00     0.034 A 
HETATM   24  C16 UNL     1      17.848  -1.349  53.451  1.00  0.00     0.029 A 
HETATM   25  C17 UNL     1      16.875  -1.247  52.351  1.00  0.00     0.042 A 
HETATM   26  C18 UNL     1      17.354  -0.514  51.338  1.00  0.00     0.118 A 
HETATM   27  F1  UNL     1      16.760  -0.190  50.150  1.00  0.00    -0.209 F 
HETATM   28  C19 UNL     1      18.709  -0.068  51.702  1.00  0.00     0.193 A 
HETATM   29 CL1  UNL     1      18.745   1.709  51.757  1.00  0.00    -0.111 Cl
ENDBRANCH  21  23
ENDBRANCH   4  21
TORSDOF 8
ENDMDL
MODEL 6
REMARK VINA RESULT:      -7.2      4.559      6.224
REMARK  8 active torsions:
REMARK  status: ('A' for Active; 'I' for Inactive)
REMARK    1  A    between atoms: C2_2  and  C3_3 
REMARK    2  A    between atoms: C2_2  and  C11_12 
REMARK    3  A    between atoms: C3_3  and  C4_4 
REMARK    4  A    between atoms: C4_4  and  N1_5 
REMARK    5  A    between atoms: N1_5  and  C5_6 
REMARK    6  A    between atoms: N1_5  and  C8_9 
REMARK    7  A    between atoms: C14_15  and  N2_16 
REMARK    8  A    between atoms: N2_16  and  C15_17 
ROOT
HETATM    1  C11 UNL     1      23.389   4.396  49.819  1.00  0.00     0.039 A 
HETATM    2  C12 UNL     1      24.545   4.077  49.264  1.00  0.00     0.042 A 
HETATM    3  C13 UNL     1      25.577   5.073  49.522  1.00  0.00     0.011 A 
HETATM    4  C14 UNL     1      26.790   4.952  49.065  1.00  0.00     0.102 C 
HETATM    5  C20 UNL     1      25.295   6.264  50.312  1.00  0.00     0.077 A 
HETATM    6  N3  UNL     1      26.099   7.223  50.621  1.00  0.00    -0.298 NA
HETATM    7  C21 UNL     1      23.938   6.468  50.863  1.00  0.00     0.148 A 
HETATM    8  N4  UNL     1      23.059   5.535  50.593  1.00  0.00    -0.263 NA
HETATM    9  H29 UNL     1      27.096   7.260  50.326  1.00  0.00     0.187 HD
ENDROOT
BRANCH   1  10
HETATM   10  C2  UNL     1      22.267   3.456  49.621  1.00  0.00     0.035 C 
HETATM   11  C1  UNL     1      21.064   3.844  50.490  1.00  0.00     0.016 C 
BRANCH  10  12
HETATM   12  C3  UNL     1      22.614   2.041  50.039  1.00  0.00     0.030 C 
BRANCH  12  13
HETATM   13  C4  UNL     1      22.503   2.026  51.560  1.00  0.00     0.118 C 
BRANCH  13  14
HETATM   14  N1  UNL     1      23.390   1.096  52.151  1.00  0.00    -0.405 N 
BRANCH  14  15
HETATM   15  C5  UNL     1      24.582   1.653  52.691  1.00  0.00     0.071 C 
HETATM   16  C6  UNL     1      25.765   1.645  51.771  1.00  0.00     0.031 C 
HETATM   17  C7  UNL     1      24.366   3.081  53.132  1.00  0.00     0.031 C 
ENDBRANCH  14  15
BRANCH  14  18
HETATM   18  C8  UNL     1      22.824   0.012  52.859  1.00  0.00     0.071 C 
HETATM   19  C9  UNL     1      21.548   0.494  53.522  1.00  0.00     0.031 C 
HETATM   20  C10 UNL     1      23.685  -0.614  53.920  1.00  0.00     0.031 C 
ENDBRANCH  14  18
ENDBRANCH  13  14
ENDBRANCH  12  13
ENDBRANCH  10  12
ENDBRANCH   1  10
BRANCH   4  21
HETATM   21  N2  UNL     1      28.072   5.548  49.009  1.00  0.00    -0.367 N 
HETATM   22  H25 UNL     1      28.656   5.210  49.828  1.00  0.00     0.165 HD
BRANCH  21  23
HETATM   23  C15 UNL     1      28.587   6.465  48.050  1.00  0.00     0.034 A 
HETATM   24  C16 UNL     1      27.926   7.416  47.417  1.00  0.00     0.029 A 
HETATM   25  C17 UNL     1      28.911   8.074  46.543  1.00  0.00     0.042 A 
HETATM   26  C18 UNL     1      30.123   7.517  46.662  1.00  0.00     0.118 A 
HETATM   27  F1  UNL     1      31.289   7.842  46.025  1.00  0.00    -0.209 F 
HETATM   28  C19 UNL     1      30.027   6.427  47.646  1.00  0.00     0.193 A 
HETATM   29 CL1  UNL     1      31.098   6.782  49.020  1.00  0.00    -0.111 Cl
ENDBRANCH  21  23
ENDBRANCH   4  21
TORSDOF 8
ENDMDL
MODEL 7
REMARK VINA RESULT:      -7.0      2.303      4.804
REMARK  8 active torsions:
REMARK  status: ('A' for Active; 'I' for Inactive)
REMARK    1  A    between atoms: C2_2  and  C3_3 
REMARK    2  A    between atoms: C2_2  and  C11_12 
REMARK    3  A    between atoms: C3_3  and  C4_4 
REMARK    4  A    between atoms: C4_4  and  N1_5 
REMARK    5  A    between atoms: N1_5  and  C5_6 
REMARK    6  A    between atoms: N1_5  and  C8_9 
REMARK    7  A    between atoms: C14_15  and  N2_16 
REMARK    8  A    between atoms: N2_16  and  C15_17 
ROOT
HETATM    1  C11 UNL     1      21.585   0.533  52.398  1.00  0.00     0.039 A 
HETATM    2  C12 UNL     1      22.778   1.104  52.376  1.00  0.00     0.042 A 
HETATM    3  C13 UNL     1      23.704   0.491  53.319  1.00  0.00     0.011 A 
HETATM    4  C14 UNL     1      24.930   0.902  53.456  1.00  0.00     0.102 C 
HETATM    5  C20 UNL     1      23.293  -0.624  54.163  1.00  0.00     0.077 A 
HETATM    6  N3  UNL     1      23.993  -1.262  55.035  1.00  0.00    -0.298 NA
HETATM    7  C21 UNL     1      21.912  -1.144  54.061  1.00  0.00     0.148 A 
HETATM    8  N4  UNL     1      21.133  -0.547  53.193  1.00  0.00    -0.263 NA
HETATM    9  H29 UNL     1      24.988  -1.044  55.251  1.00  0.00     0.187 HD
ENDROOT
BRANCH   1  10
HETATM   10  C2  UNL     1      20.564   1.076  51.479  1.00  0.00     0.035 C 
HETATM   11  C1  UNL     1      19.373   0.118  51.353  1.00  0.00     0.016 C 
BRANCH  10  12
HETATM   12  C3  UNL     1      21.085   1.244  50.066  1.00  0.00     0.030 C 
BRANCH  12  13
HETATM   13  C4  UNL     1      20.690   2.657  49.651  1.00  0.00     0.118 C 
BRANCH  13  14
HETATM   14  N1  UNL     1      21.631   3.238  48.768  1.00  0.00    -0.405 N 
BRANCH  14  15
HETATM   15  C5  UNL     1      21.095   3.713  47.540  1.00  0.00     0.071 C 
HETATM   16  C6  UNL     1      21.930   3.431  46.327  1.00  0.00     0.031 C 
HETATM   17  C7  UNL     1      19.722   3.140  47.284  1.00  0.00     0.031 C 
ENDBRANCH  14  15
BRANCH  14  18
HETATM   18  C8  UNL     1      22.678   3.997  49.335  1.00  0.00     0.071 C 
HETATM   19  C9  UNL     1      23.924   3.132  49.372  1.00  0.00     0.031 C 
HETATM   20  C10 UNL     1      22.444   4.524  50.723  1.00  0.00     0.031 C 
ENDBRANCH  14  18
ENDBRANCH  13  14
ENDBRANCH  12  13
ENDBRANCH  10  12
ENDBRANCH   1  10
BRANCH   4  21
HETATM   21  N2  UNL     1      26.149   0.702  54.147  1.00  0.00    -0.367 N 
HETATM   22  H25 UNL     1      26.161   1.299  55.025  1.00  0.00     0.165 HD
BRANCH  21  23
HETATM   23  C15 UNL     1      27.242  -0.142  53.801  1.00  0.00     0.034 A 
HETATM   24  C16 UNL     1      27.253  -1.107  52.900  1.00  0.00     0.029 A 
HETATM   25  C17 UNL     1      28.615  -1.665  52.930  1.00  0.00     0.042 A 
HETATM   26  C18 UNL     1      29.383  -1.040  53.830  1.00  0.00     0.118 A 
HETATM   27  F1  UNL     1      30.693  -1.264  54.151  1.00  0.00    -0.209 F 
HETATM   28  C19 UNL     1      28.569   0.002  54.476  1.00  0.00     0.193 A 
HETATM   29 CL1  UNL     1      29.293   1.594  54.155  1.00  0.00    -0.111 Cl
ENDBRANCH  21  23
ENDBRANCH   4  21
TORSDOF 8
ENDMDL
MODEL 8
REMARK VINA RESULT:      -7.0      1.442      1.980
REMARK  8 active torsions:
REMARK  status: ('A' for Active; 'I' for Inactive)
REMARK    1  A    between atoms: C2_2  and  C3_3 
REMARK    2  A    between atoms: C2_2  and  C11_12 
REMARK    3  A    between atoms: C3_3  and  C4_4 
REMARK    4  A    between atoms: C4_4  and  N1_5 
REMARK    5  A    between atoms: N1_5  and  C5_6 
REMARK    6  A    between atoms: N1_5  and  C8_9 
REMARK    7  A    between atoms: C14_15  and  N2_16 
REMARK    8  A    between atoms: N2_16  and  C15_17 
ROOT
HETATM    1  C11 UNL     1      23.208   3.751  51.208  1.00  0.00     0.039 A 
HETATM    2  C12 UNL     1      23.413   3.151  52.368  1.00  0.00     0.042 A 
HETATM    3  C13 UNL     1      24.814   2.803  52.572  1.00  0.00     0.011 A 
HETATM    4  C14 UNL     1      25.231   2.206  53.650  1.00  0.00     0.102 C 
HETATM    5  C20 UNL     1      25.821   3.110  51.566  1.00  0.00     0.077 A 
HETATM    6  N3  UNL     1      27.086   2.866  51.606  1.00  0.00    -0.298 NA
HETATM    7  C21 UNL     1      25.419   3.789  50.315  1.00  0.00     0.148 A 
HETATM    8  N4  UNL     1      24.146   4.073  50.197  1.00  0.00    -0.263 NA
HETATM    9  H29 UNL     1      27.560   2.395  52.404  1.00  0.00     0.187 HD
ENDROOT
BRANCH   1  10
HETATM   10  C2  UNL     1      21.821   4.150  50.894  1.00  0.00     0.035 C 
HETATM   11  C1  UNL     1      21.581   5.624  51.239  1.00  0.00     0.016 C 
BRANCH  10  12
HETATM   12  C3  UNL     1      20.798   3.383  51.708  1.00  0.00     0.030 C 
BRANCH  12  13
HETATM   13  C4  UNL     1      20.103   2.454  50.719  1.00  0.00     0.118 C 
BRANCH  13  14
HETATM   14  N1  UNL     1      19.675   1.250  51.327  1.00  0.00    -0.405 N 
BRANCH  14  15
HETATM   15  C5  UNL     1      20.532   0.747  52.345  1.00  0.00     0.071 C 
HETATM   16  C6  UNL     1      19.871  -0.141  53.355  1.00  0.00     0.031 C 
HETATM   17  C7  UNL     1      21.686  -0.026  51.754  1.00  0.00     0.031 C 
ENDBRANCH  14  15
BRANCH  14  18
HETATM   18  C8  UNL     1      18.287   1.076  51.528  1.00  0.00     0.071 C 
HETATM   19  C9  UNL     1      17.775   0.103  50.483  1.00  0.00     0.031 C 
HETATM   20  C10 UNL     1      17.442   2.317  51.453  1.00  0.00     0.031 C 
ENDBRANCH  14  18
ENDBRANCH  13  14
ENDBRANCH  12  13
ENDBRANCH  10  12
ENDBRANCH   1  10
BRANCH   4  21
HETATM   21  N2  UNL     1      26.362   1.679  54.319  1.00  0.00    -0.367 N 
HETATM   22  H25 UNL     1      26.528   2.224  55.215  1.00  0.00     0.165 HD
BRANCH  21  23
HETATM   23  C15 UNL     1      27.202   0.598  53.933  1.00  0.00     0.034 A 
HETATM   24  C16 UNL     1      26.932  -0.352  53.058  1.00  0.00     0.029 A 
HETATM   25  C17 UNL     1      28.123  -1.217  53.025  1.00  0.00     0.042 A 
HETATM   26  C18 UNL     1      29.070  -0.781  53.865  1.00  0.00     0.118 A 
HETATM   27  F1  UNL     1      30.307  -1.305  54.118  1.00  0.00    -0.209 F 
HETATM   28  C19 UNL     1      28.564   0.431  54.529  1.00  0.00     0.193 A 
HETATM   29 CL1  UNL     1      29.622   1.803  54.129  1.00  0.00    -0.111 Cl
ENDBRANCH  21  23
ENDBRANCH   4  21
TORSDOF 8
ENDMDL
MODEL 9
REMARK VINA RESULT:      -7.0      2.834      6.204
REMARK  8 active torsions:
REMARK  status: ('A' for Active; 'I' for Inactive)
REMARK    1  A    between atoms: C2_2  and  C3_3 
REMARK    2  A    between atoms: C2_2  and  C11_12 
REMARK    3  A    between atoms: C3_3  and  C4_4 
REMARK    4  A    between atoms: C4_4  and  N1_5 
REMARK    5  A    between atoms: N1_5  and  C5_6 
REMARK    6  A    between atoms: N1_5  and  C8_9 
REMARK    7  A    between atoms: C14_15  and  N2_16 
REMARK    8  A    between atoms: N2_16  and  C15_17 
ROOT
HETATM    1  C11 UNL     1      23.154   3.442  51.131  1.00  0.00     0.039 A 
HETATM    2  C12 UNL     1      24.279   3.484  51.823  1.00  0.00     0.042 A 
HETATM    3  C13 UNL     1      24.515   2.257  52.573  1.00  0.00     0.011 A 
HETATM    4  C14 UNL     1      25.567   2.090  53.321  1.00  0.00     0.102 C 
HETATM    5  C20 UNL     1      23.573   1.147  52.519  1.00  0.00     0.077 A 
HETATM    6  N3  UNL     1      23.646   0.011  53.122  1.00  0.00    -0.298 NA
HETATM    7  C21 UNL     1      22.354   1.266  51.689  1.00  0.00     0.148 A 
HETATM    8  N4  UNL     1      22.205   2.395  51.042  1.00  0.00    -0.263 NA
HETATM    9  H29 UNL     1      24.429  -0.262  53.751  1.00  0.00     0.187 HD
ENDROOT
BRANCH   1  10
HETATM   10  C2  UNL     1      22.813   4.635  50.331  1.00  0.00     0.035 C 
HETATM   11  C1  UNL     1      22.700   4.287  48.842  1.00  0.00     0.016 C 
BRANCH  10  12
HETATM   12  C3  UNL     1      23.881   5.708  50.404  1.00  0.00     0.030 C 
BRANCH  12  13
HETATM   13  C4  UNL     1      24.517   5.745  49.019  1.00  0.00     0.118 C 
BRANCH  13  14
HETATM   14  N1  UNL     1      25.573   6.684  48.941  1.00  0.00    -0.405 N 
BRANCH  14  15
HETATM   15  C5  UNL     1      26.881   6.133  49.022  1.00  0.00     0.071 C 
HETATM   16  C6  UNL     1      26.952   4.639  48.926  1.00  0.00     0.031 C 
HETATM   17  C7  UNL     1      27.779   6.695  47.946  1.00  0.00     0.031 C 
ENDBRANCH  14  15
BRANCH  14  18
HETATM   18  C8  UNL     1      25.406   7.785  48.071  1.00  0.00     0.071 C 
HETATM   19  C9  UNL     1      25.118   9.014  48.913  1.00  0.00     0.031 C 
HETATM   20  C10 UNL     1      24.313   7.666  47.046  1.00  0.00     0.031 C 
ENDBRANCH  14  18
ENDBRANCH  13  14
ENDBRANCH  12  13
ENDBRANCH  10  12
ENDBRANCH   1  10
BRANCH   4  21
HETATM   21  N2  UNL     1      26.243   1.199  54.187  1.00  0.00    -0.367 N 
HETATM   22  H25 UNL     1      25.877   1.319  55.176  1.00  0.00     0.165 HD
BRANCH  21  23
HETATM   23  C15 UNL     1      27.263   0.256  53.876  1.00  0.00     0.034 A 
HETATM   24  C16 UNL     1      27.208  -0.717  52.987  1.00  0.00     0.029 A 
HETATM   25  C17 UNL     1      28.513  -1.396  53.055  1.00  0.00     0.042 A 
HETATM   26  C18 UNL     1      29.314  -0.829  53.966  1.00  0.00     0.118 A 
HETATM   27  F1  UNL     1      30.591  -1.166  54.321  1.00  0.00    -0.209 F 
HETATM   28  C19 UNL     1      28.582   0.289  54.581  1.00  0.00     0.193 A 
HETATM   29 CL1  UNL     1      29.454   1.806  54.260  1.00  0.00    -0.111 Cl
ENDBRANCH  21  23
ENDBRANCH   4  21
TORSDOF 8
ENDMDL
