MODEL 1
REMARK VINA RESULT:      -8.0      0.000      0.000
REMARK  5 active torsions:
REMARK  status: ('A' for Active; 'I' for Inactive)
REMARK    1  A    between atoms: C3_3  and  C4_4 
REMARK    2  A    between atoms: C3_3  and  N1_16 
REMARK    3  A    between atoms: C5_5  and  C6_7 
REMARK    4  A    between atoms: C6_7  and  C7_8 
REMARK    5  A    between atoms: C7_8  and  C8_9 
ROOT
HETATM    1  C4  UNL     1      24.799   1.321  51.864  1.00  0.00     0.051 C 
HETATM    2  C5  UNL     1      24.505   2.621  51.961  1.00  0.00     0.014 C 
HETATM    3 CL1  UNL     1      24.545   3.264  53.588  1.00  0.00    -0.089 Cl
ENDROOT
BRANCH   2   4
HETATM    4  C6  UNL     1      24.191   3.431  50.767  1.00  0.00     0.056 C 
BRANCH   4   5
HETATM    5  C7  UNL     1      25.111   3.185  49.625  1.00  0.00     0.044 C 
BRANCH   5   6
HETATM    6  C8  UNL     1      25.882   4.356  49.158  1.00  0.00    -0.055 A 
HETATM    7  C9  UNL     1      25.235   5.576  48.965  1.00  0.00     0.007 A 
HETATM    8  C10 UNL     1      25.948   6.690  48.539  1.00  0.00     0.003 A 
HETATM    9  C11 UNL     1      27.303   6.580  48.309  1.00  0.00     0.042 A 
HETATM   10  C12 UNL     1      27.999   5.395  48.484  1.00  0.00     0.116 A 
HETATM   11  F1  UNL     1      29.331   5.260  48.265  1.00  0.00    -0.206 F 
HETATM   12  C13 UNL     1      27.255   4.314  48.907  1.00  0.00     0.049 A 
ENDBRANCH   5   6
ENDBRANCH   4   5
ENDBRANCH   2   4
BRANCH   1  13
HETATM   13  C3  UNL     1      25.130   0.472  52.972  1.00  0.00     0.056 C 
HETATM   14  C2  UNL     1      24.185  -0.220  53.630  1.00  0.00     0.001 C 
HETATM   15  C1  UNL     1      22.714  -0.316  53.448  1.00  0.00     0.038 C 
BRANCH  13  16
HETATM   16  N1  UNL     1      26.445   0.286  53.467  1.00  0.00    -0.228 N 
HETATM   17  C14 UNL     1      27.210  -0.745  52.808  1.00  0.00     0.118 A 
HETATM   18  C15 UNL     1      28.457  -0.938  53.257  1.00  0.00     0.016 A 
HETATM   19  C16 UNL     1      29.050  -0.158  54.365  1.00  0.00     0.204 A 
HETATM   20  N2  UNL     1      28.167   0.835  54.924  1.00  0.00    -0.171 NA
HETATM   21  N3  UNL     1      26.993   1.046  54.532  1.00  0.00    -0.066 NA
ENDBRANCH  13  16
ENDBRANCH   1  13
TORSDOF 5
ENDMDL
MODEL 2
REMARK VINA RESULT:      -7.9      1.074      1.501
REMARK  5 active torsions:
REMARK  status: ('A' for Active; 'I' for Inactive)
REMARK    1  A    between atoms: C3_3  and  C4_4 
REMARK    2  A    between atoms: C3_3  and  N1_16 
REMARK    3  A    between atoms: C5_5  and  C6_7 
REMARK    4  A    between atoms: C6_7  and  C7_8 
REMARK    5  A    between atoms: C7_8  and  C8_9 
ROOT
HETATM    1  C4  UNL     1      24.929   1.372  51.775  1.00  0.00     0.051 C 
HETATM    2  C5  UNL     1      24.587   2.659  51.891  1.00  0.00     0.014 C 
HETATM    3 CL1  UNL     1      24.507   3.253  53.535  1.00  0.00    -0.089 Cl
ENDROOT
BRANCH   2   4
HETATM    4  C6  UNL     1      24.322   3.495  50.703  1.00  0.00     0.056 C 
BRANCH   4   5
HETATM    5  C7  UNL     1      25.297   3.286  49.601  1.00  0.00     0.044 C 
BRANCH   5   6
HETATM    6  C8  UNL     1      26.005   4.496  49.131  1.00  0.00    -0.055 A 
HETATM    7  C9  UNL     1      27.383   4.451  48.924  1.00  0.00     0.007 A 
HETATM    8  C10 UNL     1      28.062   5.575  48.470  1.00  0.00     0.003 A 
HETATM    9  C11 UNL     1      27.362   6.737  48.225  1.00  0.00     0.042 A 
HETATM   10  C12 UNL     1      25.993   6.841  48.414  1.00  0.00     0.116 A 
HETATM   11  F1  UNL     1      25.281   7.971  48.181  1.00  0.00    -0.206 F 
HETATM   12  C13 UNL     1      25.357   5.703  48.865  1.00  0.00     0.049 A 
ENDBRANCH   5   6
ENDBRANCH   4   5
ENDBRANCH   2   4
BRANCH   1  13
HETATM   13  C3  UNL     1      25.218   0.500  52.877  1.00  0.00     0.056 C 
HETATM   14  C2  UNL     1      24.251  -0.216  53.476  1.00  0.00     0.001 C 
HETATM   15  C1  UNL     1      22.791  -0.320  53.225  1.00  0.00     0.038 C 
BRANCH  13  16
HETATM   16  N1  UNL     1      26.512   0.314  53.427  1.00  0.00    -0.228 N 
HETATM   17  C14 UNL     1      27.301  -0.721  52.803  1.00  0.00     0.118 A 
HETATM   18  C15 UNL     1      28.528  -0.914  53.304  1.00  0.00     0.016 A 
HETATM   19  C16 UNL     1      29.077  -0.130  54.432  1.00  0.00     0.204 A 
HETATM   20  N2  UNL     1      28.173   0.866  54.950  1.00  0.00    -0.171 NA
HETATM   21  N3  UNL     1      27.017   1.077  54.509  1.00  0.00    -0.066 NA
ENDBRANCH  13  16
ENDBRANCH   1  13
TORSDOF 5
ENDMDL
MODEL 3
REMARK VINA RESULT:      -7.9      4.807      6.899
REMARK  5 active torsions:
REMARK  status: ('A' for Active; 'I' for Inactive)
REMARK    1  A    between atoms: C3_3  and  C4_4 
REMARK    2  A    between atoms: C3_3  and  N1_16 
REMARK    3  A    between atoms: C5_5  and  C6_7 
REMARK    4  A    between atoms: C6_7  and  C7_8 
REMARK    5  A    between atoms: C7_8  and  C8_9 
ROOT
HETATM    1  C4  UNL     1      24.268  -0.356  53.363  1.00  0.00     0.051 C 
HETATM    2  C5  UNL     1      23.714  -0.950  54.424  1.00  0.00     0.014 C 
HETATM    3 CL1  UNL     1      24.736  -1.023  55.843  1.00  0.00    -0.089 Cl
ENDROOT
BRANCH   2   4
HETATM    4  C6  UNL     1      22.335  -1.478  54.378  1.00  0.00     0.056 C 
BRANCH   4   5
HETATM    5  C7  UNL     1      21.293  -0.431  54.535  1.00  0.00     0.044 C 
BRANCH   5   6
HETATM    6  C8  UNL     1      20.372  -0.264  53.391  1.00  0.00    -0.055 A 
HETATM    7  C9  UNL     1      20.787   0.453  52.270  1.00  0.00     0.007 A 
HETATM    8  C10 UNL     1      19.939   0.608  51.181  1.00  0.00     0.003 A 
HETATM    9  C11 UNL     1      18.681   0.044  51.216  1.00  0.00     0.042 A 
HETATM   10  C12 UNL     1      18.214  -0.678  52.302  1.00  0.00     0.116 A 
HETATM   11  F1  UNL     1      16.982  -1.242  52.363  1.00  0.00    -0.206 F 
HETATM   12  C13 UNL     1      19.086  -0.807  53.363  1.00  0.00     0.049 A 
ENDBRANCH   5   6
ENDBRANCH   4   5
ENDBRANCH   2   4
BRANCH   1  13
HETATM   13  C3  UNL     1      25.592   0.196  53.333  1.00  0.00     0.056 C 
HETATM   14  C2  UNL     1      25.797   1.524  53.326  1.00  0.00     0.001 C 
HETATM   15  C1  UNL     1      24.859   2.675  53.345  1.00  0.00     0.038 C 
BRANCH  13  16
HETATM   16  N1  UNL     1      26.778  -0.581  53.309  1.00  0.00    -0.228 N 
HETATM   17  C14 UNL     1      27.987   0.134  53.640  1.00  0.00     0.118 A 
HETATM   18  C15 UNL     1      29.121  -0.580  53.626  1.00  0.00     0.016 A 
HETATM   19  C16 UNL     1      29.168  -2.021  53.294  1.00  0.00     0.204 A 
HETATM   20  N2  UNL     1      27.883  -2.596  52.986  1.00  0.00    -0.171 NA
HETATM   21  N3  UNL     1      26.800  -1.962  52.988  1.00  0.00    -0.066 NA
ENDBRANCH  13  16
ENDBRANCH   1  13
TORSDOF 5
ENDMDL
MODEL 4
REMARK VINA RESULT:      -7.8      3.276      4.342
REMARK  5 active torsions:
REMARK  status: ('A' for Active; 'I' for Inactive)
REMARK    1  A    between atoms: C3_3  and  C4_4 
REMARK    2  A    between atoms: C3_3  and  N1_16 
REMARK    3  A    between atoms: C5_5  and  C6_7 
REMARK    4  A    between atoms: C6_7  and  C7_8 
REMARK    5  A    between atoms: C7_8  and  C8_9 
ROOT
HETATM    1  C4  UNL     1      25.852   0.714  51.870  1.00  0.00     0.051 C 
HETATM    2  C5  UNL     1      25.717   2.017  52.138  1.00  0.00     0.014 C 
HETATM    3 CL1  UNL     1      25.829   2.433  53.833  1.00  0.00    -0.089 Cl
ENDROOT
BRANCH   2   4
HETATM    4  C6  UNL     1      25.510   3.007  51.061  1.00  0.00     0.056 C 
BRANCH   4   5
HETATM    5  C7  UNL     1      24.115   3.514  50.982  1.00  0.00     0.044 C 
BRANCH   5   6
HETATM    6  C8  UNL     1      23.151   2.635  50.287  1.00  0.00    -0.055 A 
HETATM    7  C9  UNL     1      23.041   2.694  48.898  1.00  0.00     0.007 A 
HETATM    8  C10 UNL     1      22.150   1.866  48.228  1.00  0.00     0.003 A 
HETATM    9  C11 UNL     1      21.374   0.982  48.948  1.00  0.00     0.042 A 
HETATM   10  C12 UNL     1      21.439   0.879  50.328  1.00  0.00     0.116 A 
HETATM   11  F1  UNL     1      20.687   0.019  51.059  1.00  0.00    -0.206 F 
HETATM   12  C13 UNL     1      22.336   1.719  50.955  1.00  0.00     0.049 A 
ENDBRANCH   5   6
ENDBRANCH   4   5
ENDBRANCH   2   4
BRANCH   1  13
HETATM   13  C3  UNL     1      26.073  -0.305  52.854  1.00  0.00     0.056 C 
HETATM   14  C2  UNL     1      25.069  -0.772  53.615  1.00  0.00     0.001 C 
HETATM   15  C1  UNL     1      23.623  -0.436  53.671  1.00  0.00     0.038 C 
BRANCH  13  16
HETATM   16  N1  UNL     1      27.333  -0.901  53.115  1.00  0.00    -0.228 N 
HETATM   17  C14 UNL     1      28.398   0.023  53.423  1.00  0.00     0.118 A 
HETATM   18  C15 UNL     1      29.597  -0.517  53.675  1.00  0.00     0.016 A 
HETATM   19  C16 UNL     1      29.853  -1.974  53.648  1.00  0.00     0.204 A 
HETATM   20  N2  UNL     1      28.694  -2.768  53.326  1.00  0.00    -0.171 NA
HETATM   21  N3  UNL     1      27.555  -2.301  53.083  1.00  0.00    -0.066 NA
ENDBRANCH  13  16
ENDBRANCH   1  13
TORSDOF 5
ENDMDL
MODEL 5
REMARK VINA RESULT:      -7.8      3.835      6.166
REMARK  5 active torsions:
REMARK  status: ('A' for Active; 'I' for Inactive)
REMARK    1  A    between atoms: C3_3  and  C4_4 
REMARK    2  A    between atoms: C3_3  and  N1_16 
REMARK    3  A    between atoms: C5_5  and  C6_7 
REMARK    4  A    between atoms: C6_7  and  C7_8 
REMARK    5  A    between atoms: C7_8  and  C8_9 
ROOT
HETATM    1  C4  UNL     1      24.593   1.517  51.410  1.00  0.00     0.051 C 
HETATM    2  C5  UNL     1      25.368   2.292  52.177  1.00  0.00     0.014 C 
HETATM    3 CL1  UNL     1      24.514   3.192  53.411  1.00  0.00    -0.089 Cl
ENDROOT
BRANCH   2   4
HETATM    4  C6  UNL     1      26.831   2.349  51.984  1.00  0.00     0.056 C 
BRANCH   4   5
HETATM    5  C7  UNL     1      27.604   1.986  53.200  1.00  0.00     0.044 C 
BRANCH   5   6
HETATM    6  C8  UNL     1      28.165   0.618  53.219  1.00  0.00    -0.055 A 
HETATM    7  C9  UNL     1      29.467   0.413  53.674  1.00  0.00     0.007 A 
HETATM    8  C10 UNL     1      30.005  -0.866  53.712  1.00  0.00     0.003 A 
HETATM    9  C11 UNL     1      29.240  -1.936  53.296  1.00  0.00     0.042 A 
HETATM   10  C12 UNL     1      27.941  -1.793  52.835  1.00  0.00     0.116 A 
HETATM   11  F1  UNL     1      27.168  -2.828  52.421  1.00  0.00    -0.206 F 
HETATM   12  C13 UNL     1      27.445  -0.506  52.813  1.00  0.00     0.049 A 
ENDBRANCH   5   6
ENDBRANCH   4   5
ENDBRANCH   2   4
BRANCH   1  13
HETATM   13  C3  UNL     1      23.171   1.395  51.545  1.00  0.00     0.056 C 
HETATM   14  C2  UNL     1      22.334   1.893  50.619  1.00  0.00     0.001 C 
HETATM   15  C1  UNL     1      22.578   2.621  49.348  1.00  0.00     0.038 C 
BRANCH  13  16
HETATM   16  N1  UNL     1      22.527   0.756  52.635  1.00  0.00    -0.228 N 
HETATM   17  C14 UNL     1      23.286  -0.296  53.267  1.00  0.00     0.118 A 
HETATM   18  C15 UNL     1      22.698  -0.914  54.300  1.00  0.00     0.016 A 
HETATM   19  C16 UNL     1      21.348  -0.564  54.793  1.00  0.00     0.204 A 
HETATM   20  N2  UNL     1      20.715   0.505  54.063  1.00  0.00    -0.171 NA
HETATM   21  N3  UNL     1      21.231   1.108  53.090  1.00  0.00    -0.066 NA
ENDBRANCH  13  16
ENDBRANCH   1  13
TORSDOF 5
ENDMDL
MODEL 6
REMARK VINA RESULT:      -7.7      3.318      6.515
REMARK  5 active torsions:
REMARK  status: ('A' for Active; 'I' for Inactive)
REMARK    1  A    between atoms: C3_3  and  C4_4 
REMARK    2  A    between atoms: C3_3  and  N1_16 
REMARK    3  A    between atoms: C5_5  and  C6_7 
REMARK    4  A    between atoms: C6_7  and  C7_8 
REMARK    5  A    between atoms: C7_8  and  C8_9 
ROOT
HETATM    1  C4  UNL     1      25.123   2.291  50.928  1.00  0.00     0.051 C 
HETATM    2  C5  UNL     1      24.791   2.503  52.205  1.00  0.00     0.014 C 
HETATM    3 CL1  UNL     1      23.992   4.029  52.514  1.00  0.00    -0.089 Cl
ENDROOT
BRANCH   2   4
HETATM    4  C6  UNL     1      25.073   1.499  53.251  1.00  0.00     0.056 C 
BRANCH   4   5
HETATM    5  C7  UNL     1      25.638   0.231  52.720  1.00  0.00     0.044 C 
BRANCH   5   6
HETATM    6  C8  UNL     1      27.063  -0.015  53.026  1.00  0.00    -0.055 A 
HETATM    7  C9  UNL     1      27.906   1.062  53.297  1.00  0.00     0.007 A 
HETATM    8  C10 UNL     1      29.245   0.847  53.599  1.00  0.00     0.003 A 
HETATM    9  C11 UNL     1      29.734  -0.442  53.631  1.00  0.00     0.042 A 
HETATM   10  C12 UNL     1      28.945  -1.550  53.370  1.00  0.00     0.116 A 
HETATM   11  F1  UNL     1      29.401  -2.827  53.395  1.00  0.00    -0.206 F 
HETATM   12  C13 UNL     1      27.622  -1.293  53.073  1.00  0.00     0.049 A 
ENDBRANCH   5   6
ENDBRANCH   4   5
ENDBRANCH   2   4
BRANCH   1  13
HETATM   13  C3  UNL     1      24.868   3.207  49.854  1.00  0.00     0.056 C 
HETATM   14  C2  UNL     1      23.693   3.212  49.202  1.00  0.00     0.001 C 
HETATM   15  C1  UNL     1      22.464   2.395  49.361  1.00  0.00     0.038 C 
BRANCH  13  16
HETATM   16  N1  UNL     1      25.802   4.167  49.388  1.00  0.00    -0.228 N 
HETATM   17  C14 UNL     1      25.272   5.495  49.193  1.00  0.00     0.118 A 
HETATM   18  C15 UNL     1      26.136   6.420  48.755  1.00  0.00     0.016 A 
HETATM   19  C16 UNL     1      27.560   6.133  48.477  1.00  0.00     0.204 A 
HETATM   20  N2  UNL     1      27.942   4.764  48.719  1.00  0.00    -0.171 NA
HETATM   21  N3  UNL     1      27.163   3.869  49.128  1.00  0.00    -0.066 NA
ENDBRANCH  13  16
ENDBRANCH   1  13
TORSDOF 5
ENDMDL
MODEL 7
REMARK VINA RESULT:      -7.5      3.102      4.012
REMARK  5 active torsions:
REMARK  status: ('A' for Active; 'I' for Inactive)
REMARK    1  A    between atoms: C3_3  and  C4_4 
REMARK    2  A    between atoms: C3_3  and  N1_16 
REMARK    3  A    between atoms: C5_5  and  C6_7 
REMARK    4  A    between atoms: C6_7  and  C7_8 
REMARK    5  A    between atoms: C7_8  and  C8_9 
ROOT
HETATM    1  C4  UNL     1      24.590   2.530  53.156  1.00  0.00     0.051 C 
HETATM    2  C5  UNL     1      24.663   3.142  51.969  1.00  0.00     0.014 C 
HETATM    3 CL1  UNL     1      25.741   2.384  50.817  1.00  0.00    -0.089 Cl
ENDROOT
BRANCH   2   4
HETATM    4  C6  UNL     1      23.869   4.352  51.676  1.00  0.00     0.056 C 
BRANCH   4   5
HETATM    5  C7  UNL     1      22.431   4.072  51.424  1.00  0.00     0.044 C 
BRANCH   5   6
HETATM    6  C8  UNL     1      22.148   2.997  50.450  1.00  0.00    -0.055 A 
HETATM    7  C9  UNL     1      21.485   1.844  50.869  1.00  0.00     0.007 A 
HETATM    8  C10 UNL     1      21.198   0.830  49.964  1.00  0.00     0.003 A 
HETATM    9  C11 UNL     1      21.575   0.973  48.645  1.00  0.00     0.042 A 
HETATM   10  C12 UNL     1      22.236   2.094  48.172  1.00  0.00     0.116 A 
HETATM   11  F1  UNL     1      22.617   2.259  46.880  1.00  0.00    -0.206 F 
HETATM   12  C13 UNL     1      22.502   3.077  49.102  1.00  0.00     0.049 A 
ENDBRANCH   5   6
ENDBRANCH   4   5
ENDBRANCH   2   4
BRANCH   1  13
HETATM   13  C3  UNL     1      25.315   1.345  53.511  1.00  0.00     0.056 C 
HETATM   14  C2  UNL     1      24.715   0.143  53.551  1.00  0.00     0.001 C 
HETATM   15  C1  UNL     1      23.318  -0.281  53.279  1.00  0.00     0.038 C 
BRANCH  13  16
HETATM   16  N1  UNL     1      26.693   1.324  53.845  1.00  0.00    -0.228 N 
HETATM   17  C14 UNL     1      27.262   0.010  54.024  1.00  0.00     0.118 A 
HETATM   18  C15 UNL     1      28.563  -0.035  54.338  1.00  0.00     0.016 A 
HETATM   19  C16 UNL     1      29.401   1.173  54.500  1.00  0.00     0.204 A 
HETATM   20  N2  UNL     1      28.694   2.411  54.289  1.00  0.00    -0.171 NA
HETATM   21  N3  UNL     1      27.477   2.496  53.995  1.00  0.00    -0.066 NA
ENDBRANCH  13  16
ENDBRANCH   1  13
TORSDOF 5
ENDMDL
MODEL 8
REMARK VINA RESULT:      -7.5      3.073      6.367
REMARK  5 active torsions:
REMARK  status: ('A' for Active; 'I' for Inactive)
REMARK    1  A    between atoms: C3_3  and  C4_4 
REMARK    2  A    between atoms: C3_3  and  N1_16 
REMARK    3  A    between atoms: C5_5  and  C6_7 
REMARK    4  A    between atoms: C6_7  and  C7_8 
REMARK    5  A    between atoms: C7_8  and  C8_9 
ROOT
HETATM    1  C4  UNL     1      24.743   1.647  51.378  1.00  0.00     0.051 C 
HETATM    2  C5  UNL     1      23.707   2.308  51.904  1.00  0.00     0.014 C 
HETATM    3 CL1  UNL     1      24.139   3.629  52.966  1.00  0.00    -0.089 Cl
ENDROOT
BRANCH   2   4
HETATM    4  C6  UNL     1      22.314   1.939  51.578  1.00  0.00     0.056 C 
BRANCH   4   5
HETATM    5  C7  UNL     1      21.425   1.871  52.767  1.00  0.00     0.044 C 
BRANCH   5   6
HETATM    6  C8  UNL     1      21.308   0.543  53.407  1.00  0.00    -0.055 A 
HETATM    7  C9  UNL     1      20.182  -0.243  53.164  1.00  0.00     0.007 A 
HETATM    8  C10 UNL     1      20.062  -1.498  53.746  1.00  0.00     0.003 A 
HETATM    9  C11 UNL     1      21.067  -1.963  54.567  1.00  0.00     0.042 A 
HETATM   10  C12 UNL     1      22.208  -1.227  54.846  1.00  0.00     0.116 A 
HETATM   11  F1  UNL     1      23.211  -1.661  55.649  1.00  0.00    -0.206 F 
HETATM   12  C13 UNL     1      22.287   0.014  54.248  1.00  0.00     0.049 A 
ENDBRANCH   5   6
ENDBRANCH   4   5
ENDBRANCH   2   4
BRANCH   1  13
HETATM   13  C3  UNL     1      26.121   1.955  51.631  1.00  0.00     0.056 C 
HETATM   14  C2  UNL     1      26.788   2.850  50.882  1.00  0.00     0.001 C 
HETATM   15  C1  UNL     1      26.373   3.685  49.726  1.00  0.00     0.038 C 
BRANCH  13  16
HETATM   16  N1  UNL     1      26.893   1.363  52.663  1.00  0.00    -0.228 N 
HETATM   17  C14 UNL     1      27.094  -0.061  52.540  1.00  0.00     0.118 A 
HETATM   18  C15 UNL     1      27.822  -0.642  53.503  1.00  0.00     0.016 A 
HETATM   19  C16 UNL     1      28.403   0.101  54.642  1.00  0.00     0.204 A 
HETATM   20  N2  UNL     1      28.118   1.514  54.628  1.00  0.00    -0.171 NA
HETATM   21  N3  UNL     1      27.440   2.096  53.746  1.00  0.00    -0.066 NA
ENDBRANCH  13  16
ENDBRANCH   1  13
TORSDOF 5
ENDMDL
MODEL 9
REMARK VINA RESULT:      -7.4      4.029      6.655
REMARK  5 active torsions:
REMARK  status: ('A' for Active; 'I' for Inactive)
REMARK    1  A    between atoms: C3_3  and  C4_4 
REMARK    2  A    between atoms: C3_3  and  N1_16 
REMARK    3  A    between atoms: C5_5  and  C6_7 
REMARK    4  A    between atoms: C6_7  and  C7_8 
REMARK    5  A    between atoms: C7_8  and  C8_9 
ROOT
HETATM    1  C4  UNL     1      23.295   1.904  51.084  1.00  0.00     0.051 C 
HETATM    2  C5  UNL     1      24.255   2.789  51.369  1.00  0.00     0.014 C 
HETATM    3 CL1  UNL     1      23.908   3.837  52.727  1.00  0.00    -0.089 Cl
ENDROOT
BRANCH   2   4
HETATM    4  C6  UNL     1      25.509   2.843  50.591  1.00  0.00     0.056 C 
BRANCH   4   5
HETATM    5  C7  UNL     1      26.724   2.576  51.405  1.00  0.00     0.044 C 
BRANCH   5   6
HETATM    6  C8  UNL     1      26.658   1.394  52.289  1.00  0.00    -0.055 A 
HETATM    7  C9  UNL     1      26.570   1.568  53.669  1.00  0.00     0.007 A 
HETATM    8  C10 UNL     1      26.494   0.468  54.513  1.00  0.00     0.003 A 
HETATM    9  C11 UNL     1      26.505  -0.801  53.975  1.00  0.00     0.042 A 
HETATM   10  C12 UNL     1      26.592  -1.036  52.613  1.00  0.00     0.116 A 
HETATM   11  F1  UNL     1      26.606  -2.274  52.058  1.00  0.00    -0.206 F 
HETATM   12  C13 UNL     1      26.666   0.083  51.810  1.00  0.00     0.049 A 
ENDBRANCH   5   6
ENDBRANCH   4   5
ENDBRANCH   2   4
BRANCH   1  13
HETATM   13  C3  UNL     1      22.059   1.778  51.801  1.00  0.00     0.056 C 
HETATM   14  C2  UNL     1      21.936   0.938  52.842  1.00  0.00     0.001 C 
HETATM   15  C1  UNL     1      22.897   0.010  53.490  1.00  0.00     0.038 C 
BRANCH  13  16
HETATM   16  N1  UNL     1      20.881   2.504  51.490  1.00  0.00    -0.228 N 
HETATM   17  C14 UNL     1      20.720   2.849  50.098  1.00  0.00     0.118 A 
HETATM   18  C15 UNL     1      19.614   3.533  49.781  1.00  0.00     0.016 A 
HETATM   19  C16 UNL     1      18.593   3.931  50.774  1.00  0.00     0.204 A 
HETATM   20  N2  UNL     1      18.891   3.517  52.122  1.00  0.00    -0.171 NA
HETATM   21  N3  UNL     1      19.916   2.876  52.460  1.00  0.00    -0.066 NA
ENDBRANCH  13  16
ENDBRANCH   1  13
TORSDOF 5
ENDMDL
