MODEL 1
REMARK VINA RESULT:      -8.4      0.000      0.000
REMARK  6 active torsions:
REMARK  status: ('A' for Active; 'I' for Inactive)
REMARK    1  A    between atoms: C2_2  and  N1_3 
REMARK    2  A    between atoms: C5_7  and  N3_8 
REMARK    3  A    between atoms: N3_8  and  C6_9 
REMARK    4  A    between atoms: C12_17  and  N5_18 
REMARK    5  A    between atoms: N5_18  and  C13_19 
REMARK    6  A    between atoms: C17_23  and  N6_24 
ROOT
HETATM    1  N1  UNL     1      22.314   0.256  52.301  1.00  0.00    -0.324 N 
HETATM    2  C3  UNL     1      22.709  -0.759  53.080  1.00  0.00     0.212 A 
HETATM    3  N2  UNL     1      23.872  -0.417  53.702  1.00  0.00    -0.236 NA
HETATM    4  C4  UNL     1      24.144   0.813  53.270  1.00  0.00     0.151 A 
HETATM    5  C5  UNL     1      25.186   1.662  53.556  1.00  0.00     0.180 A 
HETATM    6  N4  UNL     1      25.279   2.880  53.011  1.00  0.00    -0.043 NA
HETATM    7  C12 UNL     1      24.340   3.316  52.152  1.00  0.00     0.726 A 
HETATM    8  N7  UNL     1      23.297   2.508  51.844  1.00  0.00    -0.042 NA
HETATM    9  C18 UNL     1      23.177   1.280  52.377  1.00  0.00     0.182 A 
ENDROOT
BRANCH   7  10
HETATM   10  N5  UNL     1      24.459   4.621  51.603  1.00  0.00    -0.216 N 
HETATM   11  H12 UNL     1      24.397   5.455  52.215  1.00  0.00     0.178 HD
BRANCH  10  12
HETATM   12  C13 UNL     1      24.663   4.844  50.207  1.00  0.00     0.132 C 
HETATM   13  C14 UNL     1      25.774   3.994  49.626  1.00  0.00     0.028 C 
HETATM   14  C15 UNL     1      26.755   5.034  49.070  1.00  0.00     0.004 C 
HETATM   15  C16 UNL     1      25.756   6.083  48.558  1.00  0.00     0.037 C 
HETATM   16  C17 UNL     1      24.921   6.270  49.825  1.00  0.00     0.240 C 
BRANCH  16  17
HETATM   17  N6  UNL     1      25.697   7.010  50.808  1.00  0.00     0.085 N 
HETATM   18  H21 UNL     1      25.644   8.038  50.545  1.00  0.00     0.313 HD
HETATM   19  H22 UNL     1      25.318   6.863  51.769  1.00  0.00     0.313 HD
ENDBRANCH  16  17
ENDBRANCH  10  12
ENDBRANCH   7  10
BRANCH   5  20
HETATM   20  N3  UNL     1      26.259   1.366  54.443  1.00  0.00    -0.338 N 
HETATM   21  H7  UNL     1      26.001   1.667  55.387  1.00  0.00     0.167 HD
BRANCH  20  22
HETATM   22  C6  UNL     1      27.485   0.754  54.070  1.00  0.00     0.035 A 
HETATM   23  C7  UNL     1      28.643   1.530  54.051  1.00  0.00     0.029 A 
HETATM   24  C8  UNL     1      29.819   0.895  53.694  1.00  0.00     0.004 A 
HETATM   25  C9  UNL     1      29.826  -0.456  53.371  1.00  0.00     0.024 A 
HETATM   26  C10 UNL     1      28.662  -1.215  53.396  1.00  0.00     0.036 A 
HETATM   27 CL1  UNL     1      28.743  -2.924  52.980  1.00  0.00    -0.084 Cl
HETATM   28  C11 UNL     1      27.489  -0.587  53.751  1.00  0.00     0.053 A 
ENDBRANCH  20  22
ENDBRANCH   5  20
BRANCH   1  29
HETATM   29  C2  UNL     1      21.101   0.244  51.472  1.00  0.00     0.127 C 
HETATM   30  C1  UNL     1      19.944   0.118  52.463  1.00  0.00     0.027 C 
ENDBRANCH   1  29
TORSDOF 6
ENDMDL
MODEL 2
REMARK VINA RESULT:      -8.1      2.724      5.892
REMARK  6 active torsions:
REMARK  status: ('A' for Active; 'I' for Inactive)
REMARK    1  A    between atoms: C2_2  and  N1_3 
REMARK    2  A    between atoms: C5_7  and  N3_8 
REMARK    3  A    between atoms: N3_8  and  C6_9 
REMARK    4  A    between atoms: C12_17  and  N5_18 
REMARK    5  A    between atoms: N5_18  and  C13_19 
REMARK    6  A    between atoms: C17_23  and  N6_24 
ROOT
HETATM    1  N1  UNL     1      22.341  -0.040  52.564  1.00  0.00    -0.324 N 
HETATM    2  C3  UNL     1      21.542   0.228  51.524  1.00  0.00     0.212 A 
HETATM    3  N2  UNL     1      22.031   1.308  50.852  1.00  0.00    -0.236 NA
HETATM    4  C4  UNL     1      23.127   1.661  51.522  1.00  0.00     0.151 A 
HETATM    5  C5  UNL     1      24.029   2.675  51.309  1.00  0.00     0.180 A 
HETATM    6  N4  UNL     1      25.084   2.865  52.109  1.00  0.00    -0.043 NA
HETATM    7  C12 UNL     1      25.297   2.055  53.162  1.00  0.00     0.726 A 
HETATM    8  N7  UNL     1      24.430   1.043  53.405  1.00  0.00    -0.042 NA
HETATM    9  C18 UNL     1      23.361   0.828  52.619  1.00  0.00     0.182 A 
ENDROOT
BRANCH   7  10
HETATM   10  N5  UNL     1      26.436   2.274  53.983  1.00  0.00    -0.216 N 
HETATM   11  H12 UNL     1      26.414   2.989  54.731  1.00  0.00     0.178 HD
BRANCH  10  12
HETATM   12  C13 UNL     1      27.647   1.534  53.817  1.00  0.00     0.132 C 
HETATM   13  C14 UNL     1      27.755   0.868  52.461  1.00  0.00     0.028 C 
HETATM   14  C15 UNL     1      27.893  -0.618  52.812  1.00  0.00     0.004 C 
HETATM   15  C16 UNL     1      28.751  -0.505  54.081  1.00  0.00     0.037 C 
HETATM   16  C17 UNL     1      27.903   0.496  54.866  1.00  0.00     0.240 C 
BRANCH  16  17
HETATM   17  N6  UNL     1      26.698  -0.166  55.344  1.00  0.00     0.085 N 
HETATM   18  H21 UNL     1      25.867   0.369  54.954  1.00  0.00     0.313 HD
HETATM   19  H22 UNL     1      26.669  -1.159  55.028  1.00  0.00     0.313 HD
ENDBRANCH  16  17
ENDBRANCH  10  12
ENDBRANCH   7  10
BRANCH   5  20
HETATM   20  N3  UNL     1      23.961   3.617  50.245  1.00  0.00    -0.338 N 
HETATM   21  H7  UNL     1      22.996   3.671  49.910  1.00  0.00     0.167 HD
BRANCH  20  22
HETATM   22  C6  UNL     1      25.061   4.358  49.735  1.00  0.00     0.035 A 
HETATM   23  C7  UNL     1      26.214   3.673  49.358  1.00  0.00     0.029 A 
HETATM   24  C8  UNL     1      27.258   4.428  48.856  1.00  0.00     0.004 A 
HETATM   25  C9  UNL     1      27.145   5.808  48.740  1.00  0.00     0.024 A 
HETATM   26  C10 UNL     1      25.986   6.475  49.121  1.00  0.00     0.036 A 
HETATM   27 CL1  UNL     1      25.907   8.225  48.944  1.00  0.00    -0.084 Cl
HETATM   28  C11 UNL     1      24.944   5.727  49.622  1.00  0.00     0.053 A 
ENDBRANCH  20  22
ENDBRANCH   5  20
BRANCH   1  29
HETATM   29  C2  UNL     1      22.122  -1.136  53.518  1.00  0.00     0.127 C 
HETATM   30  C1  UNL     1      21.461  -0.481  54.731  1.00  0.00     0.027 C 
ENDBRANCH   1  29
TORSDOF 6
ENDMDL
MODEL 3
REMARK VINA RESULT:      -8.1      2.382      5.703
REMARK  6 active torsions:
REMARK  status: ('A' for Active; 'I' for Inactive)
REMARK    1  A    between atoms: C2_2  and  N1_3 
REMARK    2  A    between atoms: C5_7  and  N3_8 
REMARK    3  A    between atoms: N3_8  and  C6_9 
REMARK    4  A    between atoms: C12_17  and  N5_18 
REMARK    5  A    between atoms: N5_18  and  C13_19 
REMARK    6  A    between atoms: C17_23  and  N6_24 
ROOT
HETATM    1  N1  UNL     1      27.771   0.301  53.538  1.00  0.00    -0.324 N 
HETATM    2  C3  UNL     1      27.600  -1.023  53.645  1.00  0.00     0.212 A 
HETATM    3  N2  UNL     1      26.271  -1.310  53.550  1.00  0.00    -0.236 NA
HETATM    4  C4  UNL     1      25.676  -0.130  53.386  1.00  0.00     0.151 A 
HETATM    5  C5  UNL     1      24.351   0.201  53.232  1.00  0.00     0.180 A 
HETATM    6  N4  UNL     1      23.950   1.468  53.077  1.00  0.00    -0.043 NA
HETATM    7  C12 UNL     1      24.847   2.471  53.065  1.00  0.00     0.726 A 
HETATM    8  N7  UNL     1      26.162   2.186  53.213  1.00  0.00    -0.042 NA
HETATM    9  C18 UNL     1      26.594   0.923  53.372  1.00  0.00     0.182 A 
ENDROOT
BRANCH   7  10
HETATM   10  N5  UNL     1      24.389   3.804  52.881  1.00  0.00    -0.216 N 
HETATM   11  H12 UNL     1      24.464   4.495  53.649  1.00  0.00     0.178 HD
BRANCH  10  12
HETATM   12  C13 UNL     1      23.810   4.247  51.652  1.00  0.00     0.132 C 
HETATM   13  C14 UNL     1      24.673   3.940  50.445  1.00  0.00     0.028 C 
HETATM   14  C15 UNL     1      24.931   5.325  49.840  1.00  0.00     0.004 C 
HETATM   15  C16 UNL     1      23.570   5.984  50.112  1.00  0.00     0.037 C 
HETATM   16  C17 UNL     1      23.453   5.701  51.610  1.00  0.00     0.240 C 
BRANCH  16  17
HETATM   17  N6  UNL     1      24.381   6.556  52.335  1.00  0.00     0.085 N 
HETATM   18  H21 UNL     1      24.960   5.929  52.969  1.00  0.00     0.313 HD
HETATM   19  H22 UNL     1      25.001   7.075  51.676  1.00  0.00     0.313 HD
ENDBRANCH  16  17
ENDBRANCH  10  12
ENDBRANCH   7  10
BRANCH   5  20
HETATM   20  N3  UNL     1      23.275  -0.729  53.215  1.00  0.00    -0.338 N 
HETATM   21  H7  UNL     1      23.624  -1.646  53.508  1.00  0.00     0.167 HD
BRANCH  20  22
HETATM   22  C6  UNL     1      21.936  -0.427  52.848  1.00  0.00     0.035 A 
HETATM   23  C7  UNL     1      20.918  -0.665  53.770  1.00  0.00     0.029 A 
HETATM   24  C8  UNL     1      19.630  -0.347  53.379  1.00  0.00     0.004 A 
HETATM   25  C9  UNL     1      19.381   0.184  52.121  1.00  0.00     0.024 A 
HETATM   26  C10 UNL     1      20.409   0.415  51.213  1.00  0.00     0.036 A 
HETATM   27 CL1  UNL     1      20.023   1.094  49.635  1.00  0.00    -0.084 Cl
HETATM   28  C11 UNL     1      21.693   0.100  51.598  1.00  0.00     0.053 A 
ENDBRANCH  20  22
ENDBRANCH   5  20
BRANCH   1  29
HETATM   29  C2  UNL     1      29.074   0.977  53.600  1.00  0.00     0.127 C 
HETATM   30  C1  UNL     1      30.108  -0.145  53.527  1.00  0.00     0.027 C 
ENDBRANCH   1  29
TORSDOF 6
ENDMDL
MODEL 4
REMARK VINA RESULT:      -8.0      1.367      1.712
REMARK  6 active torsions:
REMARK  status: ('A' for Active; 'I' for Inactive)
REMARK    1  A    between atoms: C2_2  and  N1_3 
REMARK    2  A    between atoms: C5_7  and  N3_8 
REMARK    3  A    between atoms: N3_8  and  C6_9 
REMARK    4  A    between atoms: C12_17  and  N5_18 
REMARK    5  A    between atoms: N5_18  and  C13_19 
REMARK    6  A    between atoms: C17_23  and  N6_24 
ROOT
HETATM    1  N1  UNL     1      21.982   1.593  50.543  1.00  0.00    -0.324 N 
HETATM    2  C3  UNL     1      21.765   0.492  51.275  1.00  0.00     0.212 A 
HETATM    3  N2  UNL     1      22.793   0.332  52.155  1.00  0.00    -0.236 NA
HETATM    4  C4  UNL     1      23.608   1.358  51.921  1.00  0.00     0.151 A 
HETATM    5  C5  UNL     1      24.800   1.718  52.503  1.00  0.00     0.180 A 
HETATM    6  N4  UNL     1      25.477   2.806  52.120  1.00  0.00    -0.043 NA
HETATM    7  C12 UNL     1      25.003   3.593  51.138  1.00  0.00     0.726 A 
HETATM    8  N7  UNL     1      23.832   3.273  50.539  1.00  0.00    -0.042 NA
HETATM    9  C18 UNL     1      23.130   2.186  50.903  1.00  0.00     0.182 A 
ENDROOT
BRANCH   7  10
HETATM   10  N5  UNL     1      25.739   4.751  50.766  1.00  0.00    -0.216 N 
HETATM   11  H12 UNL     1      26.137   5.374  51.492  1.00  0.00     0.178 HD
BRANCH  10  12
HETATM   12  C13 UNL     1      25.958   5.108  49.401  1.00  0.00     0.132 C 
HETATM   13  C14 UNL     1      27.249   4.546  48.840  1.00  0.00     0.028 C 
HETATM   14  C15 UNL     1      28.016   5.801  48.406  1.00  0.00     0.004 C 
HETATM   15  C16 UNL     1      26.846   6.656  47.897  1.00  0.00     0.037 C 
HETATM   16  C17 UNL     1      25.931   6.579  49.118  1.00  0.00     0.240 C 
BRANCH  16  17
HETATM   17  N6  UNL     1      26.488   7.393  50.189  1.00  0.00     0.085 N 
HETATM   18  H21 UNL     1      27.122   8.118  49.739  1.00  0.00     0.313 HD
HETATM   19  H22 UNL     1      25.731   7.862  50.732  1.00  0.00     0.313 HD
ENDBRANCH  16  17
ENDBRANCH  10  12
ENDBRANCH   7  10
BRANCH   5  20
HETATM   20  N3  UNL     1      25.441   1.005  53.555  1.00  0.00    -0.338 N 
HETATM   21  H7  UNL     1      24.758   0.820  54.295  1.00  0.00     0.167 HD
BRANCH  20  22
HETATM   22  C6  UNL     1      26.807   0.618  53.569  1.00  0.00     0.035 A 
HETATM   23  C7  UNL     1      27.775   1.584  53.840  1.00  0.00     0.029 A 
HETATM   24  C8  UNL     1      29.093   1.165  53.856  1.00  0.00     0.004 A 
HETATM   25  C9  UNL     1      29.420  -0.162  53.610  1.00  0.00     0.024 A 
HETATM   26  C10 UNL     1      28.441  -1.112  53.340  1.00  0.00     0.036 A 
HETATM   27 CL1  UNL     1      28.924  -2.779  53.041  1.00  0.00    -0.084 Cl
HETATM   28  C11 UNL     1      27.127  -0.700  53.324  1.00  0.00     0.053 A 
ENDBRANCH  20  22
ENDBRANCH   5  20
BRANCH   1  29
HETATM   29  C2  UNL     1      21.084   2.078  49.487  1.00  0.00     0.127 C 
HETATM   30  C1  UNL     1      21.609   1.447  48.198  1.00  0.00     0.027 C 
ENDBRANCH   1  29
TORSDOF 6
ENDMDL
MODEL 5
REMARK VINA RESULT:      -7.9      2.184      2.984
REMARK  6 active torsions:
REMARK  status: ('A' for Active; 'I' for Inactive)
REMARK    1  A    between atoms: C2_2  and  N1_3 
REMARK    2  A    between atoms: C5_7  and  N3_8 
REMARK    3  A    between atoms: N3_8  and  C6_9 
REMARK    4  A    between atoms: C12_17  and  N5_18 
REMARK    5  A    between atoms: N5_18  and  C13_19 
REMARK    6  A    between atoms: C17_23  and  N6_24 
ROOT
HETATM    1  N1  UNL     1      21.942   2.399  49.354  1.00  0.00    -0.324 N 
HETATM    2  C3  UNL     1      21.513   1.321  50.024  1.00  0.00     0.212 A 
HETATM    3  N2  UNL     1      22.345   1.092  51.079  1.00  0.00    -0.236 NA
HETATM    4  C4  UNL     1      23.262   2.055  51.009  1.00  0.00     0.151 A 
HETATM    5  C5  UNL     1      24.346   2.331  51.806  1.00  0.00     0.180 A 
HETATM    6  N4  UNL     1      25.160   3.365  51.565  1.00  0.00    -0.043 NA
HETATM    7  C12 UNL     1      24.935   4.179  50.518  1.00  0.00     0.726 A 
HETATM    8  N7  UNL     1      23.876   3.942  49.709  1.00  0.00    -0.042 NA
HETATM    9  C18 UNL     1      23.042   2.910  49.926  1.00  0.00     0.182 A 
ENDROOT
BRANCH   7  10
HETATM   10  N5  UNL     1      25.809   5.279  50.300  1.00  0.00    -0.216 N 
HETATM   11  H12 UNL     1      26.107   5.877  51.091  1.00  0.00     0.178 HD
BRANCH  10  12
HETATM   12  C13 UNL     1      26.307   5.610  49.002  1.00  0.00     0.132 C 
HETATM   13  C14 UNL     1      27.569   4.854  48.640  1.00  0.00     0.028 C 
HETATM   14  C15 UNL     1      28.585   5.974  48.384  1.00  0.00     0.004 C 
HETATM   15  C16 UNL     1      27.665   7.011  47.721  1.00  0.00     0.037 C 
HETATM   16  C17 UNL     1      26.558   7.069  48.774  1.00  0.00     0.240 C 
BRANCH  16  17
HETATM   17  N6  UNL     1      27.048   7.772  49.950  1.00  0.00     0.085 N 
HETATM   18  H21 UNL     1      28.102   7.637  49.983  1.00  0.00     0.313 HD
HETATM   19  H22 UNL     1      26.815   8.788  49.900  1.00  0.00     0.313 HD
ENDBRANCH  16  17
ENDBRANCH  10  12
ENDBRANCH   7  10
BRANCH   5  20
HETATM   20  N3  UNL     1      24.727   1.580  52.954  1.00  0.00    -0.338 N 
HETATM   21  H7  UNL     1      23.978   1.633  53.649  1.00  0.00     0.167 HD
BRANCH  20  22
HETATM   22  C6  UNL     1      25.951   0.874  53.102  1.00  0.00     0.035 A 
HETATM   23  C7  UNL     1      26.038  -0.428  52.611  1.00  0.00     0.029 A 
HETATM   24  C8  UNL     1      27.250  -1.077  52.764  1.00  0.00     0.004 A 
HETATM   25  C9  UNL     1      28.321  -0.445  53.383  1.00  0.00     0.024 A 
HETATM   26  C10 UNL     1      28.215   0.854  53.868  1.00  0.00     0.036 A 
HETATM   27 CL1  UNL     1      29.613   1.597  54.639  1.00  0.00    -0.084 Cl
HETATM   28  C11 UNL     1      27.011   1.505  53.717  1.00  0.00     0.053 A 
ENDBRANCH  20  22
ENDBRANCH   5  20
BRANCH   1  29
HETATM   29  C2  UNL     1      21.294   2.942  48.153  1.00  0.00     0.127 C 
HETATM   30  C1  UNL     1      22.233   2.590  47.001  1.00  0.00     0.027 C 
ENDBRANCH   1  29
TORSDOF 6
ENDMDL
MODEL 6
REMARK VINA RESULT:      -7.8      2.852      7.129
REMARK  6 active torsions:
REMARK  status: ('A' for Active; 'I' for Inactive)
REMARK    1  A    between atoms: C2_2  and  N1_3 
REMARK    2  A    between atoms: C5_7  and  N3_8 
REMARK    3  A    between atoms: N3_8  and  C6_9 
REMARK    4  A    between atoms: C12_17  and  N5_18 
REMARK    5  A    between atoms: N5_18  and  C13_19 
REMARK    6  A    between atoms: C17_23  and  N6_24 
ROOT
HETATM    1  N1  UNL     1      28.468   0.598  53.797  1.00  0.00    -0.324 N 
HETATM    2  C3  UNL     1      29.044   1.740  53.400  1.00  0.00     0.212 A 
HETATM    3  N2  UNL     1      28.103   2.535  52.817  1.00  0.00    -0.236 NA
HETATM    4  C4  UNL     1      26.973   1.834  52.882  1.00  0.00     0.151 A 
HETATM    5  C5  UNL     1      25.700   2.129  52.456  1.00  0.00     0.180 A 
HETATM    6  N4  UNL     1      24.682   1.276  52.619  1.00  0.00    -0.043 NA
HETATM    7  C12 UNL     1      24.878   0.087  53.216  1.00  0.00     0.726 A 
HETATM    8  N7  UNL     1      26.118  -0.241  53.650  1.00  0.00    -0.042 NA
HETATM    9  C18 UNL     1      27.160   0.595  53.500  1.00  0.00     0.182 A 
ENDROOT
BRANCH   7  10
HETATM   10  N5  UNL     1      23.772  -0.789  53.389  1.00  0.00    -0.216 N 
HETATM   11  H12 UNL     1      23.797  -1.749  53.000  1.00  0.00     0.178 HD
BRANCH  10  12
HETATM   12  C13 UNL     1      22.591  -0.395  54.090  1.00  0.00     0.132 C 
HETATM   13  C14 UNL     1      21.783  -1.571  54.599  1.00  0.00     0.028 C 
HETATM   14  C15 UNL     1      20.421  -1.377  53.922  1.00  0.00     0.004 C 
HETATM   15  C16 UNL     1      20.327   0.156  53.964  1.00  0.00     0.037 C 
HETATM   16  C17 UNL     1      21.670   0.505  53.324  1.00  0.00     0.240 C 
BRANCH  16  17
HETATM   17  N6  UNL     1      21.615   0.214  51.900  1.00  0.00     0.085 N 
HETATM   18  H21 UNL     1      22.246   0.914  51.408  1.00  0.00     0.313 HD
HETATM   19  H22 UNL     1      21.937  -0.760  51.707  1.00  0.00     0.313 HD
ENDBRANCH  16  17
ENDBRANCH  10  12
ENDBRANCH   7  10
BRANCH   5  20
HETATM   20  N3  UNL     1      25.316   3.339  51.813  1.00  0.00    -0.338 N 
HETATM   21  H7  UNL     1      25.964   4.081  52.088  1.00  0.00     0.167 HD
BRANCH  20  22
HETATM   22  C6  UNL     1      24.208   3.484  50.935  1.00  0.00     0.035 A 
HETATM   23  C7  UNL     1      24.395   3.244  49.575  1.00  0.00     0.029 A 
HETATM   24  C8  UNL     1      23.290   3.384  48.755  1.00  0.00     0.004 A 
HETATM   25  C9  UNL     1      22.057   3.750  49.281  1.00  0.00     0.024 A 
HETATM   26  C10 UNL     1      21.889   3.986  50.641  1.00  0.00     0.036 A 
HETATM   27 CL1  UNL     1      20.298   4.442  51.242  1.00  0.00    -0.084 Cl
HETATM   28  C11 UNL     1      22.987   3.847  51.461  1.00  0.00     0.053 A 
ENDBRANCH  20  22
ENDBRANCH   5  20
BRANCH   1  29
HETATM   29  C2  UNL     1      29.177  -0.503  54.463  1.00  0.00     0.127 C 
HETATM   30  C1  UNL     1      29.644  -1.417  53.332  1.00  0.00     0.027 C 
ENDBRANCH   1  29
TORSDOF 6
ENDMDL
MODEL 7
REMARK VINA RESULT:      -7.8      2.452      5.406
REMARK  6 active torsions:
REMARK  status: ('A' for Active; 'I' for Inactive)
REMARK    1  A    between atoms: C2_2  and  N1_3 
REMARK    2  A    between atoms: C5_7  and  N3_8 
REMARK    3  A    between atoms: N3_8  and  C6_9 
REMARK    4  A    between atoms: C12_17  and  N5_18 
REMARK    5  A    between atoms: N5_18  and  C13_19 
REMARK    6  A    between atoms: C17_23  and  N6_24 
ROOT
HETATM    1  N1  UNL     1      26.549  -0.413  53.074  1.00  0.00    -0.324 N 
HETATM    2  C3  UNL     1      25.476  -0.954  53.666  1.00  0.00     0.212 A 
HETATM    3  N2  UNL     1      24.412  -0.117  53.511  1.00  0.00    -0.236 NA
HETATM    4  C4  UNL     1      24.886   0.917  52.819  1.00  0.00     0.151 A 
HETATM    5  C5  UNL     1      24.274   2.062  52.370  1.00  0.00     0.180 A 
HETATM    6  N4  UNL     1      24.935   2.996  51.678  1.00  0.00    -0.043 NA
HETATM    7  C12 UNL     1      26.241   2.839  51.396  1.00  0.00     0.726 A 
HETATM    8  N7  UNL     1      26.881   1.724  51.821  1.00  0.00    -0.042 NA
HETATM    9  C18 UNL     1      26.242   0.769  52.519  1.00  0.00     0.182 A 
ENDROOT
BRANCH   7  10
HETATM   10  N5  UNL     1      26.911   3.842  50.644  1.00  0.00    -0.216 N 
HETATM   11  H12 UNL     1      27.829   4.206  50.957  1.00  0.00     0.178 HD
BRANCH  10  12
HETATM   12  C13 UNL     1      26.361   4.390  49.446  1.00  0.00     0.132 C 
HETATM   13  C14 UNL     1      27.404   5.025  48.549  1.00  0.00     0.028 C 
HETATM   14  C15 UNL     1      26.922   6.476  48.426  1.00  0.00     0.004 C 
HETATM   15  C16 UNL     1      25.403   6.241  48.395  1.00  0.00     0.037 C 
HETATM   16  C17 UNL     1      25.259   5.384  49.652  1.00  0.00     0.240 C 
BRANCH  16  17
HETATM   17  N6  UNL     1      25.436   6.221  50.828  1.00  0.00     0.085 N 
HETATM   18  H21 UNL     1      26.462   6.493  50.873  1.00  0.00     0.313 HD
HETATM   19  H22 UNL     1      24.838   7.075  50.771  1.00  0.00     0.313 HD
ENDBRANCH  16  17
ENDBRANCH  10  12
ENDBRANCH   7  10
BRANCH   5  20
HETATM   20  N3  UNL     1      22.903   2.387  52.572  1.00  0.00    -0.338 N 
HETATM   21  H7  UNL     1      22.841   3.194  53.198  1.00  0.00     0.167 HD
BRANCH  20  22
HETATM   22  C6  UNL     1      21.804   1.696  51.995  1.00  0.00     0.035 A 
HETATM   23  C7  UNL     1      21.575   1.824  50.626  1.00  0.00     0.029 A 
HETATM   24  C8  UNL     1      20.502   1.126  50.101  1.00  0.00     0.004 A 
HETATM   25  C9  UNL     1      19.699   0.339  50.916  1.00  0.00     0.024 A 
HETATM   26  C10 UNL     1      19.942   0.223  52.280  1.00  0.00     0.036 A 
HETATM   27 CL1  UNL     1      18.887  -0.795  53.255  1.00  0.00    -0.084 Cl
HETATM   28  C11 UNL     1      21.009   0.915  52.808  1.00  0.00     0.053 A 
ENDBRANCH  20  22
ENDBRANCH   5  20
BRANCH   1  29
HETATM   29  C2  UNL     1      27.880  -1.033  53.042  1.00  0.00     0.127 C 
HETATM   30  C1  UNL     1      28.665  -0.345  54.158  1.00  0.00     0.027 C 
ENDBRANCH   1  29
TORSDOF 6
ENDMDL
MODEL 8
REMARK VINA RESULT:      -7.7      2.638      6.928
REMARK  6 active torsions:
REMARK  status: ('A' for Active; 'I' for Inactive)
REMARK    1  A    between atoms: C2_2  and  N1_3 
REMARK    2  A    between atoms: C5_7  and  N3_8 
REMARK    3  A    between atoms: N3_8  and  C6_9 
REMARK    4  A    between atoms: C12_17  and  N5_18 
REMARK    5  A    between atoms: N5_18  and  C13_19 
REMARK    6  A    between atoms: C17_23  and  N6_24 
ROOT
HETATM    1  N1  UNL     1      26.582   1.221  53.435  1.00  0.00    -0.324 N 
HETATM    2  C3  UNL     1      27.590   1.737  52.720  1.00  0.00     0.212 A 
HETATM    3  N2  UNL     1      27.082   2.373  51.627  1.00  0.00    -0.236 NA
HETATM    4  C4  UNL     1      25.763   2.217  51.721  1.00  0.00     0.151 A 
HETATM    5  C5  UNL     1      24.741   2.644  50.908  1.00  0.00     0.180 A 
HETATM    6  N4  UNL     1      23.458   2.381  51.182  1.00  0.00    -0.043 NA
HETATM    7  C12 UNL     1      23.126   1.680  52.281  1.00  0.00     0.726 A 
HETATM    8  N7  UNL     1      24.104   1.241  53.108  1.00  0.00    -0.042 NA
HETATM    9  C18 UNL     1      25.401   1.490  52.858  1.00  0.00     0.182 A 
ENDROOT
BRANCH   7  10
HETATM   10  N5  UNL     1      21.753   1.433  52.552  1.00  0.00    -0.216 N 
HETATM   11  H12 UNL     1      21.112   2.217  52.769  1.00  0.00     0.178 HD
BRANCH  10  12
HETATM   12  C13 UNL     1      21.200   0.116  52.544  1.00  0.00     0.132 C 
HETATM   13  C14 UNL     1      19.852   0.041  51.856  1.00  0.00     0.028 C 
HETATM   14  C15 UNL     1      18.929  -0.495  52.956  1.00  0.00     0.004 C 
HETATM   15  C16 UNL     1      19.893  -1.470  53.651  1.00  0.00     0.037 C 
HETATM   16  C17 UNL     1      21.070  -0.525  53.892  1.00  0.00     0.240 C 
BRANCH  16  17
HETATM   17  N6  UNL     1      20.727   0.409  54.955  1.00  0.00     0.085 N 
HETATM   18  H21 UNL     1      19.667   0.447  55.013  1.00  0.00     0.313 HD
HETATM   19  H22 UNL     1      21.128   0.098  55.866  1.00  0.00     0.313 HD
ENDBRANCH  16  17
ENDBRANCH  10  12
ENDBRANCH   7  10
BRANCH   5  20
HETATM   20  N3  UNL     1      24.912   3.399  49.714  1.00  0.00    -0.338 N 
HETATM   21  H7  UNL     1      24.613   2.831  48.916  1.00  0.00     0.167 HD
BRANCH  20  22
HETATM   22  C6  UNL     1      25.416   4.725  49.648  1.00  0.00     0.035 A 
HETATM   23  C7  UNL     1      24.772   5.725  50.375  1.00  0.00     0.029 A 
HETATM   24  C8  UNL     1      25.300   7.000  50.294  1.00  0.00     0.004 A 
HETATM   25  C9  UNL     1      26.422   7.256  49.517  1.00  0.00     0.024 A 
HETATM   26  C10 UNL     1      27.052   6.247  48.797  1.00  0.00     0.036 A 
HETATM   27 CL1  UNL     1      28.474   6.639  47.835  1.00  0.00    -0.084 Cl
HETATM   28  C11 UNL     1      26.530   4.975  48.875  1.00  0.00     0.053 A 
ENDBRANCH  20  22
ENDBRANCH   5  20
BRANCH   1  29
HETATM   29  C2  UNL     1      26.751   0.460  54.680  1.00  0.00     0.127 C 
HETATM   30  C1  UNL     1      28.235   0.099  54.727  1.00  0.00     0.027 C 
ENDBRANCH   1  29
TORSDOF 6
ENDMDL
MODEL 9
REMARK VINA RESULT:      -7.6      1.562      2.101
REMARK  6 active torsions:
REMARK  status: ('A' for Active; 'I' for Inactive)
REMARK    1  A    between atoms: C2_2  and  N1_3 
REMARK    2  A    between atoms: C5_7  and  N3_8 
REMARK    3  A    between atoms: N3_8  and  C6_9 
REMARK    4  A    between atoms: C12_17  and  N5_18 
REMARK    5  A    between atoms: N5_18  and  C13_19 
REMARK    6  A    between atoms: C17_23  and  N6_24 
ROOT
HETATM    1  N1  UNL     1      20.603   1.479  51.429  1.00  0.00    -0.324 N 
HETATM    2  C3  UNL     1      20.438   0.314  52.069  1.00  0.00     0.212 A 
HETATM    3  N2  UNL     1      21.573   0.025  52.767  1.00  0.00    -0.236 NA
HETATM    4  C4  UNL     1      22.396   1.042  52.521  1.00  0.00     0.151 A 
HETATM    5  C5  UNL     1      23.675   1.296  52.954  1.00  0.00     0.180 A 
HETATM    6  N4  UNL     1      24.344   2.395  52.588  1.00  0.00    -0.043 NA
HETATM    7  C12 UNL     1      23.773   3.300  51.772  1.00  0.00     0.726 A 
HETATM    8  N7  UNL     1      22.514   3.086  51.324  1.00  0.00    -0.042 NA
HETATM    9  C18 UNL     1      21.818   1.991  51.674  1.00  0.00     0.182 A 
ENDROOT
BRANCH   7  10
HETATM   10  N5  UNL     1      24.504   4.466  51.416  1.00  0.00    -0.216 N 
HETATM   11  H12 UNL     1      24.900   5.080  52.150  1.00  0.00     0.178 HD
BRANCH  10  12
HETATM   12  C13 UNL     1      24.722   4.842  50.056  1.00  0.00     0.132 C 
HETATM   13  C14 UNL     1      25.884   4.110  49.416  1.00  0.00     0.028 C 
HETATM   14  C15 UNL     1      26.822   5.248  48.992  1.00  0.00     0.004 C 
HETATM   15  C16 UNL     1      25.781   6.296  48.568  1.00  0.00     0.037 C 
HETATM   16  C17 UNL     1      24.915   6.310  49.828  1.00  0.00     0.240 C 
BRANCH  16  17
HETATM   17  N6  UNL     1      25.636   6.980  50.900  1.00  0.00     0.085 N 
HETATM   18  H21 UNL     1      25.778   7.991  50.603  1.00  0.00     0.313 HD
HETATM   19  H22 UNL     1      25.098   6.938  51.793  1.00  0.00     0.313 HD
ENDBRANCH  16  17
ENDBRANCH  10  12
ENDBRANCH   7  10
BRANCH   5  20
HETATM   20  N3  UNL     1      24.424   0.452  53.822  1.00  0.00    -0.338 N 
HETATM   21  H7  UNL     1      23.828   0.167  54.603  1.00  0.00     0.167 HD
BRANCH  20  22
HETATM   22  C6  UNL     1      25.779   0.074  53.628  1.00  0.00     0.035 A 
HETATM   23  C7  UNL     1      26.055  -1.085  52.905  1.00  0.00     0.029 A 
HETATM   24  C8  UNL     1      27.387  -1.413  52.728  1.00  0.00     0.004 A 
HETATM   25  C9  UNL     1      28.392  -0.612  53.255  1.00  0.00     0.024 A 
HETATM   26  C10 UNL     1      28.098   0.541  53.975  1.00  0.00     0.036 A 
HETATM   27 CL1  UNL     1      29.421   1.513  54.613  1.00  0.00    -0.084 Cl
HETATM   28  C11 UNL     1      26.773   0.872  54.153  1.00  0.00     0.053 A 
ENDBRANCH  20  22
ENDBRANCH   5  20
BRANCH   1  29
HETATM   29  C2  UNL     1      19.587   2.106  50.572  1.00  0.00     0.127 C 
HETATM   30  C1  UNL     1      18.688   2.888  51.528  1.00  0.00     0.027 C 
ENDBRANCH   1  29
TORSDOF 6
ENDMDL
