MODEL 1
REMARK VINA RESULT:      -7.6      0.000      0.000
REMARK  2 active torsions:
REMARK  status: ('A' for Active; 'I' for Inactive)
REMARK    1  A    between atoms: C12_14  and  O1_15 
REMARK    2  A    between atoms: C14_17  and  C15_18 
ROOT
HETATM    1  C1  UNL     1      22.990  -0.506  53.152  1.00  0.00     0.017 C 
HETATM    2  C2  UNL     1      23.252   0.645  53.083  1.00  0.00    -0.082 C 
HETATM    3  C3  UNL     1      23.542   2.019  52.994  1.00  0.00    -0.005 C 
HETATM    4  C4  UNL     1      23.003   3.061  52.463  1.00  0.00     0.016 C 
HETATM    5  C5  UNL     1      22.963   4.468  52.186  1.00  0.00     0.003 C 
HETATM    6  C6  UNL     1      22.238   5.289  51.481  1.00  0.00     0.028 C 
HETATM    7  C7  UNL     1      21.300   5.995  50.620  1.00  0.00     0.046 C 
HETATM    8  N1  UNL     1      21.522   7.231  50.832  1.00  0.00    -0.246 NA
HETATM    9  C8  UNL     1      20.914   8.321  50.282  1.00  0.00     0.227 C 
HETATM   10  N2  UNL     1      21.780   8.266  49.359  1.00  0.00    -0.271 NA
HETATM   11  C9  UNL     1      22.825   7.306  49.256  1.00  0.00     0.163 C 
HETATM   12  C10 UNL     1      23.438   6.078  49.212  1.00  0.00     0.042 C 
HETATM   13  C11 UNL     1      23.157   4.595  49.316  1.00  0.00     0.097 C 
HETATM   14  C12 UNL     1      22.032   3.909  49.632  1.00  0.00     0.088 C 
HETATM   15  C14 UNL     1      20.807   4.667  50.095  1.00  0.00     0.097 C 
HETATM   16  O2  UNL     1      24.429   4.166  49.000  1.00  0.00    -0.347 OA
HETATM   17  C17 UNL     1      25.103   3.138  49.707  1.00  0.00     0.201 C 
HETATM   18  C18 UNL     1      26.447   3.607  50.260  1.00  0.00     0.194 C 
HETATM   19  O3  UNL     1      27.167   2.779  50.933  1.00  0.00    -0.389 OA
HETATM   20  C19 UNL     1      27.164   2.203  52.105  1.00  0.00     0.168 C 
HETATM   21  C20 UNL     1      25.912   1.509  52.547  1.00  0.00     0.031 C 
HETATM   22  C21 UNL     1      24.929   2.453  53.272  1.00  0.00     0.050 C 
ENDROOT
BRANCH  15  23
HETATM   23  C15 UNL     1      19.906   3.978  51.034  1.00  0.00     0.013 C 
HETATM   24  C16 UNL     1      18.859   3.131  50.348  1.00  0.00     0.006 C 
ENDBRANCH  15  23
BRANCH  14  25
HETATM   25  O1  UNL     1      22.387   2.576  49.469  1.00  0.00    -0.357 OA
HETATM   26  C13 UNL     1      21.832   1.663  48.580  1.00  0.00     0.209 C 
ENDBRANCH  14  25
TORSDOF 2
ENDMDL
MODEL 2
REMARK VINA RESULT:      -7.4      2.647      6.046
REMARK  2 active torsions:
REMARK  status: ('A' for Active; 'I' for Inactive)
REMARK    1  A    between atoms: C12_14  and  O1_15 
REMARK    2  A    between atoms: C14_17  and  C15_18 
ROOT
HETATM    1  C1  UNL     1      25.667   7.615  50.465  1.00  0.00     0.017 C 
HETATM    2  C2  UNL     1      24.723   6.982  50.791  1.00  0.00    -0.082 C 
HETATM    3  C3  UNL     1      23.613   6.214  51.190  1.00  0.00    -0.005 C 
HETATM    4  C4  UNL     1      23.411   5.053  51.707  1.00  0.00     0.016 C 
HETATM    5  C5  UNL     1      22.554   4.025  52.223  1.00  0.00     0.003 C 
HETATM    6  C6  UNL     1      22.671   2.801  52.653  1.00  0.00     0.028 C 
HETATM    7  C7  UNL     1      23.052   1.460  53.074  1.00  0.00     0.046 C 
HETATM    8  N1  UNL     1      22.013   0.981  53.635  1.00  0.00    -0.246 NA
HETATM    9  C8  UNL     1      21.831  -0.243  54.207  1.00  0.00     0.227 C 
HETATM   10  N2  UNL     1      21.477  -0.661  53.065  1.00  0.00    -0.271 NA
HETATM   11  C9  UNL     1      21.417   0.120  51.876  1.00  0.00     0.163 C 
HETATM   12  C10 UNL     1      21.827   0.970  50.879  1.00  0.00     0.042 C 
HETATM   13  C11 UNL     1      23.000   1.814  50.432  1.00  0.00     0.097 C 
HETATM   14  C12 UNL     1      24.178   2.114  51.033  1.00  0.00     0.088 C 
HETATM   15  C14 UNL     1      24.416   1.672  52.460  1.00  0.00     0.097 C 
HETATM   16  O2  UNL     1      22.473   2.195  49.216  1.00  0.00    -0.347 OA
HETATM   17  C17 UNL     1      22.531   3.524  48.724  1.00  0.00     0.201 C 
HETATM   18  C18 UNL     1      21.144   4.078  48.402  1.00  0.00     0.194 C 
HETATM   19  O3  UNL     1      21.042   5.280  47.952  1.00  0.00    -0.389 OA
HETATM   20  C19 UNL     1      21.159   6.504  48.389  1.00  0.00     0.168 C 
HETATM   21  C20 UNL     1      22.402   6.868  49.145  1.00  0.00     0.031 C 
HETATM   22  C21 UNL     1      22.284   6.590  50.658  1.00  0.00     0.050 C 
ENDROOT
BRANCH  15  23
HETATM   23  C15 UNL     1      25.292   2.516  53.287  1.00  0.00     0.013 C 
HETATM   24  C16 UNL     1      26.495   1.779  53.832  1.00  0.00     0.006 C 
ENDBRANCH  15  23
BRANCH  14  25
HETATM   25  O1  UNL     1      24.867   2.858  50.082  1.00  0.00    -0.357 OA
HETATM   26  C13 UNL     1      26.228   3.138  50.064  1.00  0.00     0.209 C 
ENDBRANCH  14  25
TORSDOF 2
ENDMDL
MODEL 3
REMARK VINA RESULT:      -7.2      2.954      5.731
REMARK  2 active torsions:
REMARK  status: ('A' for Active; 'I' for Inactive)
REMARK    1  A    between atoms: C12_14  and  O1_15 
REMARK    2  A    between atoms: C14_17  and  C15_18 
ROOT
HETATM    1  C1  UNL     1      20.466   5.340  46.657  1.00  0.00     0.017 C 
HETATM    2  C2  UNL     1      21.476   5.092  47.220  1.00  0.00    -0.082 C 
HETATM    3  C3  UNL     1      22.669   4.778  47.898  1.00  0.00    -0.005 C 
HETATM    4  C4  UNL     1      23.050   3.924  48.783  1.00  0.00     0.016 C 
HETATM    5  C5  UNL     1      24.046   3.325  49.623  1.00  0.00     0.003 C 
HETATM    6  C6  UNL     1      24.097   2.423  50.561  1.00  0.00     0.028 C 
HETATM    7  C7  UNL     1      23.900   1.400  51.579  1.00  0.00     0.046 C 
HETATM    8  N1  UNL     1      25.073   1.042  51.920  1.00  0.00    -0.246 NA
HETATM    9  C8  UNL     1      25.454   0.108  52.839  1.00  0.00     0.227 C 
HETATM   10  N2  UNL     1      25.421   1.031  53.706  1.00  0.00    -0.271 NA
HETATM   11  C9  UNL     1      25.075   2.390  53.461  1.00  0.00     0.163 C 
HETATM   12  C10 UNL     1      24.346   3.468  53.022  1.00  0.00     0.042 C 
HETATM   13  C11 UNL     1      23.077   3.835  52.286  1.00  0.00     0.097 C 
HETATM   14  C12 UNL     1      22.156   3.080  51.640  1.00  0.00     0.088 C 
HETATM   15  C14 UNL     1      22.406   1.598  51.463  1.00  0.00     0.097 C 
HETATM   16  O2  UNL     1      23.170   5.199  52.472  1.00  0.00    -0.347 OA
HETATM   17  C17 UNL     1      22.931   6.144  51.441  1.00  0.00     0.201 C 
HETATM   18  C18 UNL     1      24.126   7.070  51.222  1.00  0.00     0.194 C 
HETATM   19  O3  UNL     1      24.055   7.976  50.310  1.00  0.00    -0.389 OA
HETATM   20  C19 UNL     1      24.065   8.059  49.008  1.00  0.00     0.168 C 
HETATM   21  C20 UNL     1      23.132   7.175  48.236  1.00  0.00     0.031 C 
HETATM   22  C21 UNL     1      23.743   5.795  47.916  1.00  0.00     0.050 C 
ENDROOT
BRANCH  15  23
HETATM   23  C15 UNL     1      21.834   0.959  50.267  1.00  0.00     0.013 C 
HETATM   24  C16 UNL     1      20.381   0.572  50.430  1.00  0.00     0.006 C 
ENDBRANCH  15  23
BRANCH  14  25
HETATM   25  O1  UNL     1      21.181   3.988  51.249  1.00  0.00    -0.357 OA
HETATM   26  C13 UNL     1      19.820   3.930  51.527  1.00  0.00     0.209 C 
ENDBRANCH  14  25
TORSDOF 2
ENDMDL
MODEL 4
REMARK VINA RESULT:      -7.1      2.297      4.601
REMARK  2 active torsions:
REMARK  status: ('A' for Active; 'I' for Inactive)
REMARK    1  A    between atoms: C12_14  and  O1_15 
REMARK    2  A    between atoms: C14_17  and  C15_18 
ROOT
HETATM    1  C1  UNL     1      24.067   0.173  53.456  1.00  0.00     0.017 C 
HETATM    2  C2  UNL     1      23.505   0.528  52.477  1.00  0.00    -0.082 C 
HETATM    3  C3  UNL     1      22.852   0.967  51.310  1.00  0.00    -0.005 C 
HETATM    4  C4  UNL     1      22.908   1.989  50.531  1.00  0.00     0.016 C 
HETATM    5  C5  UNL     1      22.491   2.727  49.373  1.00  0.00     0.003 C 
HETATM    6  C6  UNL     1      22.720   3.895  48.844  1.00  0.00     0.028 C 
HETATM    7  C7  UNL     1      23.126   5.239  48.457  1.00  0.00     0.046 C 
HETATM    8  N1  UNL     1      22.666   5.398  47.280  1.00  0.00    -0.246 NA
HETATM    9  C8  UNL     1      22.766   6.481  46.457  1.00  0.00     0.227 C 
HETATM   10  N2  UNL     1      21.703   6.915  46.993  1.00  0.00    -0.271 NA
HETATM   11  C9  UNL     1      20.967   6.265  48.023  1.00  0.00     0.163 C 
HETATM   12  C10 UNL     1      20.715   5.640  49.220  1.00  0.00     0.042 C 
HETATM   13  C11 UNL     1      21.392   5.148  50.479  1.00  0.00     0.097 C 
HETATM   14  C12 UNL     1      22.698   5.078  50.835  1.00  0.00     0.088 C 
HETATM   15  C14 UNL     1      23.762   5.419  49.815  1.00  0.00     0.097 C 
HETATM   16  O2  UNL     1      20.243   4.777  51.147  1.00  0.00    -0.347 OA
HETATM   17  C17 UNL     1      20.115   3.555  51.857  1.00  0.00     0.201 C 
HETATM   18  C18 UNL     1      18.935   2.723  51.360  1.00  0.00     0.194 C 
HETATM   19  O3  UNL     1      18.701   1.582  51.909  1.00  0.00    -0.389 OA
HETATM   20  C19 UNL     1      19.217   0.384  51.938  1.00  0.00     0.168 C 
HETATM   21  C20 UNL     1      20.681   0.252  52.233  1.00  0.00     0.031 C 
HETATM   22  C21 UNL     1      21.556   0.340  50.965  1.00  0.00     0.050 C 
ENDROOT
BRANCH  15  23
HETATM   23  C15 UNL     1      25.056   4.729  49.939  1.00  0.00     0.013 C 
HETATM   24  C16 UNL     1      26.122   5.282  49.019  1.00  0.00     0.006 C 
ENDBRANCH  15  23
BRANCH  14  25
HETATM   25  O1  UNL     1      22.672   4.618  52.146  1.00  0.00    -0.357 OA
HETATM   26  C13 UNL     1      23.715   4.644  53.063  1.00  0.00     0.209 C 
ENDBRANCH  14  25
TORSDOF 2
ENDMDL
MODEL 5
REMARK VINA RESULT:      -7.1      7.501     10.331
REMARK  2 active torsions:
REMARK  status: ('A' for Active; 'I' for Inactive)
REMARK    1  A    between atoms: C12_14  and  O1_15 
REMARK    2  A    between atoms: C14_17  and  C15_18 
ROOT
HETATM    1  C1  UNL     1      27.185   4.572  49.115  1.00  0.00     0.017 C 
HETATM    2  C2  UNL     1      27.491   5.510  48.463  1.00  0.00    -0.082 C 
HETATM    3  C3  UNL     1      27.877   6.616  47.683  1.00  0.00    -0.005 C 
HETATM    4  C4  UNL     1      28.957   7.045  47.130  1.00  0.00     0.016 C 
HETATM    5  C5  UNL     1      29.688   7.989  46.335  1.00  0.00     0.003 C 
HETATM    6  C6  UNL     1      30.924   8.196  45.981  1.00  0.00     0.028 C 
HETATM    7  C7  UNL     1      32.359   8.222  45.733  1.00  0.00     0.046 C 
HETATM    8  N1  UNL     1      32.523   9.103  44.828  1.00  0.00    -0.246 NA
HETATM    9  C8  UNL     1      33.676   9.519  44.231  1.00  0.00     0.227 C 
HETATM   10  N2  UNL     1      33.782  10.372  45.162  1.00  0.00    -0.271 NA
HETATM   11  C9  UNL     1      32.871  10.542  46.242  1.00  0.00     0.163 C 
HETATM   12  C10 UNL     1      32.085  10.214  47.319  1.00  0.00     0.042 C 
HETATM   13  C11 UNL     1      31.644   9.042  48.167  1.00  0.00     0.097 C 
HETATM   14  C12 UNL     1      31.855   7.709  48.045  1.00  0.00     0.088 C 
HETATM   15  C14 UNL     1      32.547   7.178  46.809  1.00  0.00     0.097 C 
HETATM   16  O2  UNL     1      30.939   9.773  49.100  1.00  0.00    -0.347 OA
HETATM   17  C17 UNL     1      29.656   9.398  49.576  1.00  0.00     0.201 C 
HETATM   18  C18 UNL     1      28.619  10.498  49.360  1.00  0.00     0.194 C 
HETATM   19  O3  UNL     1      27.405  10.293  49.738  1.00  0.00    -0.389 OA
HETATM   20  C19 UNL     1      26.371   9.586  49.374  1.00  0.00     0.168 C 
HETATM   21  C20 UNL     1      26.567   8.119  49.132  1.00  0.00     0.031 C 
HETATM   22  C21 UNL     1      26.995   7.804  47.683  1.00  0.00     0.050 C 
ENDROOT
BRANCH  15  23
HETATM   23  C15 UNL     1      32.181   5.824  46.364  1.00  0.00     0.013 C 
HETATM   24  C16 UNL     1      33.106   4.749  46.890  1.00  0.00     0.006 C 
ENDBRANCH  15  23
BRANCH  14  25
HETATM   25  O1  UNL     1      31.271   7.164  49.182  1.00  0.00    -0.357 OA
HETATM   26  C13 UNL     1      31.798   6.175  50.003  1.00  0.00     0.209 C 
ENDBRANCH  14  25
TORSDOF 2
ENDMDL
MODEL 6
REMARK VINA RESULT:      -7.0      2.140      3.118
REMARK  2 active torsions:
REMARK  status: ('A' for Active; 'I' for Inactive)
REMARK    1  A    between atoms: C12_14  and  O1_15 
REMARK    2  A    between atoms: C14_17  and  C15_18 
ROOT
HETATM    1  C1  UNL     1      18.366  -0.508  51.582  1.00  0.00     0.017 C 
HETATM    2  C2  UNL     1      19.072   0.334  52.022  1.00  0.00    -0.082 C 
HETATM    3  C3  UNL     1      19.906   1.348  52.526  1.00  0.00    -0.005 C 
HETATM    4  C4  UNL     1      20.418   2.446  52.093  1.00  0.00     0.016 C 
HETATM    5  C5  UNL     1      21.205   3.634  52.261  1.00  0.00     0.003 C 
HETATM    6  C6  UNL     1      21.632   4.617  51.521  1.00  0.00     0.028 C 
HETATM    7  C7  UNL     1      21.993   5.593  50.502  1.00  0.00     0.046 C 
HETATM    8  N1  UNL     1      22.519   6.561  51.141  1.00  0.00    -0.246 NA
HETATM    9  C8  UNL     1      23.026   7.733  50.662  1.00  0.00     0.227 C 
HETATM   10  N2  UNL     1      24.136   7.135  50.538  1.00  0.00    -0.271 NA
HETATM   11  C9  UNL     1      24.389   5.773  50.864  1.00  0.00     0.163 C 
HETATM   12  C10 UNL     1      24.231   4.409  50.882  1.00  0.00     0.042 C 
HETATM   13  C11 UNL     1      23.345   3.299  50.363  1.00  0.00     0.097 C 
HETATM   14  C12 UNL     1      22.175   3.322  49.679  1.00  0.00     0.088 C 
HETATM   15  C14 UNL     1      21.483   4.646  49.440  1.00  0.00     0.097 C 
HETATM   16  O2  UNL     1      24.108   2.250  50.830  1.00  0.00    -0.347 OA
HETATM   17  C17 UNL     1      23.559   1.115  51.480  1.00  0.00     0.201 C 
HETATM   18  C18 UNL     1      24.162   0.900  52.867  1.00  0.00     0.194 C 
HETATM   19  O3  UNL     1      23.752  -0.091  53.578  1.00  0.00    -0.389 OA
HETATM   20  C19 UNL     1      22.692  -0.440  54.255  1.00  0.00     0.168 C 
HETATM   21  C20 UNL     1      21.358  -0.344  53.578  1.00  0.00     0.031 C 
HETATM   22  C21 UNL     1      20.708   1.048  53.733  1.00  0.00     0.050 C 
ENDROOT
BRANCH  15  23
HETATM   23  C15 UNL     1      20.014   4.629  49.345  1.00  0.00     0.013 C 
HETATM   24  C16 UNL     1      19.506   4.301  47.959  1.00  0.00     0.006 C 
ENDBRANCH  15  23
BRANCH  14  25
HETATM   25  O1  UNL     1      21.904   1.985  49.417  1.00  0.00    -0.357 OA
HETATM   26  C13 UNL     1      21.850   1.369  48.173  1.00  0.00     0.209 C 
ENDBRANCH  14  25
TORSDOF 2
ENDMDL
MODEL 7
REMARK VINA RESULT:      -6.9      2.785      6.283
REMARK  2 active torsions:
REMARK  status: ('A' for Active; 'I' for Inactive)
REMARK    1  A    between atoms: C12_14  and  O1_15 
REMARK    2  A    between atoms: C14_17  and  C15_18 
ROOT
HETATM    1  C1  UNL     1      18.751   5.286  48.223  1.00  0.00     0.017 C 
HETATM    2  C2  UNL     1      19.147   4.887  49.264  1.00  0.00    -0.082 C 
HETATM    3  C3  UNL     1      19.640   4.415  50.495  1.00  0.00    -0.005 C 
HETATM    4  C4  UNL     1      20.776   4.044  50.972  1.00  0.00     0.016 C 
HETATM    5  C5  UNL     1      21.613   3.572  52.037  1.00  0.00     0.003 C 
HETATM    6  C6  UNL     1      22.847   3.186  52.192  1.00  0.00     0.028 C 
HETATM    7  C7  UNL     1      24.248   2.796  52.112  1.00  0.00     0.046 C 
HETATM    8  N1  UNL     1      24.618   2.640  53.320  1.00  0.00    -0.246 NA
HETATM    9  C8  UNL     1      25.840   2.278  53.806  1.00  0.00     0.227 C 
HETATM   10  N2  UNL     1      25.459   1.074  53.706  1.00  0.00    -0.271 NA
HETATM   11  C9  UNL     1      24.190   0.640  53.230  1.00  0.00     0.163 C 
HETATM   12  C10 UNL     1      23.106   0.522  52.395  1.00  0.00     0.042 C 
HETATM   13  C11 UNL     1      22.547   1.021  51.082  1.00  0.00     0.097 C 
HETATM   14  C12 UNL     1      22.976   1.976  50.222  1.00  0.00     0.088 C 
HETATM   15  C14 UNL     1      24.157   2.841  50.605  1.00  0.00     0.097 C 
HETATM   16  O2  UNL     1      21.441   0.196  51.052  1.00  0.00    -0.347 OA
HETATM   17  C17 UNL     1      20.142   0.648  50.705  1.00  0.00     0.201 C 
HETATM   18  C18 UNL     1      19.121   0.359  51.803  1.00  0.00     0.194 C 
HETATM   19  O3  UNL     1      17.898   0.721  51.628  1.00  0.00    -0.389 OA
HETATM   20  C19 UNL     1      17.194   1.819  51.603  1.00  0.00     0.168 C 
HETATM   21  C20 UNL     1      17.675   2.947  50.740  1.00  0.00     0.031 C 
HETATM   22  C21 UNL     1      18.665   3.878  51.470  1.00  0.00     0.050 C 
ENDROOT
BRANCH  15  23
HETATM   23  C15 UNL     1      24.187   4.212  50.069  1.00  0.00     0.013 C 
HETATM   24  C16 UNL     1      25.471   4.544  49.342  1.00  0.00     0.006 C 
ENDBRANCH  15  23
BRANCH  14  25
HETATM   25  O1  UNL     1      22.085   1.905  49.158  1.00  0.00    -0.357 OA
HETATM   26  C13 UNL     1      22.392   1.946  47.803  1.00  0.00     0.209 C 
ENDBRANCH  14  25
TORSDOF 2
ENDMDL
MODEL 8
REMARK VINA RESULT:      -6.8      9.533     11.930
REMARK  2 active torsions:
REMARK  status: ('A' for Active; 'I' for Inactive)
REMARK    1  A    between atoms: C12_14  and  O1_15 
REMARK    2  A    between atoms: C14_17  and  C15_18 
ROOT
HETATM    1  C1  UNL     1      35.243   5.838  42.476  1.00  0.00     0.017 C 
HETATM    2  C2  UNL     1      34.441   5.741  43.340  1.00  0.00    -0.082 C 
HETATM    3  C3  UNL     1      33.481   5.648  44.365  1.00  0.00    -0.005 C 
HETATM    4  C4  UNL     1      32.752   6.460  45.046  1.00  0.00     0.016 C 
HETATM    5  C5  UNL     1      31.758   6.746  46.040  1.00  0.00     0.003 C 
HETATM    6  C6  UNL     1      31.236   7.797  46.604  1.00  0.00     0.028 C 
HETATM    7  C7  UNL     1      30.818   9.106  47.089  1.00  0.00     0.046 C 
HETATM    8  N1  UNL     1      29.792   8.880  47.808  1.00  0.00    -0.246 NA
HETATM    9  C8  UNL     1      29.012   9.763  48.496  1.00  0.00     0.227 C 
HETATM   10  N2  UNL     1      29.803   9.610  49.475  1.00  0.00    -0.271 NA
HETATM   11  C9  UNL     1      30.951   8.769  49.492  1.00  0.00     0.163 C 
HETATM   12  C10 UNL     1      32.147   8.225  49.093  1.00  0.00     0.042 C 
HETATM   13  C11 UNL     1      33.189   8.295  48.000  1.00  0.00     0.097 C 
HETATM   14  C12 UNL     1      33.222   8.969  46.824  1.00  0.00     0.088 C 
HETATM   15  C14 UNL     1      31.993   9.728  46.372  1.00  0.00     0.097 C 
HETATM   16  O2  UNL     1      34.094   7.433  48.582  1.00  0.00    -0.347 OA
HETATM   17  C17 UNL     1      34.765   6.407  47.866  1.00  0.00     0.201 C 
HETATM   18  C18 UNL     1      34.529   5.029  48.482  1.00  0.00     0.194 C 
HETATM   19  O3  UNL     1      35.072   4.000  47.931  1.00  0.00    -0.389 OA
HETATM   20  C19 UNL     1      34.929   3.273  46.857  1.00  0.00     0.168 C 
HETATM   21  C20 UNL     1      34.863   3.974  45.533  1.00  0.00     0.031 C 
HETATM   22  C21 UNL     1      33.428   4.396  45.151  1.00  0.00     0.050 C 
ENDROOT
BRANCH  15  23
HETATM   23  C15 UNL     1      31.778   9.853  44.921  1.00  0.00     0.013 C 
HETATM   24  C16 UNL     1      32.065  11.240  44.389  1.00  0.00     0.006 C 
ENDBRANCH  15  23
BRANCH  14  25
HETATM   25  O1  UNL     1      34.482   8.696  46.307  1.00  0.00    -0.357 OA
HETATM   26  C13 UNL     1      35.182   9.442  45.367  1.00  0.00     0.209 C 
ENDBRANCH  14  25
TORSDOF 2
ENDMDL
MODEL 9
REMARK VINA RESULT:      -6.6      7.790     10.861
REMARK  2 active torsions:
REMARK  status: ('A' for Active; 'I' for Inactive)
REMARK    1  A    between atoms: C12_14  and  O1_15 
REMARK    2  A    between atoms: C14_17  and  C15_18 
ROOT
HETATM    1  C1  UNL     1      27.088  12.414  48.074  1.00  0.00     0.017 C 
HETATM    2  C2  UNL     1      27.747  11.563  48.564  1.00  0.00    -0.082 C 
HETATM    3  C3  UNL     1      28.549  10.558  49.134  1.00  0.00    -0.005 C 
HETATM    4  C4  UNL     1      29.709  10.043  48.915  1.00  0.00     0.016 C 
HETATM    5  C5  UNL     1      30.774   9.135  49.226  1.00  0.00     0.003 C 
HETATM    6  C6  UNL     1      31.912   8.772  48.707  1.00  0.00     0.028 C 
HETATM    7  C7  UNL     1      33.124   8.531  47.937  1.00  0.00     0.046 C 
HETATM    8  N1  UNL     1      33.854   7.805  48.686  1.00  0.00    -0.246 NA
HETATM    9  C8  UNL     1      35.097   7.297  48.446  1.00  0.00     0.227 C 
HETATM   10  N2  UNL     1      34.524   6.291  47.931  1.00  0.00    -0.271 NA
HETATM   11  C9  UNL     1      33.117   6.104  47.816  1.00  0.00     0.163 C 
HETATM   12  C10 UNL     1      31.810   6.378  47.497  1.00  0.00     0.042 C 
HETATM   13  C11 UNL     1      30.922   7.446  46.899  1.00  0.00     0.097 C 
HETATM   14  C12 UNL     1      31.176   8.720  46.512  1.00  0.00     0.088 C 
HETATM   15  C14 UNL     1      32.535   9.322  46.793  1.00  0.00     0.097 C 
HETATM   16  O2  UNL     1      29.759   6.704  46.890  1.00  0.00    -0.347 OA
HETATM   17  C17 UNL     1      28.505   7.216  47.311  1.00  0.00     0.201 C 
HETATM   18  C18 UNL     1      27.886   6.375  48.426  1.00  0.00     0.194 C 
HETATM   19  O3  UNL     1      26.748   6.727  48.914  1.00  0.00    -0.389 OA
HETATM   20  C19 UNL     1      26.256   7.661  49.681  1.00  0.00     0.168 C 
HETATM   21  C20 UNL     1      26.583   9.088  49.355  1.00  0.00     0.031 C 
HETATM   22  C21 UNL     1      27.894   9.566  50.015  1.00  0.00     0.050 C 
ENDROOT
BRANCH  15  23
HETATM   23  C15 UNL     1      32.592  10.777  47.012  1.00  0.00     0.013 C 
HETATM   24  C16 UNL     1      32.815  11.566  45.741  1.00  0.00     0.006 C 
ENDBRANCH  15  23
BRANCH  14  25
HETATM   25  O1  UNL     1      29.976   9.156  45.962  1.00  0.00    -0.357 OA
HETATM   26  C13 UNL     1      29.762   9.593  44.660  1.00  0.00     0.209 C 
ENDBRANCH  14  25
TORSDOF 2
ENDMDL
