MODEL 1
REMARK VINA RESULT:      -8.5      0.000      0.000
REMARK  5 active torsions:
REMARK  status: ('A' for Active; 'I' for Inactive)
REMARK    1  A    between atoms: C3_4  and  N1_5 
REMARK    2  A    between atoms: N1_5  and  C4_6 
REMARK    3  A    between atoms: C11_14  and  O1_15 
REMARK    4  A    between atoms: O1_15  and  C12_16 
REMARK    5  A    between atoms: C12_16  and  C13_17 
ROOT
HETATM    1 CL1  UNL     1      22.414   1.910  50.948  1.00  0.00    -0.088 Cl
HETATM    2  C1  UNL     1      22.331   0.673  52.211  1.00  0.00     0.020 C 
HETATM    3  C2  UNL     1      23.516   0.486  52.771  1.00  0.00     0.049 C 
HETATM    4  C3  UNL     1      23.731  -0.480  53.843  1.00  0.00     0.029 C 
HETATM    5  C9  UNL     1      22.844  -1.149  54.601  1.00  0.00     0.031 C 
HETATM    6  C10 UNL     1      21.385  -1.118  54.586  1.00  0.00     0.035 C 
HETATM    7  C11 UNL     1      20.694  -0.559  53.604  1.00  0.00     0.051 C 
HETATM    8  C19 UNL     1      20.954   0.143  52.338  1.00  0.00     0.115 C 
ENDROOT
BRANCH   4   9
HETATM    9  N1  UNL     1      25.095  -0.754  54.128  1.00  0.00    -0.380 N 
HETATM   10  H2  UNL     1      25.292  -1.525  54.830  1.00  0.00     0.160 HD
BRANCH   9  11
HETATM   11  C4  UNL     1      26.191  -0.035  53.512  1.00  0.00     0.126 A 
HETATM   12  C5  UNL     1      26.991   0.643  54.557  1.00  0.00     0.114 A 
HETATM   13  N2  UNL     1      28.242   0.616  54.956  1.00  0.00    -0.275 NA
HETATM   14  C6  UNL     1      29.121  -0.281  54.238  1.00  0.00     0.112 A 
HETATM   15  C7  UNL     1      28.447  -0.912  53.290  1.00  0.00    -0.005 A 
HETATM   16  C8  UNL     1      27.072  -0.979  52.742  1.00  0.00     0.059 A 
ENDBRANCH   9  11
ENDBRANCH   4   9
BRANCH   7  17
HETATM   17  O1  UNL     1      19.317  -0.646  53.799  1.00  0.00    -0.351 OA
BRANCH  17  18
HETATM   18  C12 UNL     1      18.395  -0.579  52.728  1.00  0.00     0.214 C 
BRANCH  18  19
HETATM   19  C13 UNL     1      17.408  -1.680  52.786  1.00  0.00    -0.034 A 
HETATM   20  C14 UNL     1      17.846  -2.772  53.521  1.00  0.00     0.009 A 
HETATM   21  C15 UNL     1      17.064  -3.898  53.688  1.00  0.00     0.001 A 
HETATM   22  C16 UNL     1      15.812  -3.913  53.096  1.00  0.00     0.000 A 
HETATM   23  C17 UNL     1      15.365  -2.834  52.364  1.00  0.00     0.001 A 
HETATM   24  C18 UNL     1      16.159  -1.702  52.199  1.00  0.00     0.009 A 
ENDBRANCH  18  19
ENDBRANCH  17  18
ENDBRANCH   7  17
TORSDOF 5
ENDMDL
MODEL 2
REMARK VINA RESULT:      -8.0      1.216      1.747
REMARK  5 active torsions:
REMARK  status: ('A' for Active; 'I' for Inactive)
REMARK    1  A    between atoms: C3_4  and  N1_5 
REMARK    2  A    between atoms: N1_5  and  C4_6 
REMARK    3  A    between atoms: C11_14  and  O1_15 
REMARK    4  A    between atoms: O1_15  and  C12_16 
REMARK    5  A    between atoms: C12_16  and  C13_17 
ROOT
HETATM    1 CL1  UNL     1      23.449   2.161  50.832  1.00  0.00    -0.088 Cl
HETATM    2  C1  UNL     1      23.209   0.960  52.110  1.00  0.00     0.020 C 
HETATM    3  C2  UNL     1      24.359   0.636  52.679  1.00  0.00     0.049 C 
HETATM    4  C3  UNL     1      24.449  -0.335  53.765  1.00  0.00     0.029 C 
HETATM    5  C9  UNL     1      23.483  -0.879  54.526  1.00  0.00     0.031 C 
HETATM    6  C10 UNL     1      22.039  -0.668  54.503  1.00  0.00     0.035 C 
HETATM    7  C11 UNL     1      21.427  -0.042  53.510  1.00  0.00     0.051 C 
HETATM    8  C19 UNL     1      21.776   0.606  52.237  1.00  0.00     0.115 C 
ENDROOT
BRANCH   4   9
HETATM    9  N1  UNL     1      25.767  -0.771  54.061  1.00  0.00    -0.380 N 
HETATM   10  H2  UNL     1      25.901  -1.317  54.961  1.00  0.00     0.160 HD
BRANCH   9  11
HETATM   11  C4  UNL     1      26.901  -0.502  53.201  1.00  0.00     0.126 A 
HETATM   12  C5  UNL     1      27.909   0.292  53.941  1.00  0.00     0.114 A 
HETATM   13  N2  UNL     1      29.171   0.144  54.272  1.00  0.00    -0.275 NA
HETATM   14  C6  UNL     1      29.804  -1.082  53.838  1.00  0.00     0.112 A 
HETATM   15  C7  UNL     1      28.939  -1.827  53.170  1.00  0.00    -0.005 A 
HETATM   16  C8  UNL     1      27.524  -1.788  52.733  1.00  0.00     0.059 A 
ENDBRANCH   9  11
ENDBRANCH   4   9
BRANCH   7  17
HETATM   17  O1  UNL     1      20.048   0.045  53.698  1.00  0.00    -0.351 OA
BRANCH  17  18
HETATM   18  C12 UNL     1      19.194  -1.074  53.565  1.00  0.00     0.214 C 
BRANCH  18  19
HETATM   19  C13 UNL     1      18.181  -0.867  52.507  1.00  0.00    -0.034 A 
HETATM   20  C14 UNL     1      16.963  -1.467  52.788  1.00  0.00     0.009 A 
HETATM   21  C15 UNL     1      15.892  -1.384  51.919  1.00  0.00     0.001 A 
HETATM   22  C16 UNL     1      16.065  -0.676  50.741  1.00  0.00     0.000 A 
HETATM   23  C17 UNL     1      17.271  -0.076  50.449  1.00  0.00     0.001 A 
HETATM   24  C18 UNL     1      18.346  -0.164  51.330  1.00  0.00     0.009 A 
ENDBRANCH  18  19
ENDBRANCH  17  18
ENDBRANCH   7  17
TORSDOF 5
ENDMDL
MODEL 3
REMARK VINA RESULT:      -7.7      1.695      2.530
REMARK  5 active torsions:
REMARK  status: ('A' for Active; 'I' for Inactive)
REMARK    1  A    between atoms: C3_4  and  N1_5 
REMARK    2  A    between atoms: N1_5  and  C4_6 
REMARK    3  A    between atoms: C11_14  and  O1_15 
REMARK    4  A    between atoms: O1_15  and  C12_16 
REMARK    5  A    between atoms: C12_16  and  C13_17 
ROOT
HETATM    1 CL1  UNL     1      23.484   4.767  52.321  1.00  0.00    -0.088 Cl
HETATM    2  C1  UNL     1      23.482   3.003  52.471  1.00  0.00     0.020 C 
HETATM    3  C2  UNL     1      24.711   2.540  52.639  1.00  0.00     0.049 C 
HETATM    4  C3  UNL     1      24.998   1.118  52.790  1.00  0.00     0.029 C 
HETATM    5  C9  UNL     1      24.169   0.085  53.021  1.00  0.00     0.031 C 
HETATM    6  C10 UNL     1      22.719   0.063  53.191  1.00  0.00     0.035 C 
HETATM    7  C11 UNL     1      21.952   1.102  52.895  1.00  0.00     0.051 C 
HETATM    8  C19 UNL     1      22.105   2.468  52.373  1.00  0.00     0.115 C 
ENDROOT
BRANCH   4   9
HETATM    9  N1  UNL     1      26.371   0.775  52.676  1.00  0.00    -0.380 N 
HETATM   10  H2  UNL     1      26.838   0.977  51.745  1.00  0.00     0.160 HD
BRANCH   9  11
HETATM   11  C4  UNL     1      27.130   0.177  53.754  1.00  0.00     0.126 A 
HETATM   12  C5  UNL     1      27.513  -1.205  53.386  1.00  0.00     0.114 A 
HETATM   13  N2  UNL     1      28.637  -1.870  53.252  1.00  0.00    -0.275 NA
HETATM   14  C6  UNL     1      29.851  -1.128  53.514  1.00  0.00     0.112 A 
HETATM   15  C7  UNL     1      29.558   0.118  53.849  1.00  0.00    -0.005 A 
HETATM   16  C8  UNL     1      28.369   0.981  54.035  1.00  0.00     0.059 A 
ENDBRANCH   9  11
ENDBRANCH   4   9
BRANCH   7  17
HETATM   17  O1  UNL     1      20.601   0.858  53.136  1.00  0.00    -0.351 OA
BRANCH  17  18
HETATM   18  C12 UNL     1      20.111  -0.427  53.464  1.00  0.00     0.214 C 
BRANCH  18  19
HETATM   19  C13 UNL     1      18.789  -0.682  52.851  1.00  0.00    -0.034 A 
HETATM   20  C14 UNL     1      18.649  -0.114  51.592  1.00  0.00     0.009 A 
HETATM   21  C15 UNL     1      17.484  -0.243  50.861  1.00  0.00     0.001 A 
HETATM   22  C16 UNL     1      16.442  -0.964  51.421  1.00  0.00     0.000 A 
HETATM   23  C17 UNL     1      16.568  -1.532  52.670  1.00  0.00     0.001 A 
HETATM   24  C18 UNL     1      17.745  -1.398  53.402  1.00  0.00     0.009 A 
ENDBRANCH  18  19
ENDBRANCH  17  18
ENDBRANCH   7  17
TORSDOF 5
ENDMDL
MODEL 4
REMARK VINA RESULT:      -7.7      3.052      8.548
REMARK  5 active torsions:
REMARK  status: ('A' for Active; 'I' for Inactive)
REMARK    1  A    between atoms: C3_4  and  N1_5 
REMARK    2  A    between atoms: N1_5  and  C4_6 
REMARK    3  A    between atoms: C11_14  and  O1_15 
REMARK    4  A    between atoms: O1_15  and  C12_16 
REMARK    5  A    between atoms: C12_16  and  C13_17 
ROOT
HETATM    1 CL1  UNL     1      22.756   4.869  51.203  1.00  0.00    -0.088 Cl
HETATM    2  C1  UNL     1      22.841   3.325  52.066  1.00  0.00     0.020 C 
HETATM    3  C2  UNL     1      21.661   2.724  52.081  1.00  0.00     0.049 C 
HETATM    4  C3  UNL     1      21.449   1.434  52.727  1.00  0.00     0.029 C 
HETATM    5  C9  UNL     1      22.338   0.535  53.186  1.00  0.00     0.031 C 
HETATM    6  C10 UNL     1      23.797   0.571  53.181  1.00  0.00     0.035 C 
HETATM    7  C11 UNL     1      24.481   1.673  52.910  1.00  0.00     0.051 C 
HETATM    8  C19 UNL     1      24.213   3.076  52.563  1.00  0.00     0.115 C 
ENDROOT
BRANCH   4   9
HETATM    9  N1  UNL     1      20.086   1.074  52.896  1.00  0.00    -0.380 N 
HETATM   10  H2  UNL     1      19.490   1.721  53.489  1.00  0.00     0.160 HD
BRANCH   9  11
HETATM   11  C4  UNL     1      19.502  -0.112  52.304  1.00  0.00     0.126 A 
HETATM   12  C5  UNL     1      18.712  -0.839  53.324  1.00  0.00     0.114 A 
HETATM   13  N2  UNL     1      17.463  -1.223  53.455  1.00  0.00    -0.275 NA
HETATM   14  C6  UNL     1      16.574  -0.882  52.366  1.00  0.00     0.112 A 
HETATM   15  C7  UNL     1      17.238  -0.228  51.427  1.00  0.00    -0.005 A 
HETATM   16  C8  UNL     1      18.609   0.260  51.152  1.00  0.00     0.059 A 
ENDBRANCH   9  11
ENDBRANCH   4   9
BRANCH   7  17
HETATM   17  O1  UNL     1      25.860   1.475  52.963  1.00  0.00    -0.351 OA
BRANCH  17  18
HETATM   18  C12 UNL     1      26.495   0.861  54.068  1.00  0.00     0.214 C 
BRANCH  18  19
HETATM   19  C13 UNL     1      27.305  -0.306  53.654  1.00  0.00    -0.034 A 
HETATM   20  C14 UNL     1      28.648  -0.187  53.982  1.00  0.00     0.009 A 
HETATM   21  C15 UNL     1      29.562  -1.176  53.677  1.00  0.00     0.001 A 
HETATM   22  C16 UNL     1      29.101  -2.309  53.028  1.00  0.00     0.000 A 
HETATM   23  C17 UNL     1      27.770  -2.440  52.697  1.00  0.00     0.001 A 
HETATM   24  C18 UNL     1      26.853  -1.438  53.006  1.00  0.00     0.009 A 
ENDBRANCH  18  19
ENDBRANCH  17  18
ENDBRANCH   7  17
TORSDOF 5
ENDMDL
MODEL 5
REMARK VINA RESULT:      -7.6      4.084      8.348
REMARK  5 active torsions:
REMARK  status: ('A' for Active; 'I' for Inactive)
REMARK    1  A    between atoms: C3_4  and  N1_5 
REMARK    2  A    between atoms: N1_5  and  C4_6 
REMARK    3  A    between atoms: C11_14  and  O1_15 
REMARK    4  A    between atoms: O1_15  and  C12_16 
REMARK    5  A    between atoms: C12_16  and  C13_17 
ROOT
HETATM    1 CL1  UNL     1      20.246  -1.253  53.877  1.00  0.00    -0.088 Cl
HETATM    2  C1  UNL     1      21.484  -0.198  53.177  1.00  0.00     0.020 C 
HETATM    3  C2  UNL     1      20.951   0.930  52.735  1.00  0.00     0.049 C 
HETATM    4  C3  UNL     1      21.749   1.980  52.111  1.00  0.00     0.029 C 
HETATM    5  C9  UNL     1      23.083   2.147  52.067  1.00  0.00     0.031 C 
HETATM    6  C10 UNL     1      24.151   1.328  52.629  1.00  0.00     0.035 C 
HETATM    7  C11 UNL     1      23.941   0.106  53.096  1.00  0.00     0.051 C 
HETATM    8  C19 UNL     1      22.820  -0.832  53.255  1.00  0.00     0.115 C 
ENDROOT
BRANCH   4   9
HETATM    9  N1  UNL     1      20.993   2.982  51.447  1.00  0.00    -0.380 N 
HETATM   10  H2  UNL     1      20.673   3.807  52.033  1.00  0.00     0.160 HD
BRANCH   9  11
HETATM   11  C4  UNL     1      20.655   2.916  50.041  1.00  0.00     0.126 A 
HETATM   12  C5  UNL     1      21.669   3.650  49.250  1.00  0.00     0.114 A 
HETATM   13  N2  UNL     1      22.501   3.358  48.277  1.00  0.00    -0.275 NA
HETATM   14  C6  UNL     1      22.477   1.991  47.806  1.00  0.00     0.112 A 
HETATM   15  C7  UNL     1      21.581   1.293  48.486  1.00  0.00    -0.005 A 
HETATM   16  C8  UNL     1      20.600   1.486  49.579  1.00  0.00     0.059 A 
ENDBRANCH   9  11
ENDBRANCH   4   9
BRANCH   7  17
HETATM   17  O1  UNL     1      25.103  -0.489  53.584  1.00  0.00    -0.351 OA
BRANCH  17  18
HETATM   18  C12 UNL     1      26.082  -1.050  52.732  1.00  0.00     0.214 C 
BRANCH  18  19
HETATM   19  C13 UNL     1      27.442  -0.580  53.078  1.00  0.00    -0.034 A 
HETATM   20  C14 UNL     1      28.385  -1.598  53.102  1.00  0.00     0.009 A 
HETATM   21  C15 UNL     1      29.711  -1.355  53.405  1.00  0.00     0.001 A 
HETATM   22  C16 UNL     1      30.084  -0.051  53.688  1.00  0.00     0.000 A 
HETATM   23  C17 UNL     1      29.157   0.968  53.666  1.00  0.00     0.001 A 
HETATM   24  C18 UNL     1      27.822   0.716  53.361  1.00  0.00     0.009 A 
ENDBRANCH  18  19
ENDBRANCH  17  18
ENDBRANCH   7  17
TORSDOF 5
ENDMDL
MODEL 6
REMARK VINA RESULT:      -7.6      4.605      5.601
REMARK  5 active torsions:
REMARK  status: ('A' for Active; 'I' for Inactive)
REMARK    1  A    between atoms: C3_4  and  N1_5 
REMARK    2  A    between atoms: N1_5  and  C4_6 
REMARK    3  A    between atoms: C11_14  and  O1_15 
REMARK    4  A    between atoms: O1_15  and  C12_16 
REMARK    5  A    between atoms: C12_16  and  C13_17 
ROOT
HETATM    1 CL1  UNL     1      26.782  -0.379  52.066  1.00  0.00    -0.088 Cl
HETATM    2  C1  UNL     1      25.642   0.970  52.186  1.00  0.00     0.020 C 
HETATM    3  C2  UNL     1      26.038   1.994  51.447  1.00  0.00     0.049 C 
HETATM    4  C3  UNL     1      25.281   3.239  51.364  1.00  0.00     0.029 C 
HETATM    5  C9  UNL     1      24.028   3.521  51.763  1.00  0.00     0.031 C 
HETATM    6  C10 UNL     1      23.033   2.670  52.408  1.00  0.00     0.035 C 
HETATM    7  C11 UNL     1      23.335   1.489  52.924  1.00  0.00     0.051 C 
HETATM    8  C19 UNL     1      24.516   0.628  53.086  1.00  0.00     0.115 C 
ENDROOT
BRANCH   4   9
HETATM    9  N1  UNL     1      25.981   4.318  50.765  1.00  0.00    -0.380 N 
HETATM   10  H2  UNL     1      26.507   4.970  51.418  1.00  0.00     0.160 HD
BRANCH   9  11
HETATM   11  C4  UNL     1      26.001   4.553  49.336  1.00  0.00     0.126 A 
HETATM   12  C5  UNL     1      25.256   5.795  49.026  1.00  0.00     0.114 A 
HETATM   13  N2  UNL     1      25.529   6.939  48.443  1.00  0.00    -0.275 NA
HETATM   14  C6  UNL     1      26.881   7.100  47.956  1.00  0.00     0.112 A 
HETATM   15  C7  UNL     1      27.588   6.011  48.211  1.00  0.00    -0.005 A 
HETATM   16  C8  UNL     1      27.416   4.682  48.843  1.00  0.00     0.059 A 
ENDBRANCH   9  11
ENDBRANCH   4   9
BRANCH   7  17
HETATM   17  O1  UNL     1      22.230   0.851  53.487  1.00  0.00    -0.351 OA
BRANCH  17  18
HETATM   18  C12 UNL     1      21.704  -0.353  52.965  1.00  0.00     0.214 C 
BRANCH  18  19
HETATM   19  C13 UNL     1      20.405  -0.137  52.292  1.00  0.00    -0.034 A 
HETATM   20  C14 UNL     1      19.329  -0.664  52.992  1.00  0.00     0.009 A 
HETATM   21  C15 UNL     1      18.034  -0.561  52.522  1.00  0.00     0.001 A 
HETATM   22  C16 UNL     1      17.830   0.091  51.317  1.00  0.00     0.000 A 
HETATM   23  C17 UNL     1      18.890   0.619  50.612  1.00  0.00     0.001 A 
HETATM   24  C18 UNL     1      20.193   0.512  51.092  1.00  0.00     0.009 A 
ENDBRANCH  18  19
ENDBRANCH  17  18
ENDBRANCH   7  17
TORSDOF 5
ENDMDL
MODEL 7
REMARK VINA RESULT:      -7.5      5.005      9.523
REMARK  5 active torsions:
REMARK  status: ('A' for Active; 'I' for Inactive)
REMARK    1  A    between atoms: C3_4  and  N1_5 
REMARK    2  A    between atoms: N1_5  and  C4_6 
REMARK    3  A    between atoms: C11_14  and  O1_15 
REMARK    4  A    between atoms: O1_15  and  C12_16 
REMARK    5  A    between atoms: C12_16  and  C13_17 
ROOT
HETATM    1 CL1  UNL     1      25.498  -0.237  54.379  1.00  0.00    -0.088 Cl
HETATM    2  C1  UNL     1      24.711   0.505  52.977  1.00  0.00     0.020 C 
HETATM    3  C2  UNL     1      23.423   0.200  52.939  1.00  0.00     0.049 C 
HETATM    4  C3  UNL     1      22.536   0.681  51.885  1.00  0.00     0.029 C 
HETATM    5  C9  UNL     1      22.727   1.635  50.957  1.00  0.00     0.031 C 
HETATM    6  C10 UNL     1      23.885   2.488  50.712  1.00  0.00     0.035 C 
HETATM    7  C11 UNL     1      25.066   2.262  51.267  1.00  0.00     0.051 C 
HETATM    8  C19 UNL     1      25.683   1.290  52.182  1.00  0.00     0.115 C 
ENDROOT
BRANCH   4   9
HETATM    9  N1  UNL     1      21.271   0.037  51.837  1.00  0.00    -0.380 N 
HETATM   10  H2  UNL     1      21.150  -0.726  51.110  1.00  0.00     0.160 HD
BRANCH   9  11
HETATM   11  C4  UNL     1      20.175   0.379  52.720  1.00  0.00     0.126 A 
HETATM   12  C5  UNL     1      18.988   0.751  51.917  1.00  0.00     0.114 A 
HETATM   13  N2  UNL     1      17.752   0.322  51.804  1.00  0.00    -0.275 NA
HETATM   14  C6  UNL     1      17.386  -0.797  52.645  1.00  0.00     0.112 A 
HETATM   15  C7  UNL     1      18.420  -1.166  53.383  1.00  0.00    -0.005 A 
HETATM   16  C8  UNL     1      19.833  -0.784  53.610  1.00  0.00     0.059 A 
ENDBRANCH   9  11
ENDBRANCH   4   9
BRANCH   7  17
HETATM   17  O1  UNL     1      26.025   3.203  50.893  1.00  0.00    -0.351 OA
BRANCH  17  18
HETATM   18  C12 UNL     1      26.682   3.157  49.642  1.00  0.00     0.214 C 
BRANCH  18  19
HETATM   19  C13 UNL     1      26.884   4.510  49.080  1.00  0.00    -0.034 A 
HETATM   20  C14 UNL     1      25.736   5.289  49.099  1.00  0.00     0.009 A 
HETATM   21  C15 UNL     1      25.727   6.584  48.616  1.00  0.00     0.001 A 
HETATM   22  C16 UNL     1      26.908   7.095  48.105  1.00  0.00     0.000 A 
HETATM   23  C17 UNL     1      28.055   6.331  48.080  1.00  0.00     0.001 A 
HETATM   24  C18 UNL     1      28.057   5.027  48.568  1.00  0.00     0.009 A 
ENDBRANCH  18  19
ENDBRANCH  17  18
ENDBRANCH   7  17
TORSDOF 5
ENDMDL
MODEL 8
REMARK VINA RESULT:      -7.4      4.705      8.072
REMARK  5 active torsions:
REMARK  status: ('A' for Active; 'I' for Inactive)
REMARK    1  A    between atoms: C3_4  and  N1_5 
REMARK    2  A    between atoms: N1_5  and  C4_6 
REMARK    3  A    between atoms: C11_14  and  O1_15 
REMARK    4  A    between atoms: O1_15  and  C12_16 
REMARK    5  A    between atoms: C12_16  and  C13_17 
ROOT
HETATM    1 CL1  UNL     1      20.635   0.339  51.659  1.00  0.00    -0.088 Cl
HETATM    2  C1  UNL     1      22.012   1.394  52.010  1.00  0.00     0.020 C 
HETATM    3  C2  UNL     1      21.683   2.669  51.867  1.00  0.00     0.049 C 
HETATM    4  C3  UNL     1      22.633   3.752  52.096  1.00  0.00     0.029 C 
HETATM    5  C9  UNL     1      23.844   3.737  52.678  1.00  0.00     0.031 C 
HETATM    6  C10 UNL     1      24.591   2.628  53.263  1.00  0.00     0.035 C 
HETATM    7  C11 UNL     1      24.245   1.363  53.082  1.00  0.00     0.051 C 
HETATM    8  C19 UNL     1      23.204   0.597  52.381  1.00  0.00     0.115 C 
ENDROOT
BRANCH   4   9
HETATM    9  N1  UNL     1      22.204   5.023  51.628  1.00  0.00    -0.380 N 
HETATM   10  H2  UNL     1      21.456   5.515  52.197  1.00  0.00     0.160 HD
BRANCH   9  11
HETATM   11  C4  UNL     1      22.738   5.648  50.436  1.00  0.00     0.126 A 
HETATM   12  C5  UNL     1      23.757   6.654  50.816  1.00  0.00     0.114 A 
HETATM   13  N2  UNL     1      25.030   6.852  50.562  1.00  0.00    -0.275 NA
HETATM   14  C6  UNL     1      25.666   5.880  49.699  1.00  0.00     0.112 A 
HETATM   15  C7  UNL     1      24.791   4.958  49.332  1.00  0.00    -0.005 A 
HETATM   16  C8  UNL     1      23.363   4.619  49.536  1.00  0.00     0.059 A 
ENDBRANCH   9  11
ENDBRANCH   4   9
BRANCH   7  17
HETATM   17  O1  UNL     1      25.100   0.474  53.733  1.00  0.00    -0.351 OA
BRANCH  17  18
HETATM   18  C12 UNL     1      26.362   0.867  54.234  1.00  0.00     0.214 C 
BRANCH  18  19
HETATM   19  C13 UNL     1      27.416  -0.115  53.893  1.00  0.00    -0.034 A 
HETATM   20  C14 UNL     1      26.950  -1.180  53.137  1.00  0.00     0.009 A 
HETATM   21  C15 UNL     1      27.785  -2.199  52.722  1.00  0.00     0.001 A 
HETATM   22  C16 UNL     1      29.121  -2.132  53.082  1.00  0.00     0.000 A 
HETATM   23  C17 UNL     1      29.596  -1.078  53.833  1.00  0.00     0.001 A 
HETATM   24  C18 UNL     1      28.748  -0.055  54.248  1.00  0.00     0.009 A 
ENDBRANCH  18  19
ENDBRANCH  17  18
ENDBRANCH   7  17
TORSDOF 5
ENDMDL
MODEL 9
REMARK VINA RESULT:      -7.4      5.374      9.210
REMARK  5 active torsions:
REMARK  status: ('A' for Active; 'I' for Inactive)
REMARK    1  A    between atoms: C3_4  and  N1_5 
REMARK    2  A    between atoms: N1_5  and  C4_6 
REMARK    3  A    between atoms: C11_14  and  O1_15 
REMARK    4  A    between atoms: O1_15  and  C12_16 
REMARK    5  A    between atoms: C12_16  and  C13_17 
ROOT
HETATM    1 CL1  UNL     1      22.549   1.984  47.658  1.00  0.00    -0.088 Cl
HETATM    2  C1  UNL     1      22.764   2.626  49.293  1.00  0.00     0.020 C 
HETATM    3  C2  UNL     1      22.309   1.776  50.200  1.00  0.00     0.049 C 
HETATM    4  C3  UNL     1      22.364   2.056  51.632  1.00  0.00     0.029 C 
HETATM    5  C9  UNL     1      23.032   3.008  52.305  1.00  0.00     0.031 C 
HETATM    6  C10 UNL     1      23.914   4.062  51.815  1.00  0.00     0.035 C 
HETATM    7  C11 UNL     1      23.997   4.382  50.532  1.00  0.00     0.051 C 
HETATM    8  C19 UNL     1      23.404   3.961  49.254  1.00  0.00     0.115 C 
ENDROOT
BRANCH   4   9
HETATM    9  N1  UNL     1      21.586   1.181  52.435  1.00  0.00    -0.380 N 
HETATM   10  H2  UNL     1      20.699   1.581  52.859  1.00  0.00     0.160 HD
BRANCH   9  11
HETATM   11  C4  UNL     1      21.953  -0.197  52.688  1.00  0.00     0.126 A 
HETATM   12  C5  UNL     1      23.327  -0.252  53.237  1.00  0.00     0.114 A 
HETATM   13  N2  UNL     1      23.889  -0.704  54.335  1.00  0.00    -0.275 NA
HETATM   14  C6  UNL     1      23.001  -1.316  55.300  1.00  0.00     0.112 A 
HETATM   15  C7  UNL     1      21.757  -1.289  54.851  1.00  0.00    -0.005 A 
HETATM   16  C8  UNL     1      20.999  -0.825  53.666  1.00  0.00     0.059 A 
ENDBRANCH   9  11
ENDBRANCH   4   9
BRANCH   7  17
HETATM   17  O1  UNL     1      24.901   5.416  50.293  1.00  0.00    -0.351 OA
BRANCH  17  18
HETATM   18  C12 UNL     1      24.950   6.108  49.061  1.00  0.00     0.214 C 
BRANCH  18  19
HETATM   19  C13 UNL     1      26.341   6.287  48.590  1.00  0.00    -0.034 A 
HETATM   20  C14 UNL     1      27.128   5.157  48.758  1.00  0.00     0.009 A 
HETATM   21  C15 UNL     1      28.456   5.131  48.377  1.00  0.00     0.001 A 
HETATM   22  C16 UNL     1      28.993   6.277  47.814  1.00  0.00     0.000 A 
HETATM   23  C17 UNL     1      28.222   7.406  47.642  1.00  0.00     0.001 A 
HETATM   24  C18 UNL     1      26.884   7.426  48.028  1.00  0.00     0.009 A 
ENDBRANCH  18  19
ENDBRANCH  17  18
ENDBRANCH   7  17
TORSDOF 5
ENDMDL
