MODEL 1
REMARK VINA RESULT:      -7.0      0.000      0.000
REMARK  9 active torsions:
REMARK  status: ('A' for Active; 'I' for Inactive)
REMARK    1  A    between atoms: C2_2  and  O1_3 
REMARK    2  A    between atoms: O1_3  and  C3_4 
REMARK       I    between atoms: C3_4  and  N1_6 
REMARK    3  A    between atoms: N1_6  and  C4_7 
REMARK    4  A    between atoms: C7_10  and  N2_11 
REMARK    5  A    between atoms: N2_11  and  C8_12 
REMARK    6  A    between atoms: C10_16  and  C11_17 
REMARK    7  A    between atoms: C11_17  and  O3_18 
REMARK    8  A    between atoms: C14_21  and  C15_22 
REMARK    9  A    between atoms: C15_22  and  O4_23 
ROOT
HETATM    1  N2  UNL     1      23.883   3.892  49.924  1.00  0.00    -0.339 N 
HETATM    2  H9  UNL     1      23.331   3.564  49.075  1.00  0.00     0.167 HD
ENDROOT
BRANCH   1   3
HETATM    3  C7  UNL     1      24.554   2.964  50.728  1.00  0.00     0.033 A 
HETATM    4  C6  UNL     1      25.931   2.791  50.527  1.00  0.00     0.032 A 
HETATM    5  C5  UNL     1      26.687   1.917  51.243  1.00  0.00     0.032 A 
HETATM    6  C4  UNL     1      26.155   1.123  52.233  1.00  0.00     0.036 A 
HETATM    7  C17 UNL     1      24.806   1.286  52.435  1.00  0.00     0.032 A 
HETATM    8  C16 UNL     1      24.038   2.171  51.711  1.00  0.00     0.032 A 
BRANCH   6   9
HETATM    9  N1  UNL     1      26.995   0.250  52.926  1.00  0.00    -0.303 N 
HETATM   10  C3  UNL     1      27.841   0.481  54.042  1.00  0.00     0.365 C 
HETATM   11  O2  UNL     1      27.893   1.618  54.535  1.00  0.00    -0.238 OA
HETATM   12  H6  UNL     1      27.059  -0.761  52.622  1.00  0.00     0.171 HD
BRANCH  10  13
HETATM   13  O1  UNL     1      28.627  -0.472  54.641  1.00  0.00    -0.304 OA
BRANCH  13  14
HETATM   14  C2  UNL     1      29.697  -1.056  53.920  1.00  0.00     0.176 C 
HETATM   15  C1  UNL     1      29.270  -2.358  53.271  1.00  0.00     0.034 C 
ENDBRANCH  13  14
ENDBRANCH  10  13
ENDBRANCH   6   9
ENDBRANCH   1   3
BRANCH   1  16
HETATM   16  C8  UNL     1      23.866   5.284  50.143  1.00  0.00     0.158 A 
HETATM   17  N3  UNL     1      22.869   5.776  50.778  1.00  0.00    -0.156 NA
HETATM   18  N4  UNL     1      22.800   7.145  51.024  1.00  0.00    -0.287 N 
HETATM   19  C9  UNL     1      23.760   8.118  50.632  1.00  0.00     0.119 A 
HETATM   20  H10 UNL     1      21.955   7.466  51.546  1.00  0.00     0.188 HD
HETATM   21  C10 UNL     1      24.788   7.613  49.979  1.00  0.00    -0.004 A 
HETATM   22  C13 UNL     1      24.936   6.190  49.680  1.00  0.00     0.020 A 
HETATM   23  C14 UNL     1      25.962   5.686  49.018  1.00  0.00     0.015 C 
BRANCH  21  24
HETATM   24  C11 UNL     1      25.807   8.598  49.556  1.00  0.00     0.208 C 
BRANCH  24  25
HETATM   25  O3  UNL     1      26.812   8.651  50.528  1.00  0.00    -0.391 OA
HETATM   26  C12 UNL     1      27.920   9.362  50.072  1.00  0.00     0.201 C 
ENDBRANCH  24  25
ENDBRANCH  21  24
BRANCH  23  27
HETATM   27  C15 UNL     1      27.243   5.890  48.324  1.00  0.00     0.192 C 
BRANCH  27  28
HETATM   28  O4  UNL     1      28.294   5.336  49.075  1.00  0.00    -0.397 OA
HETATM   29  H20 UNL     1      28.049   4.432  49.399  1.00  0.00     0.209 HD
ENDBRANCH  27  28
ENDBRANCH  23  27
ENDBRANCH   1  16
TORSDOF 9
ENDMDL
MODEL 2
REMARK VINA RESULT:      -7.0      5.682      7.886
REMARK  9 active torsions:
REMARK  status: ('A' for Active; 'I' for Inactive)
REMARK    1  A    between atoms: C2_2  and  O1_3 
REMARK    2  A    between atoms: O1_3  and  C3_4 
REMARK       I    between atoms: C3_4  and  N1_6 
REMARK    3  A    between atoms: N1_6  and  C4_7 
REMARK    4  A    between atoms: C7_10  and  N2_11 
REMARK    5  A    between atoms: N2_11  and  C8_12 
REMARK    6  A    between atoms: C10_16  and  C11_17 
REMARK    7  A    between atoms: C11_17  and  O3_18 
REMARK    8  A    between atoms: C14_21  and  C15_22 
REMARK    9  A    between atoms: C15_22  and  O4_23 
ROOT
HETATM    1  N2  UNL     1      20.438   1.830  53.014  1.00  0.00    -0.339 N 
HETATM    2  H9  UNL     1      20.051   2.474  53.768  1.00  0.00     0.167 HD
ENDROOT
BRANCH   1   3
HETATM    3  C7  UNL     1      21.645   1.153  53.219  1.00  0.00     0.033 A 
HETATM    4  C6  UNL     1      22.813   1.710  52.679  1.00  0.00     0.032 A 
HETATM    5  C5  UNL     1      24.041   1.143  52.808  1.00  0.00     0.032 A 
HETATM    6  C4  UNL     1      24.238  -0.038  53.487  1.00  0.00     0.036 A 
HETATM    7  C17 UNL     1      23.099  -0.590  54.019  1.00  0.00     0.032 A 
HETATM    8  C16 UNL     1      21.853  -0.017  53.889  1.00  0.00     0.032 A 
BRANCH   6   9
HETATM    9  N1  UNL     1      25.530  -0.559  53.579  1.00  0.00    -0.303 N 
HETATM   10  C3  UNL     1      26.621  -0.171  54.398  1.00  0.00     0.365 C 
HETATM   11  O2  UNL     1      26.478   0.777  55.186  1.00  0.00    -0.238 OA
HETATM   12  H6  UNL     1      25.805  -1.377  52.966  1.00  0.00     0.171 HD
BRANCH  10  13
HETATM   13  O1  UNL     1      27.857  -0.770  54.397  1.00  0.00    -0.304 OA
BRANCH  13  14
HETATM   14  C2  UNL     1      29.023   0.023  54.271  1.00  0.00     0.176 C 
HETATM   15  C1  UNL     1      30.123  -0.736  53.556  1.00  0.00     0.034 C 
ENDBRANCH  13  14
ENDBRANCH  10  13
ENDBRANCH   6   9
ENDBRANCH   1   3
BRANCH   1  16
HETATM   16  C8  UNL     1      19.650   1.740  51.849  1.00  0.00     0.158 A 
HETATM   17  N3  UNL     1      19.821   2.628  50.943  1.00  0.00    -0.156 NA
HETATM   18  N4  UNL     1      19.071   2.587  49.771  1.00  0.00    -0.287 N 
HETATM   19  C9  UNL     1      18.082   1.622  49.439  1.00  0.00     0.119 A 
HETATM   20  H10 UNL     1      19.270   3.348  49.083  1.00  0.00     0.188 HD
HETATM   21  C10 UNL     1      17.905   0.706  50.371  1.00  0.00    -0.004 A 
HETATM   22  C13 UNL     1      18.650   0.677  51.628  1.00  0.00     0.020 A 
HETATM   23  C14 UNL     1      18.466  -0.236  52.565  1.00  0.00     0.015 C 
BRANCH  21  24
HETATM   24  C11 UNL     1      16.882  -0.316  50.059  1.00  0.00     0.208 C 
BRANCH  24  25
HETATM   25  O3  UNL     1      15.673   0.060  50.656  1.00  0.00    -0.391 OA
HETATM   26  C12 UNL     1      14.673  -0.877  50.406  1.00  0.00     0.201 C 
ENDBRANCH  24  25
ENDBRANCH  21  24
BRANCH  23  27
HETATM   27  C15 UNL     1      17.766  -1.441  53.038  1.00  0.00     0.192 C 
BRANCH  27  28
HETATM   28  O4  UNL     1      16.490  -1.101  53.521  1.00  0.00    -0.397 OA
HETATM   29  H20 UNL     1      15.888  -1.886  53.491  1.00  0.00     0.209 HD
ENDBRANCH  27  28
ENDBRANCH  23  27
ENDBRANCH   1  16
TORSDOF 9
ENDMDL
MODEL 3
REMARK VINA RESULT:      -6.9      6.072      8.278
REMARK  9 active torsions:
REMARK  status: ('A' for Active; 'I' for Inactive)
REMARK    1  A    between atoms: C2_2  and  O1_3 
REMARK    2  A    between atoms: O1_3  and  C3_4 
REMARK       I    between atoms: C3_4  and  N1_6 
REMARK    3  A    between atoms: N1_6  and  C4_7 
REMARK    4  A    between atoms: C7_10  and  N2_11 
REMARK    5  A    between atoms: N2_11  and  C8_12 
REMARK    6  A    between atoms: C10_16  and  C11_17 
REMARK    7  A    between atoms: C11_17  and  O3_18 
REMARK    8  A    between atoms: C14_21  and  C15_22 
REMARK    9  A    between atoms: C15_22  and  O4_23 
ROOT
HETATM    1  N2  UNL     1      20.801   0.819  52.116  1.00  0.00    -0.339 N 
HETATM    2  H9  UNL     1      20.504   1.576  51.430  1.00  0.00     0.167 HD
ENDROOT
BRANCH   1   3
HETATM    3  C7  UNL     1      22.136   0.724  52.524  1.00  0.00     0.033 A 
HETATM    4  C6  UNL     1      22.877   1.909  52.637  1.00  0.00     0.032 A 
HETATM    5  C5  UNL     1      24.181   1.943  53.019  1.00  0.00     0.032 A 
HETATM    6  C4  UNL     1      24.886   0.803  53.329  1.00  0.00     0.036 A 
HETATM    7  C17 UNL     1      24.168  -0.363  53.220  1.00  0.00     0.032 A 
HETATM    8  C16 UNL     1      22.846  -0.399  52.833  1.00  0.00     0.032 A 
BRANCH   6   9
HETATM    9  N1  UNL     1      26.223   0.917  53.715  1.00  0.00    -0.303 N 
HETATM   10  C3  UNL     1      26.917   0.333  54.806  1.00  0.00     0.365 C 
HETATM   11  O2  UNL     1      26.301  -0.410  55.585  1.00  0.00    -0.238 OA
HETATM   12  H6  UNL     1      26.879   1.521  53.145  1.00  0.00     0.171 HD
BRANCH  10  13
HETATM   13  O1  UNL     1      28.249   0.524  55.082  1.00  0.00    -0.304 OA
BRANCH  13  14
HETATM   14  C2  UNL     1      29.204   0.423  54.041  1.00  0.00     0.176 C 
HETATM   15  C1  UNL     1      29.399  -1.020  53.618  1.00  0.00     0.034 C 
ENDBRANCH  13  14
ENDBRANCH  10  13
ENDBRANCH   6   9
ENDBRANCH   1   3
BRANCH   1  16
HETATM   16  C8  UNL     1      19.765  -0.033  52.546  1.00  0.00     0.158 A 
HETATM   17  N3  UNL     1      19.996  -0.794  53.550  1.00  0.00    -0.156 NA
HETATM   18  N4  UNL     1      19.008  -1.656  54.018  1.00  0.00    -0.287 N 
HETATM   19  C9  UNL     1      17.698  -1.802  53.485  1.00  0.00     0.119 A 
HETATM   20  H10 UNL     1      19.276  -2.243  54.840  1.00  0.00     0.188 HD
HETATM   21  C10 UNL     1      17.458  -1.019  52.452  1.00  0.00    -0.004 A 
HETATM   22  C13 UNL     1      18.439  -0.087  51.899  1.00  0.00     0.020 A 
HETATM   23  C14 UNL     1      18.201   0.691  50.857  1.00  0.00     0.015 C 
BRANCH  21  24
HETATM   24  C11 UNL     1      16.104  -1.144  51.872  1.00  0.00     0.208 C 
BRANCH  24  25
HETATM   25  O3  UNL     1      15.165  -0.738  52.827  1.00  0.00    -0.391 OA
HETATM   26  C12 UNL     1      14.879   0.621  52.708  1.00  0.00     0.201 C 
ENDBRANCH  24  25
ENDBRANCH  21  24
BRANCH  23  27
HETATM   27  C15 UNL     1      17.277   1.159  49.813  1.00  0.00     0.192 C 
BRANCH  27  28
HETATM   28  O4  UNL     1      17.008   0.120  48.905  1.00  0.00    -0.397 OA
HETATM   29  H20 UNL     1      17.809  -0.449  48.782  1.00  0.00     0.209 HD
ENDBRANCH  27  28
ENDBRANCH  23  27
ENDBRANCH   1  16
TORSDOF 9
ENDMDL
MODEL 4
REMARK VINA RESULT:      -6.9      3.061      8.148
REMARK  9 active torsions:
REMARK  status: ('A' for Active; 'I' for Inactive)
REMARK    1  A    between atoms: C2_2  and  O1_3 
REMARK    2  A    between atoms: O1_3  and  C3_4 
REMARK       I    between atoms: C3_4  and  N1_6 
REMARK    3  A    between atoms: N1_6  and  C4_7 
REMARK    4  A    between atoms: C7_10  and  N2_11 
REMARK    5  A    between atoms: N2_11  and  C8_12 
REMARK    6  A    between atoms: C10_16  and  C11_17 
REMARK    7  A    between atoms: C11_17  and  O3_18 
REMARK    8  A    between atoms: C14_21  and  C15_22 
REMARK    9  A    between atoms: C15_22  and  O4_23 
ROOT
HETATM    1  N2  UNL     1      26.500   3.290  49.418  1.00  0.00    -0.339 N 
HETATM    2  H9  UNL     1      26.474   2.564  48.640  1.00  0.00     0.167 HD
ENDROOT
BRANCH   1   3
HETATM    3  C7  UNL     1      26.800   4.625  49.124  1.00  0.00     0.033 A 
HETATM    4  C6  UNL     1      25.856   5.603  49.465  1.00  0.00     0.032 A 
HETATM    5  C5  UNL     1      26.034   6.929  49.226  1.00  0.00     0.032 A 
HETATM    6  C4  UNL     1      27.168   7.423  48.624  1.00  0.00     0.036 A 
HETATM    7  C17 UNL     1      28.099   6.470  48.287  1.00  0.00     0.032 A 
HETATM    8  C16 UNL     1      27.920   5.126  48.528  1.00  0.00     0.032 A 
BRANCH   6   9
HETATM    9  N1  UNL     1      27.280   8.798  48.413  1.00  0.00    -0.303 N 
HETATM   10  C3  UNL     1      27.421   9.861  49.342  1.00  0.00     0.365 C 
HETATM   11  O2  UNL     1      27.459   9.603  50.554  1.00  0.00    -0.238 OA
HETATM   12  H6  UNL     1      27.264   9.175  47.424  1.00  0.00     0.171 HD
BRANCH  10  13
HETATM   13  O1  UNL     1      27.522  11.189  49.006  1.00  0.00    -0.304 OA
BRANCH  13  14
HETATM   14  C2  UNL     1      28.575  11.623  48.163  1.00  0.00     0.176 C 
HETATM   15  C1  UNL     1      29.924  11.401  48.818  1.00  0.00     0.034 C 
ENDBRANCH  13  14
ENDBRANCH  10  13
ENDBRANCH   6   9
ENDBRANCH   1   3
BRANCH   1  16
HETATM   16  C8  UNL     1      26.218   2.792  50.705  1.00  0.00     0.158 A 
HETATM   17  N3  UNL     1      27.196   2.661  51.522  1.00  0.00    -0.156 NA
HETATM   18  N4  UNL     1      26.976   2.174  52.807  1.00  0.00    -0.287 N 
HETATM   19  C9  UNL     1      25.724   1.782  53.355  1.00  0.00     0.119 A 
HETATM   20  H10 UNL     1      27.825   2.097  53.411  1.00  0.00     0.188 HD
HETATM   21  C10 UNL     1      24.716   1.917  52.516  1.00  0.00    -0.004 A 
HETATM   22  C13 UNL     1      24.861   2.419  51.151  1.00  0.00     0.020 A 
HETATM   23  C14 UNL     1      23.851   2.545  50.308  1.00  0.00     0.015 C 
BRANCH  21  24
HETATM   24  C11 UNL     1      23.396   1.518  53.052  1.00  0.00     0.208 C 
BRANCH  24  25
HETATM   25  O3  UNL     1      23.161   0.179  52.721  1.00  0.00    -0.391 OA
HETATM   26  C12 UNL     1      22.577  -0.510  53.782  1.00  0.00     0.201 C 
ENDBRANCH  24  25
ENDBRANCH  21  24
BRANCH  23  27
HETATM   27  C15 UNL     1      22.414   2.409  50.026  1.00  0.00     0.192 C 
BRANCH  27  28
HETATM   28  O4  UNL     1      22.055   1.051  49.986  1.00  0.00    -0.397 OA
HETATM   29  H20 UNL     1      21.102   0.952  49.736  1.00  0.00     0.209 HD
ENDBRANCH  27  28
ENDBRANCH  23  27
ENDBRANCH   1  16
TORSDOF 9
ENDMDL
MODEL 5
REMARK VINA RESULT:      -6.8      4.121      5.772
REMARK  9 active torsions:
REMARK  status: ('A' for Active; 'I' for Inactive)
REMARK    1  A    between atoms: C2_2  and  O1_3 
REMARK    2  A    between atoms: O1_3  and  C3_4 
REMARK       I    between atoms: C3_4  and  N1_6 
REMARK    3  A    between atoms: N1_6  and  C4_7 
REMARK    4  A    between atoms: C7_10  and  N2_11 
REMARK    5  A    between atoms: N2_11  and  C8_12 
REMARK    6  A    between atoms: C10_16  and  C11_17 
REMARK    7  A    between atoms: C11_17  and  O3_18 
REMARK    8  A    between atoms: C14_21  and  C15_22 
REMARK    9  A    between atoms: C15_22  and  O4_23 
ROOT
HETATM    1  N2  UNL     1      27.943   6.441  47.948  1.00  0.00    -0.339 N 
HETATM    2  H9  UNL     1      27.839   6.470  46.889  1.00  0.00     0.167 HD
ENDROOT
BRANCH   1   3
HETATM    3  C7  UNL     1      27.052   5.688  48.721  1.00  0.00     0.033 A 
HETATM    4  C6  UNL     1      27.331   4.327  48.911  1.00  0.00     0.032 A 
HETATM    5  C5  UNL     1      26.538   3.495  49.637  1.00  0.00     0.032 A 
HETATM    6  C4  UNL     1      25.386   3.928  50.251  1.00  0.00     0.036 A 
HETATM    7  C17 UNL     1      25.105   5.260  50.070  1.00  0.00     0.032 A 
HETATM    8  C16 UNL     1      25.907   6.105  49.334  1.00  0.00     0.032 A 
BRANCH   6   9
HETATM    9  N1  UNL     1      24.623   3.014  50.982  1.00  0.00    -0.303 N 
HETATM   10  C3  UNL     1      23.477   2.267  50.606  1.00  0.00     0.365 C 
HETATM   11  O2  UNL     1      23.023   2.394  49.459  1.00  0.00    -0.238 OA
HETATM   12  H6  UNL     1      24.889   2.799  51.983  1.00  0.00     0.171 HD
BRANCH  10  13
HETATM   13  O1  UNL     1      22.809   1.390  51.424  1.00  0.00    -0.304 OA
BRANCH  13  14
HETATM   14  C2  UNL     1      23.130   1.330  52.803  1.00  0.00     0.176 C 
HETATM   15  C1  UNL     1      23.678  -0.034  53.175  1.00  0.00     0.034 C 
ENDBRANCH  13  14
ENDBRANCH  10  13
ENDBRANCH   6   9
ENDBRANCH   1   3
BRANCH   1  16
HETATM   16  C8  UNL     1      29.011   7.201  48.462  1.00  0.00     0.158 A 
HETATM   17  N3  UNL     1      28.733   8.318  49.025  1.00  0.00    -0.156 NA
HETATM   18  N4  UNL     1      29.750   9.110  49.551  1.00  0.00    -0.287 N 
HETATM   19  C9  UNL     1      31.139   8.812  49.539  1.00  0.00     0.119 A 
HETATM   20  H10 UNL     1      29.440  10.005  49.992  1.00  0.00     0.188 HD
HETATM   21  C10 UNL     1      31.428   7.662  48.961  1.00  0.00    -0.004 A 
HETATM   22  C13 UNL     1      30.422   6.772  48.384  1.00  0.00     0.020 A 
HETATM   23  C14 UNL     1      30.713   5.625  47.797  1.00  0.00     0.015 C 
BRANCH  21  24
HETATM   24  C11 UNL     1      32.866   7.319  48.931  1.00  0.00     0.208 C 
BRANCH  24  25
HETATM   25  O3  UNL     1      33.531   8.237  48.111  1.00  0.00    -0.391 OA
HETATM   26  C12 UNL     1      34.019   7.625  46.958  1.00  0.00     0.201 C 
ENDBRANCH  24  25
ENDBRANCH  21  24
BRANCH  23  27
HETATM   27  C15 UNL     1      31.719   4.639  47.375  1.00  0.00     0.192 C 
BRANCH  27  28
HETATM   28  O4  UNL     1      32.287   4.015  48.500  1.00  0.00    -0.397 OA
HETATM   29  H20 UNL     1      33.238   3.796  48.332  1.00  0.00     0.209 HD
ENDBRANCH  27  28
ENDBRANCH  23  27
ENDBRANCH   1  16
TORSDOF 9
ENDMDL
MODEL 6
REMARK VINA RESULT:      -6.7      3.261      4.353
REMARK  9 active torsions:
REMARK  status: ('A' for Active; 'I' for Inactive)
REMARK    1  A    between atoms: C2_2  and  O1_3 
REMARK    2  A    between atoms: O1_3  and  C3_4 
REMARK       I    between atoms: C3_4  and  N1_6 
REMARK    3  A    between atoms: N1_6  and  C4_7 
REMARK    4  A    between atoms: C7_10  and  N2_11 
REMARK    5  A    between atoms: N2_11  and  C8_12 
REMARK    6  A    between atoms: C10_16  and  C11_17 
REMARK    7  A    between atoms: C11_17  and  O3_18 
REMARK    8  A    between atoms: C14_21  and  C15_22 
REMARK    9  A    between atoms: C15_22  and  O4_23 
ROOT
HETATM    1  N2  UNL     1      20.889   1.862  51.793  1.00  0.00    -0.339 N 
HETATM    2  H9  UNL     1      20.018   2.058  52.372  1.00  0.00     0.167 HD
ENDROOT
BRANCH   1   3
HETATM    3  C7  UNL     1      21.992   1.227  52.375  1.00  0.00     0.033 A 
HETATM    4  C6  UNL     1      23.268   1.542  51.887  1.00  0.00     0.032 A 
HETATM    5  C5  UNL     1      24.411   0.987  52.369  1.00  0.00     0.032 A 
HETATM    6  C4  UNL     1      24.407   0.061  53.386  1.00  0.00     0.036 A 
HETATM    7  C17 UNL     1      23.160  -0.254  53.870  1.00  0.00     0.032 A 
HETATM    8  C16 UNL     1      22.000   0.307  53.383  1.00  0.00     0.032 A 
BRANCH   6   9
HETATM    9  N1  UNL     1      25.622  -0.465  53.830  1.00  0.00    -0.303 N 
HETATM   10  C3  UNL     1      26.658   0.135  54.590  1.00  0.00     0.365 C 
HETATM   11  O2  UNL     1      26.535   1.313  54.957  1.00  0.00    -0.238 OA
HETATM   12  H6  UNL     1      25.872  -1.466  53.595  1.00  0.00     0.171 HD
BRANCH  10  13
HETATM   13  O1  UNL     1      27.819  -0.494  54.968  1.00  0.00    -0.304 OA
BRANCH  13  14
HETATM   14  C2  UNL     1      29.054  -0.090  54.405  1.00  0.00     0.176 C 
HETATM   15  C1  UNL     1      29.599  -1.149  53.468  1.00  0.00     0.034 C 
ENDBRANCH  13  14
ENDBRANCH  10  13
ENDBRANCH   6   9
ENDBRANCH   1   3
BRANCH   1  16
HETATM   16  C8  UNL     1      20.821   2.291  50.453  1.00  0.00     0.158 A 
HETATM   17  N3  UNL     1      20.532   1.418  49.561  1.00  0.00    -0.156 NA
HETATM   18  N4  UNL     1      20.450   1.786  48.221  1.00  0.00    -0.287 N 
HETATM   19  C9  UNL     1      20.660   3.088  47.692  1.00  0.00     0.119 A 
HETATM   20  H10 UNL     1      20.210   1.015  47.557  1.00  0.00     0.188 HD
HETATM   21  C10 UNL     1      20.957   3.988  48.609  1.00  0.00    -0.004 A 
HETATM   22  C13 UNL     1      21.063   3.686  50.035  1.00  0.00     0.020 A 
HETATM   23  C14 UNL     1      21.369   4.587  50.951  1.00  0.00     0.015 C 
BRANCH  21  24
HETATM   24  C11 UNL     1      21.182   5.357  48.094  1.00  0.00     0.208 C 
BRANCH  24  25
HETATM   25  O3  UNL     1      22.361   5.366  47.340  1.00  0.00    -0.391 OA
HETATM   26  C12 UNL     1      23.342   6.149  47.944  1.00  0.00     0.201 C 
ENDBRANCH  24  25
ENDBRANCH  21  24
BRANCH  23  27
HETATM   27  C15 UNL     1      21.706   5.976  51.296  1.00  0.00     0.192 C 
BRANCH  27  28
HETATM   28  O4  UNL     1      23.024   6.049  51.781  1.00  0.00    -0.397 OA
HETATM   29  H20 UNL     1      23.451   5.155  51.757  1.00  0.00     0.209 HD
ENDBRANCH  27  28
ENDBRANCH  23  27
ENDBRANCH   1  16
TORSDOF 9
ENDMDL
MODEL 7
REMARK VINA RESULT:      -6.5      2.628      7.970
REMARK  9 active torsions:
REMARK  status: ('A' for Active; 'I' for Inactive)
REMARK    1  A    between atoms: C2_2  and  O1_3 
REMARK    2  A    between atoms: O1_3  and  C3_4 
REMARK       I    between atoms: C3_4  and  N1_6 
REMARK    3  A    between atoms: N1_6  and  C4_7 
REMARK    4  A    between atoms: C7_10  and  N2_11 
REMARK    5  A    between atoms: N2_11  and  C8_12 
REMARK    6  A    between atoms: C10_16  and  C11_17 
REMARK    7  A    between atoms: C11_17  and  O3_18 
REMARK    8  A    between atoms: C14_21  and  C15_22 
REMARK    9  A    between atoms: C15_22  and  O4_23 
ROOT
HETATM    1  N2  UNL     1      26.783   3.527  49.230  1.00  0.00    -0.339 N 
HETATM    2  H9  UNL     1      27.462   2.753  48.958  1.00  0.00     0.167 HD
ENDROOT
BRANCH   1   3
HETATM    3  C7  UNL     1      27.073   4.859  48.914  1.00  0.00     0.033 A 
HETATM    4  C6  UNL     1      28.332   5.148  48.369  1.00  0.00     0.032 A 
HETATM    5  C5  UNL     1      28.729   6.402  48.027  1.00  0.00     0.032 A 
HETATM    6  C4  UNL     1      27.917   7.501  48.190  1.00  0.00     0.036 A 
HETATM    7  C17 UNL     1      26.681   7.226  48.723  1.00  0.00     0.032 A 
HETATM    8  C16 UNL     1      26.277   5.956  49.071  1.00  0.00     0.032 A 
BRANCH   6   9
HETATM    9  N1  UNL     1      28.394   8.758  47.814  1.00  0.00    -0.303 N 
HETATM   10  C3  UNL     1      29.009   9.775  48.588  1.00  0.00     0.365 C 
HETATM   11  O2  UNL     1      29.185   9.588  49.801  1.00  0.00    -0.238 OA
HETATM   12  H6  UNL     1      28.314   9.064  46.804  1.00  0.00     0.171 HD
BRANCH  10  13
HETATM   13  O1  UNL     1      29.440  10.983  48.096  1.00  0.00    -0.304 OA
BRANCH  13  14
HETATM   14  C2  UNL     1      30.774  11.400  48.324  1.00  0.00     0.176 C 
HETATM   15  C1  UNL     1      31.757  10.502  47.598  1.00  0.00     0.034 C 
ENDBRANCH  13  14
ENDBRANCH  10  13
ENDBRANCH   6   9
ENDBRANCH   1   3
BRANCH   1  16
HETATM   16  C8  UNL     1      25.627   3.093  49.907  1.00  0.00     0.158 A 
HETATM   17  N3  UNL     1      24.496   3.274  49.334  1.00  0.00    -0.156 NA
HETATM   18  N4  UNL     1      23.320   2.864  49.957  1.00  0.00    -0.287 N 
HETATM   19  C9  UNL     1      23.218   2.231  51.226  1.00  0.00     0.119 A 
HETATM   20  H10 UNL     1      22.441   3.048  49.424  1.00  0.00     0.188 HD
HETATM   21  C10 UNL     1      24.382   2.043  51.817  1.00  0.00    -0.004 A 
HETATM   22  C13 UNL     1      25.660   2.443  51.233  1.00  0.00     0.020 A 
HETATM   23  C14 UNL     1      26.825   2.263  51.830  1.00  0.00     0.015 C 
BRANCH  21  24
HETATM   24  C11 UNL     1      24.313   1.386  53.140  1.00  0.00     0.208 C 
BRANCH  24  25
HETATM   25  O3  UNL     1      23.662   0.155  52.999  1.00  0.00    -0.391 OA
HETATM   26  C12 UNL     1      23.858  -0.652  54.117  1.00  0.00     0.201 C 
ENDBRANCH  24  25
ENDBRANCH  21  24
BRANCH  23  27
HETATM   27  C15 UNL     1      27.591   1.769  52.984  1.00  0.00     0.192 C 
BRANCH  27  28
HETATM   28  O4  UNL     1      27.639   2.750  53.989  1.00  0.00    -0.397 OA
HETATM   29  H20 UNL     1      27.772   2.331  54.876  1.00  0.00     0.209 HD
ENDBRANCH  27  28
ENDBRANCH  23  27
ENDBRANCH   1  16
TORSDOF 9
ENDMDL
MODEL 8
REMARK VINA RESULT:      -6.4      2.284      3.207
REMARK  9 active torsions:
REMARK  status: ('A' for Active; 'I' for Inactive)
REMARK    1  A    between atoms: C2_2  and  O1_3 
REMARK    2  A    between atoms: O1_3  and  C3_4 
REMARK       I    between atoms: C3_4  and  N1_6 
REMARK    3  A    between atoms: N1_6  and  C4_7 
REMARK    4  A    between atoms: C7_10  and  N2_11 
REMARK    5  A    between atoms: N2_11  and  C8_12 
REMARK    6  A    between atoms: C10_16  and  C11_17 
REMARK    7  A    between atoms: C11_17  and  O3_18 
REMARK    8  A    between atoms: C14_21  and  C15_22 
REMARK    9  A    between atoms: C15_22  and  O4_23 
ROOT
HETATM    1  N2  UNL     1      25.609   6.075  48.609  1.00  0.00    -0.339 N 
HETATM    2  H9  UNL     1      25.086   6.043  47.683  1.00  0.00     0.167 HD
ENDROOT
BRANCH   1   3
HETATM    3  C7  UNL     1      25.638   4.950  49.440  1.00  0.00     0.033 A 
HETATM    4  C6  UNL     1      24.642   4.828  50.419  1.00  0.00     0.032 A 
HETATM    5  C5  UNL     1      24.568   3.783  51.286  1.00  0.00     0.032 A 
HETATM    6  C4  UNL     1      25.476   2.750  51.271  1.00  0.00     0.036 A 
HETATM    7  C17 UNL     1      26.456   2.862  50.314  1.00  0.00     0.032 A 
HETATM    8  C16 UNL     1      26.532   3.920  49.435  1.00  0.00     0.032 A 
BRANCH   6   9
HETATM    9  N1  UNL     1      25.336   1.710  52.192  1.00  0.00    -0.303 N 
HETATM   10  C3  UNL     1      25.959   1.508  53.450  1.00  0.00     0.365 C 
HETATM   11  O2  UNL     1      26.771   2.349  53.865  1.00  0.00    -0.238 OA
HETATM   12  H6  UNL     1      24.674   0.913  51.978  1.00  0.00     0.171 HD
BRANCH  10  13
HETATM   13  O1  UNL     1      25.734   0.432  54.274  1.00  0.00    -0.304 OA
BRANCH  13  14
HETATM   14  C2  UNL     1      25.656  -0.871  53.723  1.00  0.00     0.176 C 
HETATM   15  C1  UNL     1      26.923  -1.220  52.968  1.00  0.00     0.034 C 
ENDBRANCH  13  14
ENDBRANCH  10  13
ENDBRANCH   6   9
ENDBRANCH   1   3
BRANCH   1  16
HETATM   16  C8  UNL     1      26.234   7.305  48.897  1.00  0.00     0.158 A 
HETATM   17  N3  UNL     1      25.490   8.282  49.260  1.00  0.00    -0.156 NA
HETATM   18  N4  UNL     1      26.053   9.520  49.556  1.00  0.00    -0.287 N 
HETATM   19  C9  UNL     1      27.435   9.849  49.503  1.00  0.00     0.119 A 
HETATM   20  H10 UNL     1      25.378  10.264  49.843  1.00  0.00     0.188 HD
HETATM   21  C10 UNL     1      28.203   8.844  49.131  1.00  0.00    -0.004 A 
HETATM   22  C13 UNL     1      27.692   7.515  48.801  1.00  0.00     0.020 A 
HETATM   23  C14 UNL     1      28.462   6.510  48.419  1.00  0.00     0.015 C 
BRANCH  21  24
HETATM   24  C11 UNL     1      29.649   9.150  49.065  1.00  0.00     0.208 C 
BRANCH  24  25
HETATM   25  O3  UNL     1      29.931   9.723  47.820  1.00  0.00    -0.391 OA
HETATM   26  C12 UNL     1      30.737  10.852  47.953  1.00  0.00     0.201 C 
ENDBRANCH  24  25
ENDBRANCH  21  24
BRANCH  23  27
HETATM   27  C15 UNL     1      29.803   5.988  48.119  1.00  0.00     0.192 C 
BRANCH  27  28
HETATM   28  O4  UNL     1      30.449   5.601  49.307  1.00  0.00    -0.397 OA
HETATM   29  H20 UNL     1      31.399   5.878  49.291  1.00  0.00     0.209 HD
ENDBRANCH  27  28
ENDBRANCH  23  27
ENDBRANCH   1  16
TORSDOF 9
ENDMDL
MODEL 9
REMARK VINA RESULT:      -6.3      2.864      7.321
REMARK  9 active torsions:
REMARK  status: ('A' for Active; 'I' for Inactive)
REMARK    1  A    between atoms: C2_2  and  O1_3 
REMARK    2  A    between atoms: O1_3  and  C3_4 
REMARK       I    between atoms: C3_4  and  N1_6 
REMARK    3  A    between atoms: N1_6  and  C4_7 
REMARK    4  A    between atoms: C7_10  and  N2_11 
REMARK    5  A    between atoms: N2_11  and  C8_12 
REMARK    6  A    between atoms: C10_16  and  C11_17 
REMARK    7  A    between atoms: C11_17  and  O3_18 
REMARK    8  A    between atoms: C14_21  and  C15_22 
REMARK    9  A    between atoms: C15_22  and  O4_23 
ROOT
HETATM    1  N2  UNL     1      24.295   4.677  51.136  1.00  0.00    -0.339 N 
HETATM    2  H9  UNL     1      23.915   5.443  51.770  1.00  0.00     0.167 HD
ENDROOT
BRANCH   1   3
HETATM    3  C7  UNL     1      25.380   4.936  50.292  1.00  0.00     0.033 A 
HETATM    4  C6  UNL     1      25.640   6.269  49.944  1.00  0.00     0.032 A 
HETATM    5  C5  UNL     1      26.661   6.644  49.129  1.00  0.00     0.032 A 
HETATM    6  C4  UNL     1      27.531   5.734  48.574  1.00  0.00     0.036 A 
HETATM    7  C17 UNL     1      27.283   4.425  48.910  1.00  0.00     0.032 A 
HETATM    8  C16 UNL     1      26.248   4.044  49.736  1.00  0.00     0.032 A 
BRANCH   6   9
HETATM    9  N1  UNL     1      28.558   6.194  47.747  1.00  0.00    -0.303 N 
HETATM   10  C3  UNL     1      29.965   6.107  47.896  1.00  0.00     0.365 C 
HETATM   11  O2  UNL     1      30.434   5.544  48.897  1.00  0.00    -0.238 OA
HETATM   12  H6  UNL     1      28.314   6.698  46.849  1.00  0.00     0.171 HD
BRANCH  10  13
HETATM   13  O1  UNL     1      30.882   6.604  47.002  1.00  0.00    -0.304 OA
BRANCH  13  14
HETATM   14  C2  UNL     1      32.205   6.876  47.428  1.00  0.00     0.176 C 
HETATM   15  C1  UNL     1      32.367   8.335  47.806  1.00  0.00     0.034 C 
ENDBRANCH  13  14
ENDBRANCH  10  13
ENDBRANCH   6   9
ENDBRANCH   1   3
BRANCH   1  16
HETATM   16  C8  UNL     1      23.624   3.442  51.230  1.00  0.00     0.158 A 
HETATM   17  N3  UNL     1      22.606   3.256  50.474  1.00  0.00    -0.156 NA
HETATM   18  N4  UNL     1      21.906   2.054  50.524  1.00  0.00    -0.287 N 
HETATM   19  C9  UNL     1      22.201   0.943  51.360  1.00  0.00     0.119 A 
HETATM   20  H10 UNL     1      21.088   1.983  49.877  1.00  0.00     0.188 HD
HETATM   21  C10 UNL     1      23.249   1.132  52.138  1.00  0.00    -0.004 A 
HETATM   22  C13 UNL     1      24.038   2.362  52.148  1.00  0.00     0.020 A 
HETATM   23  C14 UNL     1      25.082   2.554  52.934  1.00  0.00     0.015 C 
BRANCH  21  24
HETATM   24  C11 UNL     1      23.586  -0.005  53.022  1.00  0.00     0.208 C 
BRANCH  24  25
HETATM   25  O3  UNL     1      22.483  -0.863  53.092  1.00  0.00    -0.391 OA
HETATM   26  C12 UNL     1      22.204  -1.222  54.410  1.00  0.00     0.201 C 
ENDBRANCH  24  25
ENDBRANCH  21  24
BRANCH  23  27
HETATM   27  C15 UNL     1      25.993   2.049  53.972  1.00  0.00     0.192 C 
BRANCH  27  28
HETATM   28  O4  UNL     1      26.948   1.188  53.402  1.00  0.00    -0.397 OA
HETATM   29  H20 UNL     1      27.800   1.669  53.251  1.00  0.00     0.209 HD
ENDBRANCH  27  28
ENDBRANCH  23  27
ENDBRANCH   1  16
TORSDOF 9
ENDMDL
