MODEL 1
REMARK VINA RESULT:     -10.1      0.000      0.000
REMARK  0 active torsions:
REMARK  status: ('A' for Active; 'I' for Inactive)
ROOT
HETATM    1  C1  UNL     1      18.657   3.996  48.810  1.00  0.00     0.152 C 
HETATM    2  N1  UNL     1      20.064   4.201  48.525  1.00  0.00    -0.364 N 
HETATM    3  C2  UNL     1      20.881   4.571  47.413  1.00  0.00     0.293 C 
HETATM    4  O1  UNL     1      22.214   4.464  47.842  1.00  0.00    -0.361 OA
HETATM    5  C3  UNL     1      22.066   4.844  49.262  1.00  0.00     0.174 C 
HETATM    6  C4  UNL     1      22.103   6.303  49.262  1.00  0.00     0.050 C 
HETATM    7  C5  UNL     1      23.339   6.820  50.035  1.00  0.00     0.097 C 
HETATM    8  C6  UNL     1      24.458   5.956  49.917  1.00  0.00    -0.096 C 
HETATM    9  C7  UNL     1      25.338   5.264  49.842  1.00  0.00    -0.005 C 
HETATM   10  C8  UNL     1      26.398   4.402  49.763  1.00  0.00     0.300 C 
HETATM   11  O2  UNL     1      27.417   3.882  49.304  1.00  0.00    -0.258 OA
HETATM   12  N2  UNL     1      26.255   3.579  50.893  1.00  0.00    -0.316 N 
HETATM   13  C9  UNL     1      26.596   2.490  51.800  1.00  0.00     0.036 A 
HETATM   14  C10 UNL     1      27.651   1.936  52.447  1.00  0.00     0.032 A 
HETATM   15  C11 UNL     1      27.437   0.929  53.324  1.00  0.00     0.035 A 
HETATM   16  C12 UNL     1      26.223   0.373  53.652  1.00  0.00     0.072 A 
HETATM   17  N3  UNL     1      26.027  -0.624  54.577  1.00  0.00    -0.241 NA
HETATM   18  C13 UNL     1      24.728  -1.011  54.785  1.00  0.00     0.236 A 
HETATM   19  N4  UNL     1      23.599  -0.518  54.175  1.00  0.00    -0.223 NA
HETATM   20  C14 UNL     1      23.721   0.443  53.274  1.00  0.00     0.150 A 
HETATM   21  C15 UNL     1      25.030   0.815  53.082  1.00  0.00     0.041 A 
HETATM   22  C16 UNL     1      25.497   1.768  52.289  1.00  0.00     0.047 A 
HETATM   23  N5  UNL     1      22.871   1.169  52.457  1.00  0.00    -0.281 N 
HETATM   24  C17 UNL     1      22.926   2.546  52.290  1.00  0.00     0.102 A 
HETATM   25  C18 UNL     1      22.441   3.531  51.633  1.00  0.00     0.033 A 
HETATM   26  C19 UNL     1      21.404   3.278  50.642  1.00  0.00     0.017 A 
HETATM   27  C20 UNL     1      20.943   3.990  49.633  1.00  0.00     0.050 C 
HETATM   28  C21 UNL     1      21.228   1.824  50.727  1.00  0.00     0.102 A 
HETATM   29 CL1  UNL     1      20.070   0.983  49.720  1.00  0.00    -0.078 Cl
HETATM   30  C22 UNL     1      21.850   0.963  51.492  1.00  0.00     0.219 A 
HETATM   31  F1  UNL     1      21.687  -0.367  51.550  1.00  0.00    -0.184 F 
HETATM   32  H11 UNL     1      25.503   3.882  51.603  1.00  0.00     0.170 HD
ENDROOT
TORSDOF 0
ENDMDL
MODEL 2
REMARK VINA RESULT:      -9.5      2.874      6.432
REMARK  0 active torsions:
REMARK  status: ('A' for Active; 'I' for Inactive)
ROOT
HETATM    1  C1  UNL     1      26.312  -0.740  53.715  1.00  0.00     0.152 C 
HETATM    2  N1  UNL     1      25.867   0.616  53.459  1.00  0.00    -0.364 N 
HETATM    3  C2  UNL     1      26.268   1.947  53.791  1.00  0.00     0.293 C 
HETATM    4  O1  UNL     1      25.282   2.802  53.273  1.00  0.00    -0.361 OA
HETATM    5  C3  UNL     1      24.886   2.051  52.065  1.00  0.00     0.174 C 
HETATM    6  C4  UNL     1      25.862   2.438  51.051  1.00  0.00     0.050 C 
HETATM    7  C5  UNL     1      25.174   3.191  49.888  1.00  0.00     0.097 C 
HETATM    8  C6  UNL     1      24.065   3.964  50.317  1.00  0.00    -0.096 C 
HETATM    9  C7  UNL     1      23.174   4.558  50.651  1.00  0.00    -0.005 C 
HETATM   10  C8  UNL     1      22.077   5.263  51.066  1.00  0.00     0.300 C 
HETATM   11  O2  UNL     1      21.429   6.211  51.515  1.00  0.00    -0.258 OA
HETATM   12  N2  UNL     1      21.008   4.369  50.885  1.00  0.00    -0.316 N 
HETATM   13  C9  UNL     1      19.621   3.922  50.935  1.00  0.00     0.036 A 
HETATM   14  C10 UNL     1      18.362   4.328  50.637  1.00  0.00     0.032 A 
HETATM   15  C11 UNL     1      17.335   3.459  50.774  1.00  0.00     0.035 A 
HETATM   16  C12 UNL     1      17.418   2.154  51.199  1.00  0.00     0.072 A 
HETATM   17  N3  UNL     1      16.363   1.278  51.292  1.00  0.00    -0.241 NA
HETATM   18  C13 UNL     1      16.667   0.005  51.703  1.00  0.00     0.236 A 
HETATM   19  N4  UNL     1      17.904  -0.495  52.033  1.00  0.00    -0.223 NA
HETATM   20  C14 UNL     1      18.960   0.299  51.965  1.00  0.00     0.150 A 
HETATM   21  C15 UNL     1      18.632   1.568  51.552  1.00  0.00     0.041 A 
HETATM   22  C16 UNL     1      19.448   2.590  51.339  1.00  0.00     0.047 A 
HETATM   23  N5  UNL     1      20.318   0.190  52.216  1.00  0.00    -0.281 N 
HETATM   24  C17 UNL     1      21.313   0.658  51.370  1.00  0.00     0.102 A 
HETATM   25  C18 UNL     1      22.576   0.832  51.252  1.00  0.00     0.033 A 
HETATM   26  C19 UNL     1      23.452   0.420  52.339  1.00  0.00     0.017 A 
HETATM   27  C20 UNL     1      24.696   0.727  52.646  1.00  0.00     0.050 C 
HETATM   28  C21 UNL     1      22.508  -0.125  53.321  1.00  0.00     0.102 A 
HETATM   29 CL1  UNL     1      23.055  -0.773  54.852  1.00  0.00    -0.078 Cl
HETATM   30  C22 UNL     1      21.204  -0.211  53.250  1.00  0.00     0.219 A 
HETATM   31  F1  UNL     1      20.352  -0.701  54.163  1.00  0.00    -0.184 F 
HETATM   32  H11 UNL     1      21.240   3.461  50.353  1.00  0.00     0.170 HD
ENDROOT
TORSDOF 0
ENDMDL
MODEL 3
REMARK VINA RESULT:      -9.5      2.758      4.711
REMARK  0 active torsions:
REMARK  status: ('A' for Active; 'I' for Inactive)
ROOT
HETATM    1  C1  UNL     1      19.993   5.741  48.149  1.00  0.00     0.152 C 
HETATM    2  N1  UNL     1      19.647   4.913  49.289  1.00  0.00    -0.364 N 
HETATM    3  C2  UNL     1      18.602   4.821  50.259  1.00  0.00     0.293 C 
HETATM    4  O1  UNL     1      18.980   3.814  51.161  1.00  0.00    -0.361 OA
HETATM    5  C3  UNL     1      19.710   2.905  50.254  1.00  0.00     0.174 C 
HETATM    6  C4  UNL     1      18.673   2.077  49.646  1.00  0.00     0.050 C 
HETATM    7  C5  UNL     1      18.850   0.595  50.049  1.00  0.00     0.097 C 
HETATM    8  C6  UNL     1      19.381   0.443  51.355  1.00  0.00    -0.096 C 
HETATM    9  C7  UNL     1      19.821   0.321  52.380  1.00  0.00    -0.005 C 
HETATM   10  C8  UNL     1      20.378   0.183  53.623  1.00  0.00     0.300 C 
HETATM   11  O2  UNL     1      20.425   0.093  54.852  1.00  0.00    -0.258 OA
HETATM   12  N2  UNL     1      21.758   0.097  53.371  1.00  0.00    -0.316 N 
HETATM   13  C9  UNL     1      23.171  -0.019  53.714  1.00  0.00     0.036 A 
HETATM   14  C10 UNL     1      24.020  -0.728  54.497  1.00  0.00     0.032 A 
HETATM   15  C11 UNL     1      25.353  -0.527  54.382  1.00  0.00     0.035 A 
HETATM   16  C12 UNL     1      25.977   0.350  53.528  1.00  0.00     0.072 A 
HETATM   17  N3  UNL     1      27.337   0.507  53.401  1.00  0.00    -0.241 NA
HETATM   18  C13 UNL     1      27.757   1.410  52.460  1.00  0.00     0.236 A 
HETATM   19  N4  UNL     1      26.977   2.178  51.628  1.00  0.00    -0.223 NA
HETATM   20  C14 UNL     1      25.660   2.074  51.702  1.00  0.00     0.150 A 
HETATM   21  C15 UNL     1      25.262   1.164  52.651  1.00  0.00     0.041 A 
HETATM   22  C16 UNL     1      24.026   0.789  52.951  1.00  0.00     0.047 A 
HETATM   23  N5  UNL     1      24.569   2.655  51.078  1.00  0.00    -0.281 N 
HETATM   24  C17 UNL     1      23.473   1.954  50.596  1.00  0.00     0.102 A 
HETATM   25  C18 UNL     1      22.311   2.078  50.074  1.00  0.00     0.033 A 
HETATM   26  C19 UNL     1      21.793   3.412  49.809  1.00  0.00     0.017 A 
HETATM   27  C20 UNL     1      20.577   3.866  49.582  1.00  0.00     0.050 C 
HETATM   28  C21 UNL     1      22.886   4.277  50.268  1.00  0.00     0.102 A 
HETATM   29 CL1  UNL     1      22.774   6.020  50.171  1.00  0.00    -0.078 Cl
HETATM   30  C22 UNL     1      24.036   3.940  50.794  1.00  0.00     0.219 A 
HETATM   31  F1  UNL     1      25.022   4.744  51.221  1.00  0.00    -0.184 F 
HETATM   32  H11 UNL     1      22.042   0.000  52.336  1.00  0.00     0.170 HD
ENDROOT
TORSDOF 0
ENDMDL
MODEL 4
REMARK VINA RESULT:      -9.3      1.571      2.008
REMARK  0 active torsions:
REMARK  status: ('A' for Active; 'I' for Inactive)
ROOT
HETATM    1  C1  UNL     1      19.453   7.168  48.114  1.00  0.00     0.152 C 
HETATM    2  N1  UNL     1      20.865   6.920  47.900  1.00  0.00    -0.364 N 
HETATM    3  C2  UNL     1      21.836   7.120  46.870  1.00  0.00     0.293 C 
HETATM    4  O1  UNL     1      23.025   6.524  47.320  1.00  0.00    -0.361 OA
HETATM    5  C3  UNL     1      22.910   6.765  48.773  1.00  0.00     0.174 C 
HETATM    6  C4  UNL     1      23.425   8.117  48.967  1.00  0.00     0.050 C 
HETATM    7  C5  UNL     1      24.703   8.096  49.836  1.00  0.00     0.097 C 
HETATM    8  C6  UNL     1      25.481   6.927  49.638  1.00  0.00    -0.096 C 
HETATM    9  C7  UNL     1      26.087   5.993  49.497  1.00  0.00    -0.005 C 
HETATM   10  C8  UNL     1      26.807   4.841  49.335  1.00  0.00     0.300 C 
HETATM   11  O2  UNL     1      27.629   4.066  48.841  1.00  0.00    -0.258 OA
HETATM   12  N2  UNL     1      26.321   3.989  50.342  1.00  0.00    -0.316 N 
HETATM   13  C9  UNL     1      26.219   2.751  51.106  1.00  0.00     0.036 A 
HETATM   14  C10 UNL     1      26.984   1.806  51.704  1.00  0.00     0.032 A 
HETATM   15  C11 UNL     1      26.388   0.834  52.434  1.00  0.00     0.035 A 
HETATM   16  C12 UNL     1      25.038   0.685  52.650  1.00  0.00     0.072 A 
HETATM   17  N3  UNL     1      24.460  -0.289  53.429  1.00  0.00    -0.241 NA
HETATM   18  C13 UNL     1      23.095  -0.238  53.547  1.00  0.00     0.236 A 
HETATM   19  N4  UNL     1      22.237   0.672  52.975  1.00  0.00    -0.223 NA
HETATM   20  C14 UNL     1      22.733   1.633  52.213  1.00  0.00     0.150 A 
HETATM   21  C15 UNL     1      24.101   1.563  52.109  1.00  0.00     0.041 A 
HETATM   22  C16 UNL     1      24.912   2.390  51.463  1.00  0.00     0.047 A 
HETATM   23  N5  UNL     1      22.230   2.692  51.475  1.00  0.00    -0.281 N 
HETATM   24  C17 UNL     1      22.747   3.979  51.493  1.00  0.00     0.102 A 
HETATM   25  C18 UNL     1      22.661   5.139  50.959  1.00  0.00     0.033 A 
HETATM   26  C19 UNL     1      21.672   5.364  49.913  1.00  0.00     0.017 A 
HETATM   27  C20 UNL     1      21.545   6.301  48.995  1.00  0.00     0.050 C 
HETATM   28  C21 UNL     1      21.022   4.054  49.800  1.00  0.00     0.102 A 
HETATM   29 CL1  UNL     1      19.727   3.772  48.658  1.00  0.00    -0.078 Cl
HETATM   30  C22 UNL     1      21.269   2.952  50.462  1.00  0.00     0.219 A 
HETATM   31  F1  UNL     1      20.674   1.756  50.339  1.00  0.00    -0.184 F 
HETATM   32  H11 UNL     1      25.662   4.443  51.064  1.00  0.00     0.170 HD
ENDROOT
TORSDOF 0
ENDMDL
MODEL 5
REMARK VINA RESULT:      -9.3      1.916      2.357
REMARK  0 active torsions:
REMARK  status: ('A' for Active; 'I' for Inactive)
ROOT
HETATM    1  C1  UNL     1      16.321   4.088  49.590  1.00  0.00     0.152 C 
HETATM    2  N1  UNL     1      17.711   4.173  49.184  1.00  0.00    -0.364 N 
HETATM    3  C2  UNL     1      18.458   4.473  48.003  1.00  0.00     0.293 C 
HETATM    4  O1  UNL     1      19.809   4.254  48.318  1.00  0.00    -0.361 OA
HETATM    5  C3  UNL     1      19.816   4.644  49.743  1.00  0.00     0.174 C 
HETATM    6  C4  UNL     1      19.976   6.094  49.729  1.00  0.00     0.050 C 
HETATM    7  C5  UNL     1      21.313   6.504  50.390  1.00  0.00     0.097 C 
HETATM    8  C6  UNL     1      22.341   5.549  50.183  1.00  0.00    -0.096 C 
HETATM    9  C7  UNL     1      23.149   4.785  50.038  1.00  0.00    -0.005 C 
HETATM   10  C8  UNL     1      24.122   3.837  49.874  1.00  0.00     0.300 C 
HETATM   11  O2  UNL     1      25.051   3.233  49.332  1.00  0.00    -0.258 OA
HETATM   12  N2  UNL     1      24.008   3.028  51.017  1.00  0.00    -0.316 N 
HETATM   13  C9  UNL     1      24.332   1.913  51.899  1.00  0.00     0.036 A 
HETATM   14  C10 UNL     1      25.388   1.272  52.457  1.00  0.00     0.032 A 
HETATM   15  C11 UNL     1      25.166   0.286  53.357  1.00  0.00     0.035 A 
HETATM   16  C12 UNL     1      23.941  -0.165  53.791  1.00  0.00     0.072 A 
HETATM   17  N3  UNL     1      23.743  -1.143  54.736  1.00  0.00    -0.241 NA
HETATM   18  C13 UNL     1      22.438  -1.418  55.057  1.00  0.00     0.236 A 
HETATM   19  N4  UNL     1      21.307  -0.831  54.542  1.00  0.00    -0.223 NA
HETATM   20  C14 UNL     1      21.431   0.117  53.628  1.00  0.00     0.150 A 
HETATM   21  C15 UNL     1      22.746   0.376  53.322  1.00  0.00     0.041 A 
HETATM   22  C16 UNL     1      23.222   1.287  52.485  1.00  0.00     0.047 A 
HETATM   23  N5  UNL     1      20.579   0.913  52.882  1.00  0.00    -0.281 N 
HETATM   24  C17 UNL     1      20.736   2.280  52.701  1.00  0.00     0.102 A 
HETATM   25  C18 UNL     1      20.280   3.303  52.081  1.00  0.00     0.033 A 
HETATM   26  C19 UNL     1      19.145   3.139  51.184  1.00  0.00     0.017 A 
HETATM   27  C20 UNL     1      18.661   3.888  50.214  1.00  0.00     0.050 C 
HETATM   28  C21 UNL     1      18.855   1.705  51.294  1.00  0.00     0.102 A 
HETATM   29 CL1  UNL     1      17.548   0.966  50.395  1.00  0.00    -0.078 Cl
HETATM   30  C22 UNL     1      19.465   0.794  52.009  1.00  0.00     0.219 A 
HETATM   31  F1  UNL     1      19.196  -0.518  52.089  1.00  0.00    -0.184 F 
HETATM   32  H11 UNL     1      23.348   3.393  51.787  1.00  0.00     0.170 HD
ENDROOT
TORSDOF 0
ENDMDL
MODEL 6
REMARK VINA RESULT:      -9.1      2.233      6.360
REMARK  0 active torsions:
REMARK  status: ('A' for Active; 'I' for Inactive)
ROOT
HETATM    1  C1  UNL     1      25.220  -0.868  53.507  1.00  0.00     0.152 C 
HETATM    2  N1  UNL     1      25.366   0.559  53.290  1.00  0.00    -0.364 N 
HETATM    3  C2  UNL     1      26.139   1.641  53.812  1.00  0.00     0.293 C 
HETATM    4  O1  UNL     1      25.668   2.807  53.187  1.00  0.00    -0.361 OA
HETATM    5  C3  UNL     1      25.300   2.269  51.862  1.00  0.00     0.174 C 
HETATM    6  C4  UNL     1      26.545   2.272  51.101  1.00  0.00     0.050 C 
HETATM    7  C5  UNL     1      26.448   3.238  49.897  1.00  0.00     0.097 C 
HETATM    8  C6  UNL     1      25.630   4.365  50.164  1.00  0.00    -0.096 C 
HETATM    9  C7  UNL     1      24.966   5.246  50.367  1.00  0.00    -0.005 C 
HETATM   10  C8  UNL     1      24.137   6.306  50.616  1.00  0.00     0.300 C 
HETATM   11  O2  UNL     1      23.796   7.423  51.010  1.00  0.00    -0.258 OA
HETATM   12  N2  UNL     1      22.883   5.877  50.147  1.00  0.00    -0.316 N 
HETATM   13  C9  UNL     1      21.453   5.980  49.881  1.00  0.00     0.036 A 
HETATM   14  C10 UNL     1      20.525   6.830  49.376  1.00  0.00     0.032 A 
HETATM   15  C11 UNL     1      19.249   6.405  49.228  1.00  0.00     0.035 A 
HETATM   16  C12 UNL     1      18.758   5.160  49.543  1.00  0.00     0.072 A 
HETATM   17  N3  UNL     1      17.464   4.741  49.346  1.00  0.00    -0.241 NA
HETATM   18  C13 UNL     1      17.189   3.443  49.694  1.00  0.00     0.236 A 
HETATM   19  N4  UNL     1      18.057   2.514  50.217  1.00  0.00    -0.223 NA
HETATM   20  C14 UNL     1      19.316   2.857  50.431  1.00  0.00     0.150 A 
HETATM   21  C15 UNL     1      19.569   4.160  50.077  1.00  0.00     0.041 A 
HETATM   22  C16 UNL     1      20.726   4.806  50.121  1.00  0.00     0.047 A 
HETATM   23  N5  UNL     1      20.452   2.247  50.936  1.00  0.00    -0.281 N 
HETATM   24  C17 UNL     1      21.708   2.317  50.350  1.00  0.00     0.102 A 
HETATM   25  C18 UNL     1      22.941   2.008  50.501  1.00  0.00     0.033 A 
HETATM   26  C19 UNL     1      23.349   1.288  51.699  1.00  0.00     0.017 A 
HETATM   27  C20 UNL     1      24.521   1.106  52.273  1.00  0.00     0.050 C 
HETATM   28  C21 UNL     1      22.083   1.127  52.422  1.00  0.00     0.102 A 
HETATM   29 CL1  UNL     1      22.010   0.308  53.967  1.00  0.00    -0.078 Cl
HETATM   30  C22 UNL     1      20.885   1.535  52.086  1.00  0.00     0.219 A 
HETATM   31  F1  UNL     1      19.737   1.391  52.764  1.00  0.00    -0.184 F 
HETATM   32  H11 UNL     1      22.880   4.953  49.593  1.00  0.00     0.170 HD
ENDROOT
TORSDOF 0
ENDMDL
MODEL 7
REMARK VINA RESULT:      -9.0      2.716      6.846
REMARK  0 active torsions:
REMARK  status: ('A' for Active; 'I' for Inactive)
ROOT
HETATM    1  C1  UNL     1      24.815  -0.512  54.435  1.00  0.00     0.152 C 
HETATM    2  N1  UNL     1      23.772  -0.346  53.441  1.00  0.00    -0.364 N 
HETATM    3  C2  UNL     1      22.795  -1.151  52.779  1.00  0.00     0.293 C 
HETATM    4  O1  UNL     1      22.172  -0.326  51.829  1.00  0.00    -0.361 OA
HETATM    5  C3  UNL     1      22.222   0.973  52.532  1.00  0.00     0.174 C 
HETATM    6  C4  UNL     1      21.053   0.967  53.405  1.00  0.00     0.050 C 
HETATM    7  C5  UNL     1      20.060   2.081  52.998  1.00  0.00     0.097 C 
HETATM    8  C6  UNL     1      20.058   2.329  51.602  1.00  0.00    -0.096 C 
HETATM    9  C7  UNL     1      20.071   2.540  50.500  1.00  0.00    -0.005 C 
HETATM   10  C8  UNL     1      20.109   2.806  49.158  1.00  0.00     0.300 C 
HETATM   11  O2  UNL     1      19.833   2.694  47.962  1.00  0.00    -0.258 OA
HETATM   12  N2  UNL     1      21.050   3.844  49.042  1.00  0.00    -0.316 N 
HETATM   13  C9  UNL     1      21.873   4.825  48.344  1.00  0.00     0.036 A 
HETATM   14  C10 UNL     1      21.806   5.775  47.380  1.00  0.00     0.032 A 
HETATM   15  C11 UNL     1      22.887   6.553  47.139  1.00  0.00     0.035 A 
HETATM   16  C12 UNL     1      24.099   6.492  47.784  1.00  0.00     0.072 A 
HETATM   17  N3  UNL     1      25.170   7.321  47.547  1.00  0.00    -0.241 NA
HETATM   18  C13 UNL     1      26.278   7.117  48.329  1.00  0.00     0.236 A 
HETATM   19  N4  UNL     1      26.443   6.179  49.320  1.00  0.00    -0.223 NA
HETATM   20  C14 UNL     1      25.449   5.350  49.596  1.00  0.00     0.150 A 
HETATM   21  C15 UNL     1      24.350   5.572  48.801  1.00  0.00     0.041 A 
HETATM   22  C16 UNL     1      23.178   4.954  48.841  1.00  0.00     0.047 A 
HETATM   23  N5  UNL     1      25.228   4.301  50.471  1.00  0.00    -0.281 N 
HETATM   24  C17 UNL     1      24.081   4.143  51.237  1.00  0.00     0.102 A 
HETATM   25  C18 UNL     1      23.471   3.356  52.041  1.00  0.00     0.033 A 
HETATM   26  C19 UNL     1      24.099   2.094  52.407  1.00  0.00     0.017 A 
HETATM   27  C20 UNL     1      23.624   0.984  52.935  1.00  0.00     0.050 C 
HETATM   28  C21 UNL     1      25.362   2.137  51.662  1.00  0.00     0.102 A 
HETATM   29 CL1  UNL     1      26.520   0.828  51.752  1.00  0.00    -0.078 Cl
HETATM   30  C22 UNL     1      25.814   3.067  50.860  1.00  0.00     0.219 A 
HETATM   31  F1  UNL     1      26.967   3.086  50.176  1.00  0.00    -0.184 F 
HETATM   32  H11 UNL     1      21.385   4.280  49.968  1.00  0.00     0.170 HD
ENDROOT
TORSDOF 0
ENDMDL
MODEL 8
REMARK VINA RESULT:      -8.8      2.922      5.124
REMARK  0 active torsions:
REMARK  status: ('A' for Active; 'I' for Inactive)
ROOT
HETATM    1  C1  UNL     1      23.559   7.016  48.671  1.00  0.00     0.152 C 
HETATM    2  N1  UNL     1      22.248   6.475  48.976  1.00  0.00    -0.364 N 
HETATM    3  C2  UNL     1      20.896   6.934  49.039  1.00  0.00     0.293 C 
HETATM    4  O1  UNL     1      20.131   5.860  49.520  1.00  0.00    -0.361 OA
HETATM    5  C3  UNL     1      20.871   4.723  48.935  1.00  0.00     0.174 C 
HETATM    6  C4  UNL     1      20.342   4.593  47.581  1.00  0.00     0.050 C 
HETATM    7  C5  UNL     1      19.621   3.237  47.404  1.00  0.00     0.097 C 
HETATM    8  C6  UNL     1      18.988   2.794  48.593  1.00  0.00    -0.096 C 
HETATM    9  C7  UNL     1      18.506   2.431  49.539  1.00  0.00    -0.005 C 
HETATM   10  C8  UNL     1      17.939   1.987  50.703  1.00  0.00     0.300 C 
HETATM   11  O2  UNL     1      17.084   1.858  51.582  1.00  0.00    -0.258 OA
HETATM   12  N2  UNL     1      18.934   1.182  51.283  1.00  0.00    -0.316 N 
HETATM   13  C9  UNL     1      19.528   0.321  52.299  1.00  0.00     0.036 A 
HETATM   14  C10 UNL     1      19.246  -0.751  53.080  1.00  0.00     0.032 A 
HETATM   15  C11 UNL     1      20.225  -1.292  53.841  1.00  0.00     0.035 A 
HETATM   16  C12 UNL     1      21.529  -0.865  53.922  1.00  0.00     0.072 A 
HETATM   17  N3  UNL     1      22.516  -1.458  54.674  1.00  0.00    -0.241 NA
HETATM   18  C13 UNL     1      23.764  -0.897  54.584  1.00  0.00     0.236 A 
HETATM   19  N4  UNL     1      24.143   0.189  53.831  1.00  0.00    -0.223 NA
HETATM   20  C14 UNL     1      23.239   0.803  53.086  1.00  0.00     0.150 A 
HETATM   21  C15 UNL     1      21.996   0.226  53.191  1.00  0.00     0.041 A 
HETATM   22  C16 UNL     1      20.885   0.563  52.552  1.00  0.00     0.047 A 
HETATM   23  N5  UNL     1      23.212   1.893  52.232  1.00  0.00    -0.281 N 
HETATM   24  C17 UNL     1      22.608   1.898  50.983  1.00  0.00     0.102 A 
HETATM   25  C18 UNL     1      22.295   2.637  49.985  1.00  0.00     0.033 A 
HETATM   26  C19 UNL     1      22.656   4.047  50.009  1.00  0.00     0.017 A 
HETATM   27  C20 UNL     1      22.230   5.087  49.320  1.00  0.00     0.050 C 
HETATM   28  C21 UNL     1      23.336   4.182  51.302  1.00  0.00     0.102 A 
HETATM   29 CL1  UNL     1      23.984   5.717  51.838  1.00  0.00    -0.078 Cl
HETATM   30  C22 UNL     1      23.558   3.270  52.214  1.00  0.00     0.219 A 
HETATM   31  F1  UNL     1      24.172   3.411  53.399  1.00  0.00    -0.184 F 
HETATM   32  H11 UNL     1      19.790   0.973  50.662  1.00  0.00     0.170 HD
ENDROOT
TORSDOF 0
ENDMDL
MODEL 9
REMARK VINA RESULT:      -8.7      2.933      4.860
REMARK  0 active torsions:
REMARK  status: ('A' for Active; 'I' for Inactive)
ROOT
HETATM    1  C1  UNL     1      22.432   7.629  45.747  1.00  0.00     0.152 C 
HETATM    2  N1  UNL     1      21.567   7.058  46.762  1.00  0.00    -0.364 N 
HETATM    3  C2  UNL     1      20.333   7.376  47.409  1.00  0.00     0.293 C 
HETATM    4  O1  UNL     1      20.136   6.398  48.397  1.00  0.00    -0.361 OA
HETATM    5  C3  UNL     1      20.755   5.228  47.741  1.00  0.00     0.174 C 
HETATM    6  C4  UNL     1      19.705   4.684  46.886  1.00  0.00     0.050 C 
HETATM    7  C5  UNL     1      19.304   3.263  47.347  1.00  0.00     0.097 C 
HETATM    8  C6  UNL     1      19.409   3.095  48.751  1.00  0.00    -0.096 C 
HETATM    9  C7  UNL     1      19.511   2.953  49.859  1.00  0.00    -0.005 C 
HETATM   10  C8  UNL     1      19.659   2.783  51.209  1.00  0.00     0.300 C 
HETATM   11  O2  UNL     1      19.360   2.808  52.405  1.00  0.00    -0.258 OA
HETATM   12  N2  UNL     1      20.961   2.271  51.348  1.00  0.00    -0.316 N 
HETATM   13  C9  UNL     1      22.131   1.781  52.068  1.00  0.00     0.036 A 
HETATM   14  C10 UNL     1      22.487   0.936  53.066  1.00  0.00     0.032 A 
HETATM   15  C11 UNL     1      23.800   0.724  53.319  1.00  0.00     0.035 A 
HETATM   16  C12 UNL     1      24.862   1.289  52.654  1.00  0.00     0.072 A 
HETATM   17  N3  UNL     1      26.188   1.026  52.904  1.00  0.00    -0.241 NA
HETATM   18  C13 UNL     1      27.094   1.667  52.098  1.00  0.00     0.236 A 
HETATM   19  N4  UNL     1      26.831   2.542  51.072  1.00  0.00    -0.223 NA
HETATM   20  C14 UNL     1      25.574   2.837  50.782  1.00  0.00     0.150 A 
HETATM   21  C15 UNL     1      24.684   2.184  51.601  1.00  0.00     0.041 A 
HETATM   22  C16 UNL     1      23.360   2.221  51.556  1.00  0.00     0.047 A 
HETATM   23  N5  UNL     1      24.915   3.647  49.873  1.00  0.00    -0.281 N 
HETATM   24  C17 UNL     1      23.819   3.254  49.120  1.00  0.00     0.102 A 
HETATM   25  C18 UNL     1      22.926   3.660  48.297  1.00  0.00     0.033 A 
HETATM   26  C19 UNL     1      22.933   5.054  47.877  1.00  0.00     0.017 A 
HETATM   27  C20 UNL     1      22.019   5.820  47.317  1.00  0.00     0.050 C 
HETATM   28  C21 UNL     1      24.084   5.601  48.604  1.00  0.00     0.102 A 
HETATM   29 CL1  UNL     1      24.547   7.282  48.450  1.00  0.00    -0.078 Cl
HETATM   30  C22 UNL     1      24.898   4.997  49.432  1.00  0.00     0.219 A 
HETATM   31  F1  UNL     1      25.941   5.514  50.099  1.00  0.00    -0.184 F 
HETATM   32  H11 UNL     1      21.456   1.992  50.433  1.00  0.00     0.170 HD
ENDROOT
TORSDOF 0
ENDMDL
