MODEL 1
REMARK VINA RESULT:      -7.9      0.000      0.000
REMARK  5 active torsions:
REMARK  status: ('A' for Active; 'I' for Inactive)
REMARK    1  A    between atoms: C2_2  and  S1_3 
REMARK    2  A    between atoms: S1_3  and  C3_4 
REMARK    3  A    between atoms: C3_4  and  N1_5 
REMARK    4  A    between atoms: C4_7  and  C5_8 
REMARK    5  A    between atoms: C13_16  and  C14_17 
ROOT
HETATM    1  N1  UNL     1      25.942   0.963  53.634  1.00  0.00    -0.286 N 
HETATM    2  N2  UNL     1      26.169   2.176  53.028  1.00  0.00    -0.179 NA
HETATM    3  C4  UNL     1      25.654   2.222  51.847  1.00  0.00     0.067 C 
HETATM    4  C12 UNL     1      24.982   0.935  51.537  1.00  0.00     0.093 C 
HETATM    5  C13 UNL     1      25.029   0.198  52.829  1.00  0.00     0.144 C 
ENDROOT
BRANCH   3   6
HETATM    6  C5  UNL     1      25.704   3.350  50.924  1.00  0.00    -0.010 A 
HETATM    7  C6  UNL     1      26.687   3.518  49.980  1.00  0.00     0.014 A 
HETATM    8  C7  UNL     1      26.777   4.565  49.086  1.00  0.00     0.007 A 
HETATM    9  C8  UNL     1      25.776   5.540  49.150  1.00  0.00    -0.062 A 
HETATM   10  C9  UNL     1      25.874   6.672  48.186  1.00  0.00     0.048 C 
HETATM   11  C10 UNL     1      24.769   5.411  50.083  1.00  0.00     0.007 A 
HETATM   12  C11 UNL     1      24.719   4.338  50.964  1.00  0.00     0.014 A 
ENDBRANCH   3   6
BRANCH   1  13
HETATM   13  C3  UNL     1      26.499   0.465  54.881  1.00  0.00     0.219 C 
BRANCH  13  14
HETATM   14  S1  UNL     1      28.287   0.180  54.758  1.00  0.00    -0.142 SA
BRANCH  14  15
HETATM   15  C2  UNL     1      28.643  -0.883  53.336  1.00  0.00     0.063 C 
HETATM   16  C1  UNL     1      29.940  -0.939  53.621  1.00  0.00     0.017 C 
ENDBRANCH  14  15
ENDBRANCH  13  14
ENDBRANCH   1  13
BRANCH   5  17
HETATM   17  C14 UNL     1      23.679   0.070  53.453  1.00  0.00    -0.034 A 
HETATM   18  C15 UNL     1      22.667   0.927  53.093  1.00  0.00     0.009 A 
HETATM   19  C16 UNL     1      21.409   0.795  53.687  1.00  0.00     0.001 A 
HETATM   20  C17 UNL     1      21.204  -0.204  54.634  1.00  0.00     0.000 A 
HETATM   21  C18 UNL     1      22.242  -1.044  54.969  1.00  0.00     0.001 A 
HETATM   22  C19 UNL     1      23.493  -0.929  54.393  1.00  0.00     0.009 A 
ENDBRANCH   5  17
TORSDOF 5
ENDMDL
MODEL 2
REMARK VINA RESULT:      -7.8      2.933      5.761
REMARK  5 active torsions:
REMARK  status: ('A' for Active; 'I' for Inactive)
REMARK    1  A    between atoms: C2_2  and  S1_3 
REMARK    2  A    between atoms: S1_3  and  C3_4 
REMARK    3  A    between atoms: C3_4  and  N1_5 
REMARK    4  A    between atoms: C4_7  and  C5_8 
REMARK    5  A    between atoms: C13_16  and  C14_17 
ROOT
HETATM    1  N1  UNL     1      24.064   3.261  51.059  1.00  0.00    -0.286 N 
HETATM    2  N2  UNL     1      25.229   2.531  51.082  1.00  0.00    -0.179 NA
HETATM    3  C4  UNL     1      25.499   2.102  52.267  1.00  0.00     0.067 C 
HETATM    4  C12 UNL     1      24.448   2.545  53.217  1.00  0.00     0.093 C 
HETATM    5  C13 UNL     1      23.412   3.147  52.335  1.00  0.00     0.144 C 
ENDROOT
BRANCH   3   6
HETATM    6  C5  UNL     1      26.652   1.299  52.655  1.00  0.00    -0.010 A 
HETATM    7  C6  UNL     1      27.821   1.831  53.141  1.00  0.00     0.014 A 
HETATM    8  C7  UNL     1      28.937   1.116  53.521  1.00  0.00     0.007 A 
HETATM    9  C8  UNL     1      28.869  -0.277  53.399  1.00  0.00    -0.062 A 
HETATM   10  C9  UNL     1      30.074  -1.050  53.809  1.00  0.00     0.048 C 
HETATM   11  C10 UNL     1      27.714  -0.854  52.916  1.00  0.00     0.007 A 
HETATM   12  C11 UNL     1      26.613  -0.092  52.545  1.00  0.00     0.014 A 
ENDBRANCH   3   6
BRANCH   1  13
HETATM   13  C3  UNL     1      23.518   4.046  49.963  1.00  0.00     0.219 C 
BRANCH  13  14
HETATM   14  S1  UNL     1      23.017   3.002  48.566  1.00  0.00    -0.142 SA
BRANCH  14  15
HETATM   15  C2  UNL     1      21.253   2.614  48.690  1.00  0.00     0.063 C 
HETATM   16  C1  UNL     1      21.465   1.309  48.559  1.00  0.00     0.017 C 
ENDBRANCH  14  15
ENDBRANCH  13  14
ENDBRANCH   1  13
BRANCH   5  17
HETATM   17  C14 UNL     1      22.172   2.318  52.277  1.00  0.00    -0.034 A 
HETATM   18  C15 UNL     1      22.259   0.953  52.150  1.00  0.00     0.009 A 
HETATM   19  C16 UNL     1      21.089   0.190  52.095  1.00  0.00     0.001 A 
HETATM   20  C17 UNL     1      19.855   0.829  52.170  1.00  0.00     0.000 A 
HETATM   21  C18 UNL     1      19.808   2.199  52.297  1.00  0.00     0.001 A 
HETATM   22  C19 UNL     1      20.953   2.970  52.352  1.00  0.00     0.009 A 
ENDBRANCH   5  17
TORSDOF 5
ENDMDL
MODEL 3
REMARK VINA RESULT:      -7.7      2.890      4.782
REMARK  5 active torsions:
REMARK  status: ('A' for Active; 'I' for Inactive)
REMARK    1  A    between atoms: C2_2  and  S1_3 
REMARK    2  A    between atoms: S1_3  and  C3_4 
REMARK    3  A    between atoms: C3_4  and  N1_5 
REMARK    4  A    between atoms: C4_7  and  C5_8 
REMARK    5  A    between atoms: C13_16  and  C14_17 
ROOT
HETATM    1  N1  UNL     1      23.093   2.265  50.206  1.00  0.00    -0.286 N 
HETATM    2  N2  UNL     1      23.908   2.941  49.329  1.00  0.00    -0.179 NA
HETATM    3  C4  UNL     1      24.685   3.768  49.942  1.00  0.00     0.067 C 
HETATM    4  C12 UNL     1      24.434   3.709  51.404  1.00  0.00     0.093 C 
HETATM    5  C13 UNL     1      23.506   2.555  51.552  1.00  0.00     0.144 C 
ENDROOT
BRANCH   3   6
HETATM    6  C5  UNL     1      25.674   4.645  49.327  1.00  0.00    -0.010 A 
HETATM    7  C6  UNL     1      25.398   5.920  48.898  1.00  0.00     0.014 A 
HETATM    8  C7  UNL     1      26.296   6.787  48.311  1.00  0.00     0.007 A 
HETATM    9  C8  UNL     1      27.605   6.322  48.140  1.00  0.00    -0.062 A 
HETATM   10  C9  UNL     1      28.576   7.257  47.506  1.00  0.00     0.048 C 
HETATM   11  C10 UNL     1      27.926   5.047  48.556  1.00  0.00     0.007 A 
HETATM   12  C11 UNL     1      26.987   4.209  49.143  1.00  0.00     0.014 A 
ENDBRANCH   3   6
BRANCH   1  13
HETATM   13  C3  UNL     1      21.977   1.386  49.897  1.00  0.00     0.219 C 
BRANCH  13  14
HETATM   14  S1  UNL     1      20.383   2.140  50.326  1.00  0.00    -0.142 SA
BRANCH  14  15
HETATM   15  C2  UNL     1      19.857   1.578  51.965  1.00  0.00     0.063 C 
HETATM   16  C1  UNL     1      20.021   0.298  51.650  1.00  0.00     0.017 C 
ENDBRANCH  14  15
ENDBRANCH  13  14
ENDBRANCH   1  13
BRANCH   5  17
HETATM   17  C14 UNL     1      24.159   1.391  52.219  1.00  0.00    -0.034 A 
HETATM   18  C15 UNL     1      25.464   1.073  51.933  1.00  0.00     0.009 A 
HETATM   19  C16 UNL     1      26.061  -0.022  52.565  1.00  0.00     0.001 A 
HETATM   20  C17 UNL     1      25.320  -0.771  53.473  1.00  0.00     0.000 A 
HETATM   21  C18 UNL     1      24.014  -0.422  53.735  1.00  0.00     0.001 A 
HETATM   22  C19 UNL     1      23.406   0.656  53.120  1.00  0.00     0.009 A 
ENDBRANCH   5  17
TORSDOF 5
ENDMDL
MODEL 4
REMARK VINA RESULT:      -7.6      3.034      6.163
REMARK  5 active torsions:
REMARK  status: ('A' for Active; 'I' for Inactive)
REMARK    1  A    between atoms: C2_2  and  S1_3 
REMARK    2  A    between atoms: S1_3  and  C3_4 
REMARK    3  A    between atoms: C3_4  and  N1_5 
REMARK    4  A    between atoms: C4_7  and  C5_8 
REMARK    5  A    between atoms: C13_16  and  C14_17 
ROOT
HETATM    1  N1  UNL     1      23.515   3.201  52.585  1.00  0.00    -0.286 N 
HETATM    2  N2  UNL     1      24.837   2.884  52.789  1.00  0.00    -0.179 NA
HETATM    3  C4  UNL     1      25.016   1.609  52.858  1.00  0.00     0.067 C 
HETATM    4  C12 UNL     1      23.720   0.906  52.692  1.00  0.00     0.093 C 
HETATM    5  C13 UNL     1      22.778   1.996  52.317  1.00  0.00     0.144 C 
ENDROOT
BRANCH   3   6
HETATM    6  C5  UNL     1      26.286   0.922  53.067  1.00  0.00    -0.010 A 
HETATM    7  C6  UNL     1      26.486  -0.408  52.792  1.00  0.00     0.014 A 
HETATM    8  C7  UNL     1      27.664  -1.101  52.972  1.00  0.00     0.007 A 
HETATM    9  C8  UNL     1      28.751  -0.381  53.481  1.00  0.00    -0.062 A 
HETATM   10  C9  UNL     1      30.024  -1.129  53.677  1.00  0.00     0.048 C 
HETATM   11  C10 UNL     1      28.595   0.957  53.772  1.00  0.00     0.007 A 
HETATM   12  C11 UNL     1      27.387   1.614  53.574  1.00  0.00     0.014 A 
ENDBRANCH   3   6
BRANCH   1  13
HETATM   13  C3  UNL     1      22.892   4.514  52.622  1.00  0.00     0.219 C 
BRANCH  13  14
HETATM   14  S1  UNL     1      23.689   5.675  51.479  1.00  0.00    -0.142 SA
BRANCH  14  15
HETATM   15  C2  UNL     1      22.434   6.685  50.653  1.00  0.00     0.063 C 
HETATM   16  C1  UNL     1      21.501   5.748  50.784  1.00  0.00     0.017 C 
ENDBRANCH  14  15
ENDBRANCH  13  14
ENDBRANCH   1  13
BRANCH   5  17
HETATM   17  C14 UNL     1      22.337   1.895  50.895  1.00  0.00    -0.034 A 
HETATM   18  C15 UNL     1      23.102   2.443  49.894  1.00  0.00     0.009 A 
HETATM   19  C16 UNL     1      22.675   2.341  48.566  1.00  0.00     0.001 A 
HETATM   20  C17 UNL     1      21.481   1.684  48.284  1.00  0.00     0.000 A 
HETATM   21  C18 UNL     1      20.742   1.147  49.314  1.00  0.00     0.001 A 
HETATM   22  C19 UNL     1      21.146   1.239  50.632  1.00  0.00     0.009 A 
ENDBRANCH   5  17
TORSDOF 5
ENDMDL
MODEL 5
REMARK VINA RESULT:      -7.5      2.789      5.664
REMARK  5 active torsions:
REMARK  status: ('A' for Active; 'I' for Inactive)
REMARK    1  A    between atoms: C2_2  and  S1_3 
REMARK    2  A    between atoms: S1_3  and  C3_4 
REMARK    3  A    between atoms: C3_4  and  N1_5 
REMARK    4  A    between atoms: C4_7  and  C5_8 
REMARK    5  A    between atoms: C13_16  and  C14_17 
ROOT
HETATM    1  N1  UNL     1      24.268   3.625  51.146  1.00  0.00    -0.286 N 
HETATM    2  N2  UNL     1      25.447   2.917  51.188  1.00  0.00    -0.179 NA
HETATM    3  C4  UNL     1      25.564   2.252  52.286  1.00  0.00     0.067 C 
HETATM    4  C12 UNL     1      24.374   2.476  53.143  1.00  0.00     0.093 C 
HETATM    5  C13 UNL     1      23.448   3.240  52.263  1.00  0.00     0.144 C 
ENDROOT
BRANCH   3   6
HETATM    6  C5  UNL     1      26.683   1.396  52.664  1.00  0.00    -0.010 A 
HETATM    7  C6  UNL     1      27.872   1.873  53.157  1.00  0.00     0.014 A 
HETATM    8  C7  UNL     1      28.957   1.107  53.529  1.00  0.00     0.007 A 
HETATM    9  C8  UNL     1      28.830  -0.280  53.389  1.00  0.00    -0.062 A 
HETATM   10  C9  UNL     1      30.002  -1.108  53.789  1.00  0.00     0.048 C 
HETATM   11  C10 UNL     1      27.653  -0.802  52.897  1.00  0.00     0.007 A 
HETATM   12  C11 UNL     1      26.585   0.010  52.536  1.00  0.00     0.014 A 
ENDBRANCH   3   6
BRANCH   1  13
HETATM   13  C3  UNL     1      23.851   4.617  50.168  1.00  0.00     0.219 C 
BRANCH  13  14
HETATM   14  S1  UNL     1      24.911   6.089  50.203  1.00  0.00    -0.142 SA
BRANCH  14  15
HETATM   15  C2  UNL     1      25.671   6.339  48.578  1.00  0.00     0.063 C 
HETATM   16  C1  UNL     1      26.657   5.487  48.837  1.00  0.00     0.017 C 
ENDBRANCH  14  15
ENDBRANCH  13  14
ENDBRANCH   1  13
BRANCH   5  17
HETATM   17  C14 UNL     1      22.264   2.430  51.855  1.00  0.00    -0.034 A 
HETATM   18  C15 UNL     1      22.422   1.330  51.046  1.00  0.00     0.009 A 
HETATM   19  C16 UNL     1      21.302   0.582  50.672  1.00  0.00     0.001 A 
HETATM   20  C17 UNL     1      20.044   0.966  51.126  1.00  0.00     0.000 A 
HETATM   21  C18 UNL     1      19.924   2.073  51.936  1.00  0.00     0.001 A 
HETATM   22  C19 UNL     1      21.019   2.826  52.316  1.00  0.00     0.009 A 
ENDBRANCH   5  17
TORSDOF 5
ENDMDL
MODEL 6
REMARK VINA RESULT:      -7.4      1.541      6.131
REMARK  5 active torsions:
REMARK  status: ('A' for Active; 'I' for Inactive)
REMARK    1  A    between atoms: C2_2  and  S1_3 
REMARK    2  A    between atoms: S1_3  and  C3_4 
REMARK    3  A    between atoms: C3_4  and  N1_5 
REMARK    4  A    between atoms: C4_7  and  C5_8 
REMARK    5  A    between atoms: C13_16  and  C14_17 
ROOT
HETATM    1  N1  UNL     1      25.671   0.934  52.320  1.00  0.00    -0.286 N 
HETATM    2  N2  UNL     1      24.561   0.125  52.378  1.00  0.00    -0.179 NA
HETATM    3  C4  UNL     1      23.519   0.775  52.773  1.00  0.00     0.067 C 
HETATM    4  C12 UNL     1      23.875   2.192  53.033  1.00  0.00     0.093 C 
HETATM    5  C13 UNL     1      25.272   2.299  52.531  1.00  0.00     0.144 C 
ENDROOT
BRANCH   3   6
HETATM    6  C5  UNL     1      22.176   0.234  52.949  1.00  0.00    -0.010 A 
HETATM    7  C6  UNL     1      21.090   0.639  52.213  1.00  0.00     0.014 A 
HETATM    8  C7  UNL     1      19.804   0.159  52.342  1.00  0.00     0.007 A 
HETATM    9  C8  UNL     1      19.590  -0.828  53.310  1.00  0.00    -0.062 A 
HETATM   10  C9  UNL     1      18.201  -1.346  53.451  1.00  0.00     0.048 C 
HETATM   11  C10 UNL     1      20.653  -1.265  54.072  1.00  0.00     0.007 A 
HETATM   12  C11 UNL     1      21.933  -0.751  53.907  1.00  0.00     0.014 A 
ENDBRANCH   3   6
BRANCH   1  13
HETATM   13  C3  UNL     1      27.053   0.545  52.091  1.00  0.00     0.219 C 
BRANCH  13  14
HETATM   14  S1  UNL     1      27.569  -0.801  53.192  1.00  0.00    -0.142 SA
BRANCH  14  15
HETATM   15  C2  UNL     1      28.759  -0.180  54.408  1.00  0.00     0.063 C 
HETATM   16  C1  UNL     1      29.800  -0.483  53.641  1.00  0.00     0.017 C 
ENDBRANCH  14  15
ENDBRANCH  13  14
ENDBRANCH   1  13
BRANCH   5  17
HETATM   17  C14 UNL     1      25.363   3.124  51.291  1.00  0.00    -0.034 A 
HETATM   18  C15 UNL     1      26.548   3.208  50.602  1.00  0.00     0.009 A 
HETATM   19  C16 UNL     1      26.617   3.987  49.442  1.00  0.00     0.001 A 
HETATM   20  C17 UNL     1      25.481   4.663  49.008  1.00  0.00     0.000 A 
HETATM   21  C18 UNL     1      24.311   4.554  49.725  1.00  0.00     0.001 A 
HETATM   22  C19 UNL     1      24.223   3.790  50.872  1.00  0.00     0.009 A 
ENDBRANCH   5  17
TORSDOF 5
ENDMDL
MODEL 7
REMARK VINA RESULT:      -7.3      3.510      5.313
REMARK  5 active torsions:
REMARK  status: ('A' for Active; 'I' for Inactive)
REMARK    1  A    between atoms: C2_2  and  S1_3 
REMARK    2  A    between atoms: S1_3  and  C3_4 
REMARK    3  A    between atoms: C3_4  and  N1_5 
REMARK    4  A    between atoms: C4_7  and  C5_8 
REMARK    5  A    between atoms: C13_16  and  C14_17 
ROOT
HETATM    1  N1  UNL     1      21.367   1.758  50.577  1.00  0.00    -0.286 N 
HETATM    2  N2  UNL     1      22.418   2.196  49.806  1.00  0.00    -0.179 NA
HETATM    3  C4  UNL     1      23.172   3.019  50.451  1.00  0.00     0.067 C 
HETATM    4  C12 UNL     1      22.646   3.216  51.825  1.00  0.00     0.093 C 
HETATM    5  C13 UNL     1      21.556   2.208  51.929  1.00  0.00     0.144 C 
ENDROOT
BRANCH   3   6
HETATM    6  C5  UNL     1      24.370   3.676  49.943  1.00  0.00    -0.010 A 
HETATM    7  C6  UNL     1      24.366   4.917  49.356  1.00  0.00     0.014 A 
HETATM    8  C7  UNL     1      25.469   5.580  48.861  1.00  0.00     0.007 A 
HETATM    9  C8  UNL     1      26.702   4.926  48.968  1.00  0.00    -0.062 A 
HETATM   10  C9  UNL     1      27.894   5.640  48.432  1.00  0.00     0.048 C 
HETATM   11  C10 UNL     1      26.752   3.677  49.551  1.00  0.00     0.007 A 
HETATM   12  C11 UNL     1      25.613   3.048  50.036  1.00  0.00     0.014 A 
ENDBRANCH   3   6
BRANCH   1  13
HETATM   13  C3  UNL     1      20.219   0.969  50.164  1.00  0.00     0.219 C 
BRANCH  13  14
HETATM   14  S1  UNL     1      18.768   2.007  49.833  1.00  0.00    -0.142 SA
BRANCH  14  15
HETATM   15  C2  UNL     1      17.757   2.146  51.329  1.00  0.00     0.063 C 
HETATM   16  C1  UNL     1      18.032   3.439  51.472  1.00  0.00     0.017 C 
ENDBRANCH  14  15
ENDBRANCH  13  14
ENDBRANCH   1  13
BRANCH   5  17
HETATM   17  C14 UNL     1      21.905   1.098  52.863  1.00  0.00    -0.034 A 
HETATM   18  C15 UNL     1      20.969   0.616  53.746  1.00  0.00     0.009 A 
HETATM   19  C16 UNL     1      21.312  -0.423  54.616  1.00  0.00     0.001 A 
HETATM   20  C17 UNL     1      22.599  -0.952  54.570  1.00  0.00     0.000 A 
HETATM   21  C18 UNL     1      23.510  -0.444  53.672  1.00  0.00     0.001 A 
HETATM   22  C19 UNL     1      23.190   0.583  52.805  1.00  0.00     0.009 A 
ENDBRANCH   5  17
TORSDOF 5
ENDMDL
MODEL 8
REMARK VINA RESULT:      -7.2      1.551      2.179
REMARK  5 active torsions:
REMARK  status: ('A' for Active; 'I' for Inactive)
REMARK    1  A    between atoms: C2_2  and  S1_3 
REMARK    2  A    between atoms: S1_3  and  C3_4 
REMARK    3  A    between atoms: C3_4  and  N1_5 
REMARK    4  A    between atoms: C4_7  and  C5_8 
REMARK    5  A    between atoms: C13_16  and  C14_17 
ROOT
HETATM    1  N1  UNL     1      25.221   1.708  53.256  1.00  0.00    -0.286 N 
HETATM    2  N2  UNL     1      25.023   3.039  52.975  1.00  0.00    -0.179 NA
HETATM    3  C4  UNL     1      24.230   3.201  51.972  1.00  0.00     0.067 C 
HETATM    4  C12 UNL     1      23.793   1.881  51.454  1.00  0.00     0.093 C 
HETATM    5  C13 UNL     1      24.321   0.920  52.460  1.00  0.00     0.144 C 
ENDROOT
BRANCH   3   6
HETATM    6  C5  UNL     1      23.802   4.474  51.403  1.00  0.00    -0.010 A 
HETATM    7  C6  UNL     1      24.591   5.245  50.585  1.00  0.00     0.014 A 
HETATM    8  C7  UNL     1      24.233   6.453  50.023  1.00  0.00     0.007 A 
HETATM    9  C8  UNL     1      22.951   6.932  50.316  1.00  0.00    -0.062 A 
HETATM   10  C9  UNL     1      22.564   8.237  49.710  1.00  0.00     0.048 C 
HETATM   11  C10 UNL     1      22.125   6.190  51.133  1.00  0.00     0.007 A 
HETATM   12  C11 UNL     1      22.530   4.977  51.677  1.00  0.00     0.014 A 
ENDBRANCH   3   6
BRANCH   1  13
HETATM   13  C3  UNL     1      26.168   1.119  54.189  1.00  0.00     0.219 C 
BRANCH  13  14
HETATM   14  S1  UNL     1      27.371   0.051  53.349  1.00  0.00    -0.142 SA
BRANCH  14  15
HETATM   15  C2  UNL     1      28.872  -0.093  54.352  1.00  0.00     0.063 C 
HETATM   16  C1  UNL     1      29.429  -0.956  53.510  1.00  0.00     0.017 C 
ENDBRANCH  14  15
ENDBRANCH  13  14
ENDBRANCH   1  13
BRANCH   5  17
HETATM   17  C14 UNL     1      23.232   0.297  53.267  1.00  0.00    -0.034 A 
HETATM   18  C15 UNL     1      23.491  -0.808  54.043  1.00  0.00     0.009 A 
HETATM   19  C16 UNL     1      22.459  -1.380  54.792  1.00  0.00     0.001 A 
HETATM   20  C17 UNL     1      21.186  -0.820  54.739  1.00  0.00     0.000 A 
HETATM   21  C18 UNL     1      20.965   0.287  53.951  1.00  0.00     0.001 A 
HETATM   22  C19 UNL     1      21.971   0.867  53.202  1.00  0.00     0.009 A 
ENDBRANCH   5  17
TORSDOF 5
ENDMDL
MODEL 9
REMARK VINA RESULT:      -7.2      3.199      6.938
REMARK  5 active torsions:
REMARK  status: ('A' for Active; 'I' for Inactive)
REMARK    1  A    between atoms: C2_2  and  S1_3 
REMARK    2  A    between atoms: S1_3  and  C3_4 
REMARK    3  A    between atoms: C3_4  and  N1_5 
REMARK    4  A    between atoms: C4_7  and  C5_8 
REMARK    5  A    between atoms: C13_16  and  C14_17 
ROOT
HETATM    1  N1  UNL     1      22.834   2.815  52.144  1.00  0.00    -0.286 N 
HETATM    2  N2  UNL     1      21.583   2.368  52.499  1.00  0.00    -0.179 NA
HETATM    3  C4  UNL     1      21.259   1.299  51.856  1.00  0.00     0.067 C 
HETATM    4  C12 UNL     1      22.359   0.906  50.940  1.00  0.00     0.093 C 
HETATM    5  C13 UNL     1      23.465   1.831  51.307  1.00  0.00     0.144 C 
ENDROOT
BRANCH   3   6
HETATM    6  C5  UNL     1      20.010   0.557  51.982  1.00  0.00    -0.010 A 
HETATM    7  C6  UNL     1      19.704  -0.241  53.057  1.00  0.00     0.014 A 
HETATM    8  C7  UNL     1      18.539  -0.961  53.222  1.00  0.00     0.007 A 
HETATM    9  C8  UNL     1      17.586  -0.867  52.202  1.00  0.00    -0.062 A 
HETATM   10  C9  UNL     1      16.329  -1.644  52.380  1.00  0.00     0.048 C 
HETATM   11  C10 UNL     1      17.852  -0.076  51.104  1.00  0.00     0.007 A 
HETATM   12  C11 UNL     1      19.041   0.631  50.981  1.00  0.00     0.014 A 
ENDBRANCH   3   6
BRANCH   1  13
HETATM   13  C3  UNL     1      23.478   4.065  52.511  1.00  0.00     0.219 C 
BRANCH  13  14
HETATM   14  S1  UNL     1      23.446   5.268  51.154  1.00  0.00    -0.142 SA
BRANCH  14  15
HETATM   15  C2  UNL     1      25.030   5.247  50.276  1.00  0.00     0.063 C 
HETATM   16  C1  UNL     1      24.514   4.618  49.226  1.00  0.00     0.017 C 
ENDBRANCH  14  15
ENDBRANCH  13  14
ENDBRANCH   1  13
BRANCH   5  17
HETATM   17  C14 UNL     1      24.585   1.123  51.994  1.00  0.00    -0.034 A 
HETATM   18  C15 UNL     1      24.319   0.193  52.970  1.00  0.00     0.009 A 
HETATM   19  C16 UNL     1      25.379  -0.460  53.606  1.00  0.00     0.001 A 
HETATM   20  C17 UNL     1      26.686  -0.156  53.238  1.00  0.00     0.000 A 
HETATM   21  C18 UNL     1      26.913   0.781  52.255  1.00  0.00     0.001 A 
HETATM   22  C19 UNL     1      25.879   1.438  51.616  1.00  0.00     0.009 A 
ENDBRANCH   5  17
TORSDOF 5
ENDMDL
