MODEL 1
REMARK VINA RESULT:      -8.4      0.000      0.000
REMARK  0 active torsions:
REMARK  status: ('A' for Active; 'I' for Inactive)
ROOT
HETATM    1 BR1  UNL     1      22.157   1.938  48.698  1.00  0.00    -0.049 Br
HETATM    2  C1  UNL     1      22.956   2.693  50.225  1.00  0.00     0.039 A 
HETATM    3  C2  UNL     1      24.300   2.530  50.447  1.00  0.00     0.051 A 
HETATM    4  C3  UNL     1      24.861   3.093  51.572  1.00  0.00     0.035 A 
HETATM    5  C4  UNL     1      24.120   3.816  52.482  1.00  0.00     0.032 A 
HETATM    6  C5  UNL     1      22.773   3.991  52.281  1.00  0.00     0.033 A 
HETATM    7  C6  UNL     1      22.210   3.417  51.139  1.00  0.00     0.046 A 
HETATM    8  N1  UNL     1      20.806   3.559  50.919  1.00  0.00    -0.384 N 
HETATM    9  C7  UNL     1      19.534   4.078  50.470  1.00  0.00     0.164 C 
HETATM   10  P1  UNL     1      18.183   2.930  51.072  1.00  0.00    -0.028 P 
HETATM   11  C8  UNL     1      18.829   1.511  51.870  1.00  0.00    -0.077 C 
HETATM   12  C9  UNL     1      19.279   0.569  52.406  1.00  0.00    -0.095 C 
HETATM   13  C10 UNL     1      19.831  -0.539  53.025  1.00  0.00     0.116 C 
HETATM   14  C11 UNL     1      21.017  -0.671  53.568  1.00  0.00     0.014 C 
HETATM   15  C12 UNL     1      22.396  -0.558  54.106  1.00  0.00    -0.000 C 
HETATM   16  C13 UNL     1      23.260  -1.315  54.731  1.00  0.00     0.140 C 
HETATM   17  O1  UNL     1      24.339  -0.462  54.885  1.00  0.00    -0.304 OA
HETATM   18  C14 UNL     1      25.166  -0.129  53.823  1.00  0.00     0.173 A 
HETATM   19  C15 UNL     1      25.195   1.210  53.533  1.00  0.00     0.108 A 
HETATM   20  C16 UNL     1      25.994   1.646  52.482  1.00  0.00     0.133 A 
HETATM   21  N2  UNL     1      26.699   0.708  51.807  1.00  0.00    -0.224 NA
HETATM   22  C17 UNL     1      26.658  -0.604  52.107  1.00  0.00     0.238 A 
HETATM   23  N3  UNL     1      25.884  -1.010  53.122  1.00  0.00    -0.217 NA
HETATM   24  N4  UNL     1      26.258   2.931  51.899  1.00  0.00    -0.341 N 
HETATM   25  H4  UNL     1      20.726   2.656  51.489  1.00  0.00     0.160 HD
HETATM   26  H7  UNL     1      17.192   3.652  51.850  1.00  0.00     0.072 HD
HETATM   27  H14 UNL     1      27.216   3.322  51.877  1.00  0.00     0.167 HD
ENDROOT
TORSDOF 0
ENDMDL
MODEL 2
REMARK VINA RESULT:      -7.9      1.164      1.243
REMARK  0 active torsions:
REMARK  status: ('A' for Active; 'I' for Inactive)
ROOT
HETATM    1 BR1  UNL     1      22.531   2.322  47.613  1.00  0.00    -0.049 Br
HETATM    2  C1  UNL     1      23.085   3.187  49.189  1.00  0.00     0.039 A 
HETATM    3  C2  UNL     1      24.387   3.078  49.608  1.00  0.00     0.051 A 
HETATM    4  C3  UNL     1      24.768   3.721  50.765  1.00  0.00     0.035 A 
HETATM    5  C4  UNL     1      23.889   4.471  51.516  1.00  0.00     0.032 A 
HETATM    6  C5  UNL     1      22.580   4.593  51.116  1.00  0.00     0.033 A 
HETATM    7  C6  UNL     1      22.199   3.937  49.943  1.00  0.00     0.046 A 
HETATM    8  N1  UNL     1      20.838   4.022  49.519  1.00  0.00    -0.384 N 
HETATM    9  C7  UNL     1      19.632   4.474  48.864  1.00  0.00     0.164 C 
HETATM   10  P1  UNL     1      18.236   3.320  49.338  1.00  0.00    -0.028 P 
HETATM   11  C8  UNL     1      18.794   1.969  50.303  1.00  0.00    -0.077 C 
HETATM   12  C9  UNL     1      19.185   1.074  50.954  1.00  0.00    -0.095 C 
HETATM   13  C10 UNL     1      19.668   0.020  51.709  1.00  0.00     0.116 C 
HETATM   14  C11 UNL     1      20.767  -0.043  52.422  1.00  0.00     0.014 C 
HETATM   15  C12 UNL     1      22.053   0.144  53.141  1.00  0.00    -0.000 C 
HETATM   16  C13 UNL     1      22.836  -0.550  53.926  1.00  0.00     0.140 C 
HETATM   17  O1  UNL     1      23.861   0.345  54.180  1.00  0.00    -0.304 OA
HETATM   18  C14 UNL     1      24.823   0.643  53.227  1.00  0.00     0.173 A 
HETATM   19  C15 UNL     1      24.863   1.964  52.864  1.00  0.00     0.108 A 
HETATM   20  C16 UNL     1      25.794   2.365  51.911  1.00  0.00     0.133 A 
HETATM   21  N2  UNL     1      26.609   1.413  51.401  1.00  0.00    -0.224 NA
HETATM   22  C17 UNL     1      26.556   0.120  51.771  1.00  0.00     0.238 A 
HETATM   23  N3  UNL     1      25.654  -0.252  52.689  1.00  0.00    -0.217 NA
HETATM   24  N4  UNL     1      26.108   3.622  51.296  1.00  0.00    -0.341 N 
HETATM   25  H4  UNL     1      20.699   3.150  50.125  1.00  0.00     0.160 HD
HETATM   26  H7  UNL     1      17.128   4.053  49.922  1.00  0.00     0.072 HD
HETATM   27  H14 UNL     1      27.050   4.042  51.385  1.00  0.00     0.167 HD
ENDROOT
TORSDOF 0
ENDMDL
MODEL 3
REMARK VINA RESULT:      -7.7      3.211      6.321
REMARK  0 active torsions:
REMARK  status: ('A' for Active; 'I' for Inactive)
ROOT
HETATM    1 BR1  UNL     1      22.147   4.210  52.201  1.00  0.00    -0.049 Br
HETATM    2  C1  UNL     1      21.541   3.055  50.845  1.00  0.00     0.039 A 
HETATM    3  C2  UNL     1      20.337   3.292  50.232  1.00  0.00     0.051 A 
HETATM    4  C3  UNL     1      19.916   2.431  49.242  1.00  0.00     0.035 A 
HETATM    5  C4  UNL     1      20.661   1.342  48.845  1.00  0.00     0.032 A 
HETATM    6  C5  UNL     1      21.870   1.086  49.446  1.00  0.00     0.033 A 
HETATM    7  C6  UNL     1      22.291   1.960  50.450  1.00  0.00     0.046 A 
HETATM    8  N1  UNL     1      23.529   1.702  51.113  1.00  0.00    -0.384 N 
HETATM    9  C7  UNL     1      24.936   1.712  51.442  1.00  0.00     0.164 C 
HETATM   10  P1  UNL     1      25.191   0.667  52.974  1.00  0.00    -0.028 P 
HETATM   11  C8  UNL     1      23.676   0.100  53.647  1.00  0.00    -0.077 C 
HETATM   12  C9  UNL     1      22.652  -0.276  54.080  1.00  0.00    -0.095 C 
HETATM   13  C10 UNL     1      21.433  -0.698  54.581  1.00  0.00     0.116 C 
HETATM   14  C11 UNL     1      20.285  -0.817  53.958  1.00  0.00     0.014 C 
HETATM   15  C12 UNL     1      19.126  -0.860  53.031  1.00  0.00    -0.000 C 
HETATM   16  C13 UNL     1      17.857  -1.177  53.077  1.00  0.00     0.140 C 
HETATM   17  O1  UNL     1      17.451  -0.943  51.776  1.00  0.00    -0.304 OA
HETATM   18  C14 UNL     1      17.271   0.341  51.285  1.00  0.00     0.173 A 
HETATM   19  C15 UNL     1      18.077   0.654  50.221  1.00  0.00     0.108 A 
HETATM   20  C16 UNL     1      17.974   1.921  49.658  1.00  0.00     0.133 A 
HETATM   21  N2  UNL     1      17.073   2.772  50.204  1.00  0.00    -0.224 NA
HETATM   22  C17 UNL     1      16.289   2.446  51.248  1.00  0.00     0.238 A 
HETATM   23  N3  UNL     1      16.399   1.222  51.781  1.00  0.00    -0.217 NA
HETATM   24  N4  UNL     1      18.643   2.586  48.577  1.00  0.00    -0.341 N 
HETATM   25  H4  UNL     1      22.933   1.118  51.785  1.00  0.00     0.160 HD
HETATM   26  H7  UNL     1      26.167  -0.381  52.737  1.00  0.00     0.072 HD
HETATM   27  H14 UNL     1      18.118   2.936  47.757  1.00  0.00     0.167 HD
ENDROOT
TORSDOF 0
ENDMDL
MODEL 4
REMARK VINA RESULT:      -7.5      2.967      6.044
REMARK  0 active torsions:
REMARK  status: ('A' for Active; 'I' for Inactive)
ROOT
HETATM    1 BR1  UNL     1      23.453   4.744  52.698  1.00  0.00    -0.049 Br
HETATM    2  C1  UNL     1      22.759   4.045  51.095  1.00  0.00     0.039 A 
HETATM    3  C2  UNL     1      21.593   4.548  50.577  1.00  0.00     0.051 A 
HETATM    4  C3  UNL     1      21.106   4.019  49.402  1.00  0.00     0.035 A 
HETATM    5  C4  UNL     1      21.749   3.003  48.728  1.00  0.00     0.032 A 
HETATM    6  C5  UNL     1      22.918   2.483  49.230  1.00  0.00     0.033 A 
HETATM    7  C6  UNL     1      23.406   3.023  50.422  1.00  0.00     0.046 A 
HETATM    8  N1  UNL     1      24.604   2.482  50.982  1.00  0.00    -0.384 N 
HETATM    9  C7  UNL     1      26.000   2.270  51.287  1.00  0.00     0.164 C 
HETATM   10  P1  UNL     1      26.129   0.844  52.494  1.00  0.00    -0.028 P 
HETATM   11  C8  UNL     1      24.557   0.272  53.012  1.00  0.00    -0.077 C 
HETATM   12  C9  UNL     1      23.495  -0.102  53.343  1.00  0.00    -0.095 C 
HETATM   13  C10 UNL     1      22.233  -0.520  53.730  1.00  0.00     0.116 C 
HETATM   14  C11 UNL     1      21.089  -0.361  53.109  1.00  0.00     0.014 C 
HETATM   15  C12 UNL     1      19.945  -0.050  52.215  1.00  0.00    -0.000 C 
HETATM   16  C13 UNL     1      18.652  -0.244  52.191  1.00  0.00     0.140 C 
HETATM   17  O1  UNL     1      18.289   0.358  50.999  1.00  0.00    -0.304 OA
HETATM   18  C14 UNL     1      18.241   1.737  50.860  1.00  0.00     0.173 A 
HETATM   19  C15 UNL     1      19.090   2.235  49.906  1.00  0.00     0.108 A 
HETATM   20  C16 UNL     1      19.118   3.609  49.692  1.00  0.00     0.133 A 
HETATM   21  N2  UNL     1      18.296   4.372  50.449  1.00  0.00    -0.224 NA
HETATM   22  C17 UNL     1      17.468   3.864  51.381  1.00  0.00     0.238 A 
HETATM   23  N3  UNL     1      17.451   2.539  51.577  1.00  0.00    -0.217 NA
HETATM   24  N4  UNL     1      19.865   4.463  48.814  1.00  0.00    -0.341 N 
HETATM   25  H4  UNL     1      23.944   1.805  51.486  1.00  0.00     0.160 HD
HETATM   26  H7  UNL     1      27.004  -0.196  51.982  1.00  0.00     0.072 HD
HETATM   27  H14 UNL     1      19.388   5.063  48.117  1.00  0.00     0.167 HD
ENDROOT
TORSDOF 0
ENDMDL
MODEL 5
REMARK VINA RESULT:      -7.1      4.489      7.764
REMARK  0 active torsions:
REMARK  status: ('A' for Active; 'I' for Inactive)
ROOT
HETATM    1 BR1  UNL     1      22.080   1.897  49.206  1.00  0.00    -0.049 Br
HETATM    2  C1  UNL     1      21.898   3.562  50.061  1.00  0.00     0.039 A 
HETATM    3  C2  UNL     1      21.094   4.529  49.513  1.00  0.00     0.051 A 
HETATM    4  C3  UNL     1      20.977   5.741  50.158  1.00  0.00     0.035 A 
HETATM    5  C4  UNL     1      21.638   6.015  51.336  1.00  0.00     0.032 A 
HETATM    6  C5  UNL     1      22.449   5.062  51.903  1.00  0.00     0.033 A 
HETATM    7  C6  UNL     1      22.564   3.836  51.243  1.00  0.00     0.046 A 
HETATM    8  N1  UNL     1      23.423   2.837  51.794  1.00  0.00    -0.384 N 
HETATM    9  C7  UNL     1      23.896   1.708  52.562  1.00  0.00     0.164 C 
HETATM   10  P1  UNL     1      25.719   1.475  52.204  1.00  0.00    -0.028 P 
HETATM   11  C8  UNL     1      26.295   2.571  50.965  1.00  0.00    -0.077 C 
HETATM   12  C9  UNL     1      26.665   3.317  50.138  1.00  0.00    -0.095 C 
HETATM   13  C10 UNL     1      27.077   4.197  49.152  1.00  0.00     0.116 C 
HETATM   14  C11 UNL     1      26.534   5.333  48.786  1.00  0.00     0.014 C 
HETATM   15  C12 UNL     1      25.732   6.564  48.567  1.00  0.00    -0.000 C 
HETATM   16  C13 UNL     1      25.756   7.611  47.784  1.00  0.00     0.140 C 
HETATM   17  O1  UNL     1      24.644   8.317  48.208  1.00  0.00    -0.304 OA
HETATM   18  C14 UNL     1      23.356   7.915  47.888  1.00  0.00     0.173 A 
HETATM   19  C15 UNL     1      22.572   7.627  48.975  1.00  0.00     0.108 A 
HETATM   20  C16 UNL     1      21.262   7.212  48.758  1.00  0.00     0.133 A 
HETATM   21  N2  UNL     1      20.844   7.119  47.475  1.00  0.00    -0.224 NA
HETATM   22  C17 UNL     1      21.629   7.408  46.420  1.00  0.00     0.238 A 
HETATM   23  N3  UNL     1      22.889   7.806  46.643  1.00  0.00    -0.217 NA
HETATM   24  N4  UNL     1      20.186   6.824  49.625  1.00  0.00    -0.341 N 
HETATM   25  H4  UNL     1      24.181   3.301  51.197  1.00  0.00     0.160 HD
HETATM   26  H7  UNL     1      26.499   1.497  53.429  1.00  0.00     0.072 HD
HETATM   27  H14 UNL     1      19.289   7.341  49.628  1.00  0.00     0.167 HD
ENDROOT
TORSDOF 0
ENDMDL
MODEL 6
REMARK VINA RESULT:      -6.8      4.241      5.694
REMARK  0 active torsions:
REMARK  status: ('A' for Active; 'I' for Inactive)
ROOT
HETATM    1 BR1  UNL     1      25.767   6.803  48.249  1.00  0.00    -0.049 Br
HETATM    2  C1  UNL     1      24.340   6.650  49.466  1.00  0.00     0.039 A 
HETATM    3  C2  UNL     1      24.536   6.034  50.676  1.00  0.00     0.051 A 
HETATM    4  C3  UNL     1      23.476   5.934  51.550  1.00  0.00     0.035 A 
HETATM    5  C4  UNL     1      22.225   6.433  51.252  1.00  0.00     0.032 A 
HETATM    6  C5  UNL     1      22.007   7.053  50.045  1.00  0.00     0.033 A 
HETATM    7  C6  UNL     1      23.085   7.150  49.163  1.00  0.00     0.046 A 
HETATM    8  N1  UNL     1      22.880   7.763  47.890  1.00  0.00    -0.384 N 
HETATM    9  C7  UNL     1      22.799   8.757  46.845  1.00  0.00     0.164 C 
HETATM   10  P1  UNL     1      22.261   7.909  45.265  1.00  0.00    -0.028 P 
HETATM   11  C8  UNL     1      22.146   6.171  45.454  1.00  0.00    -0.077 C 
HETATM   12  C9  UNL     1      22.068   5.009  45.601  1.00  0.00    -0.095 C 
HETATM   13  C10 UNL     1      21.995   3.641  45.792  1.00  0.00     0.116 C 
HETATM   14  C11 UNL     1      21.846   2.974  46.912  1.00  0.00     0.014 C 
HETATM   15  C12 UNL     1      21.674   2.470  48.298  1.00  0.00    -0.000 C 
HETATM   16  C13 UNL     1      21.565   1.317  48.905  1.00  0.00     0.140 C 
HETATM   17  O1  UNL     1      21.433   1.695  50.229  1.00  0.00    -0.304 OA
HETATM   18  C14 UNL     1      22.512   2.156  50.969  1.00  0.00     0.173 A 
HETATM   19  C15 UNL     1      22.363   3.434  51.442  1.00  0.00     0.108 A 
HETATM   20  C16 UNL     1      23.392   3.990  52.194  1.00  0.00     0.133 A 
HETATM   21  N2  UNL     1      24.486   3.223  52.413  1.00  0.00    -0.224 NA
HETATM   22  C17 UNL     1      24.613   1.968  51.940  1.00  0.00     0.238 A 
HETATM   23  N3  UNL     1      23.614   1.446  51.217  1.00  0.00    -0.217 NA
HETATM   24  N4  UNL     1      23.588   5.264  52.823  1.00  0.00    -0.341 N 
HETATM   25  H4  UNL     1      22.623   6.775  47.566  1.00  0.00     0.160 HD
HETATM   26  H7  UNL     1      21.068   8.529  44.718  1.00  0.00     0.072 HD
HETATM   27  H14 UNL     1      23.732   5.340  53.846  1.00  0.00     0.167 HD
ENDROOT
TORSDOF 0
ENDMDL
MODEL 7
REMARK VINA RESULT:      -6.8      4.989      7.552
REMARK  0 active torsions:
REMARK  status: ('A' for Active; 'I' for Inactive)
ROOT
HETATM    1 BR1  UNL     1      27.165   4.798  48.944  1.00  0.00    -0.049 Br
HETATM    2  C1  UNL     1      25.618   5.030  49.989  1.00  0.00     0.039 A 
HETATM    3  C2  UNL     1      24.885   3.937  50.378  1.00  0.00     0.051 A 
HETATM    4  C3  UNL     1      23.756   4.133  51.143  1.00  0.00     0.035 A 
HETATM    5  C4  UNL     1      23.337   5.387  51.532  1.00  0.00     0.032 A 
HETATM    6  C5  UNL     1      24.055   6.496  51.152  1.00  0.00     0.033 A 
HETATM    7  C6  UNL     1      25.198   6.291  50.375  1.00  0.00     0.046 A 
HETATM    8  N1  UNL     1      25.947   7.426  49.941  1.00  0.00    -0.384 N 
HETATM    9  C7  UNL     1      26.925   8.489  49.901  1.00  0.00     0.164 C 
HETATM   10  P1  UNL     1      26.669   9.465  48.324  1.00  0.00    -0.028 P 
HETATM   11  C8  UNL     1      25.442   8.753  47.297  1.00  0.00    -0.077 C 
HETATM   12  C9  UNL     1      24.613   8.265  46.625  1.00  0.00    -0.095 C 
HETATM   13  C10 UNL     1      23.641   7.667  45.842  1.00  0.00     0.116 C 
HETATM   14  C11 UNL     1      22.681   6.851  46.206  1.00  0.00     0.014 C 
HETATM   15  C12 UNL     1      21.698   5.959  46.871  1.00  0.00    -0.000 C 
HETATM   16  C13 UNL     1      20.669   5.226  46.535  1.00  0.00     0.140 C 
HETATM   17  O1  UNL     1      20.283   4.688  47.750  1.00  0.00    -0.304 OA
HETATM   18  C14 UNL     1      21.002   3.672  48.361  1.00  0.00     0.173 A 
HETATM   19  C15 UNL     1      21.501   4.001  49.594  1.00  0.00     0.108 A 
HETATM   20  C16 UNL     1      22.240   3.049  50.289  1.00  0.00     0.133 A 
HETATM   21  N2  UNL     1      22.419   1.846  49.694  1.00  0.00    -0.224 NA
HETATM   22  C17 UNL     1      21.920   1.541  48.482  1.00  0.00     0.238 A 
HETATM   23  N3  UNL     1      21.210   2.468  47.824  1.00  0.00    -0.217 NA
HETATM   24  N4  UNL     1      22.908   3.041  51.559  1.00  0.00    -0.341 N 
HETATM   25  H4  UNL     1      25.292   7.410  49.094  1.00  0.00     0.160 HD
HETATM   26  H7  UNL     1      26.464  10.874  48.609  1.00  0.00     0.072 HD
HETATM   27  H14 UNL     1      22.644   2.367  52.299  1.00  0.00     0.167 HD
ENDROOT
TORSDOF 0
ENDMDL
MODEL 8
REMARK VINA RESULT:      -6.8      9.930     11.758
REMARK  0 active torsions:
REMARK  status: ('A' for Active; 'I' for Inactive)
ROOT
HETATM    1 BR1  UNL     1      27.920  10.189  45.241  1.00  0.00    -0.049 Br
HETATM    2  C1  UNL     1      29.171  10.627  46.576  1.00  0.00     0.039 A 
HETATM    3  C2  UNL     1      30.446  10.992  46.226  1.00  0.00     0.051 A 
HETATM    4  C3  UNL     1      31.344  11.309  47.222  1.00  0.00     0.035 A 
HETATM    5  C4  UNL     1      31.006  11.272  48.557  1.00  0.00     0.032 A 
HETATM    6  C5  UNL     1      29.735  10.907  48.931  1.00  0.00     0.033 A 
HETATM    7  C6  UNL     1      28.831  10.586  47.917  1.00  0.00     0.046 A 
HETATM    8  N1  UNL     1      27.511  10.176  48.277  1.00  0.00    -0.384 N 
HETATM    9  C7  UNL     1      26.103  10.216  48.602  1.00  0.00     0.164 C 
HETATM   10  P1  UNL     1      25.528   8.468  48.947  1.00  0.00    -0.028 P 
HETATM   11  C8  UNL     1      26.787   7.287  48.649  1.00  0.00    -0.077 C 
HETATM   12  C9  UNL     1      27.644   6.511  48.451  1.00  0.00    -0.095 C 
HETATM   13  C10 UNL     1      28.665   5.610  48.200  1.00  0.00     0.116 C 
HETATM   14  C11 UNL     1      29.959   5.822  48.174  1.00  0.00     0.014 C 
HETATM   15  C12 UNL     1      31.356   6.323  48.204  1.00  0.00    -0.000 C 
HETATM   16  C13 UNL     1      32.562   5.847  48.033  1.00  0.00     0.140 C 
HETATM   17  O1  UNL     1      33.349   6.968  48.232  1.00  0.00    -0.304 OA
HETATM   18  C14 UNL     1      33.444   7.973  47.282  1.00  0.00     0.173 A 
HETATM   19  C15 UNL     1      33.021   9.201  47.720  1.00  0.00     0.108 A 
HETATM   20  C16 UNL     1      33.074  10.276  46.839  1.00  0.00     0.133 A 
HETATM   21  N2  UNL     1      33.546  10.036  45.594  1.00  0.00    -0.224 NA
HETATM   22  C17 UNL     1      33.959   8.823  45.182  1.00  0.00     0.238 A 
HETATM   23  N3  UNL     1      33.902   7.796  46.041  1.00  0.00    -0.217 NA
HETATM   24  N4  UNL     1      32.715  11.662  46.939  1.00  0.00    -0.341 N 
HETATM   25  H4  UNL     1      27.931   9.191  48.300  1.00  0.00     0.160 HD
HETATM   26  H7  UNL     1      24.915   8.369  50.259  1.00  0.00     0.072 HD
HETATM   27  H14 UNL     1      33.419  12.409  46.803  1.00  0.00     0.167 HD
ENDROOT
TORSDOF 0
ENDMDL
MODEL 9
REMARK VINA RESULT:      -6.7      5.720      8.045
REMARK  0 active torsions:
REMARK  status: ('A' for Active; 'I' for Inactive)
ROOT
HETATM    1 BR1  UNL     1      21.640   4.731  47.994  1.00  0.00    -0.049 Br
HETATM    2  C1  UNL     1      22.376   6.271  48.784  1.00  0.00     0.039 A 
HETATM    3  C2  UNL     1      22.545   7.409  48.037  1.00  0.00     0.051 A 
HETATM    4  C3  UNL     1      23.086   8.525  48.638  1.00  0.00     0.035 A 
HETATM    5  C4  UNL     1      23.463   8.538  49.964  1.00  0.00     0.032 A 
HETATM    6  C5  UNL     1      23.303   7.408  50.731  1.00  0.00     0.033 A 
HETATM    7  C6  UNL     1      22.756   6.281  50.115  1.00  0.00     0.046 A 
HETATM    8  N1  UNL     1      22.606   5.084  50.879  1.00  0.00    -0.384 N 
HETATM    9  C7  UNL     1      22.041   4.066  51.735  1.00  0.00     0.164 C 
HETATM   10  P1  UNL     1      23.302   2.696  51.933  1.00  0.00    -0.028 P 
HETATM   11  C8  UNL     1      24.721   2.956  50.940  1.00  0.00    -0.077 C 
HETATM   12  C9  UNL     1      25.667   3.150  50.272  1.00  0.00    -0.095 C 
HETATM   13  C10 UNL     1      26.768   3.391  49.469  1.00  0.00     0.116 C 
HETATM   14  C11 UNL     1      27.191   4.530  48.976  1.00  0.00     0.014 C 
HETATM   15  C12 UNL     1      27.453   5.928  48.549  1.00  0.00    -0.000 C 
HETATM   16  C13 UNL     1      28.330   6.574  47.826  1.00  0.00     0.140 C 
HETATM   17  O1  UNL     1      27.875   7.878  47.912  1.00  0.00    -0.304 OA
HETATM   18  C14 UNL     1      26.756   8.309  47.216  1.00  0.00     0.173 A 
HETATM   19  C15 UNL     1      25.742   8.769  48.015  1.00  0.00     0.108 A 
HETATM   20  C16 UNL     1      24.573   9.222  47.411  1.00  0.00     0.133 A 
HETATM   21  N2  UNL     1      24.515   9.179  46.060  1.00  0.00    -0.224 NA
HETATM   22  C17 UNL     1      25.523   8.725  45.292  1.00  0.00     0.238 A 
HETATM   23  N3  UNL     1      26.643   8.291  45.886  1.00  0.00    -0.217 NA
HETATM   24  N4  UNL     1      23.335   9.747  47.911  1.00  0.00    -0.341 N 
HETATM   25  H4  UNL     1      23.598   4.863  50.543  1.00  0.00     0.160 HD
HETATM   26  H7  UNL     1      23.591   2.450  53.334  1.00  0.00     0.072 HD
HETATM   27  H14 UNL     1      23.014  10.698  47.656  1.00  0.00     0.167 HD
ENDROOT
TORSDOF 0
ENDMDL
