MODEL 1
REMARK VINA RESULT:      -9.0      0.000      0.000
REMARK  5 active torsions:
REMARK  status: ('A' for Active; 'I' for Inactive)
REMARK    1  A    between atoms: C7_10  and  N3_11 
REMARK    2  A    between atoms: N3_11  and  C8_12 
REMARK    3  A    between atoms: C11_15  and  O2_16 
REMARK    4  A    between atoms: O2_16  and  C12_17 
REMARK    5  A    between atoms: C12_17  and  C13_18 
ROOT
HETATM    1  O1  UNL     1      22.631  -1.700  55.551  1.00  0.00    -0.269 OA
HETATM    2  C1  UNL     1      21.786  -1.237  54.710  1.00  0.00     0.241 C 
HETATM    3  C2  UNL     1      20.464  -0.933  54.080  1.00  0.00     0.075 C 
HETATM    4  C3  UNL     1      20.478  -0.261  52.974  1.00  0.00     0.023 C 
HETATM    5  C4  UNL     1      21.026   0.437  51.872  1.00  0.00     0.040 A 
HETATM    6  C5  UNL     1      22.266   0.979  51.701  1.00  0.00     0.064 A 
HETATM    7  C6  UNL     1      22.559   1.647  50.527  1.00  0.00     0.171 A 
HETATM    8  N1  UNL     1      21.600   1.744  49.572  1.00  0.00    -0.158 NA
HETATM    9  N2  UNL     1      20.406   1.229  49.715  1.00  0.00    -0.131 NA
HETATM   10  C7  UNL     1      20.123   0.585  50.851  1.00  0.00     0.163 A 
HETATM   11  N5  UNL     1      23.501   1.068  52.406  1.00  0.00    -0.368 N 
HETATM   12  C20 UNL     1      23.654   2.393  52.956  1.00  0.00     0.150 C 
HETATM   13  C21 UNL     1      25.059   2.928  52.948  1.00  0.00     0.187 C 
HETATM   14  O3  UNL     1      25.905   2.019  53.591  1.00  0.00    -0.387 OA
HETATM   15  C22 UNL     1      25.930   0.916  52.733  1.00  0.00     0.194 C 
HETATM   16  C23 UNL     1      24.649   0.185  52.677  1.00  0.00     0.126 C 
HETATM   17  C24 UNL     1      24.505  -0.603  53.950  1.00  0.00     0.150 C 
HETATM   18  N6  UNL     1      23.138  -0.901  54.298  1.00  0.00    -0.356 N 
HETATM   19  H23 UNL     1      22.700  -0.444  53.478  1.00  0.00     0.162 HD
ENDROOT
BRANCH  10  20
HETATM   20  N3  UNL     1      18.792   0.101  50.857  1.00  0.00    -0.339 N 
HETATM   21  H4  UNL     1      18.508  -0.895  50.952  1.00  0.00     0.167 HD
BRANCH  20  22
HETATM   22  C8  UNL     1      17.605   0.894  50.722  1.00  0.00     0.035 A 
HETATM   23  C9  UNL     1      16.589   0.480  49.852  1.00  0.00     0.032 A 
HETATM   24  C10 UNL     1      15.474   1.271  49.729  1.00  0.00     0.041 A 
HETATM   25  C11 UNL     1      15.285   2.430  50.390  1.00  0.00     0.091 A 
HETATM   26  C18 UNL     1      16.314   2.828  51.257  1.00  0.00     0.069 A 
HETATM   27 CL1  UNL     1      16.257   4.321  52.219  1.00  0.00    -0.081 Cl
HETATM   28  C19 UNL     1      17.490   2.088  51.450  1.00  0.00     0.056 A 
BRANCH  25  29
HETATM   29  O2  UNL     1      14.307   3.296  50.395  1.00  0.00    -0.344 OA
BRANCH  29  30
HETATM   30  C12 UNL     1      13.029   3.581  50.633  1.00  0.00     0.235 C 
BRANCH  30  31
HETATM   31  C13 UNL     1      12.622   3.514  52.062  1.00  0.00     0.058 A 
HETATM   32  C14 UNL     1      12.686   4.490  53.023  1.00  0.00     0.029 A 
HETATM   33  C15 UNL     1      12.273   4.369  54.318  1.00  0.00     0.003 A 
HETATM   34  C16 UNL     1      11.736   3.176  54.746  1.00  0.00     0.019 A 
HETATM   35  C17 UNL     1      11.667   2.199  53.795  1.00  0.00     0.117 A 
HETATM   36  N4  UNL     1      12.079   2.357  52.551  1.00  0.00    -0.263 NA
ENDBRANCH  30  31
ENDBRANCH  29  30
ENDBRANCH  25  29
ENDBRANCH  20  22
ENDBRANCH  10  20
TORSDOF 5
ENDMDL
MODEL 2
REMARK VINA RESULT:      -8.9      6.796     10.334
REMARK  5 active torsions:
REMARK  status: ('A' for Active; 'I' for Inactive)
REMARK    1  A    between atoms: C7_10  and  N3_11 
REMARK    2  A    between atoms: N3_11  and  C8_12 
REMARK    3  A    between atoms: C11_15  and  O2_16 
REMARK    4  A    between atoms: O2_16  and  C12_17 
REMARK    5  A    between atoms: C12_17  and  C13_18 
ROOT
HETATM    1  O1  UNL     1      28.079  11.609  49.273  1.00  0.00    -0.269 OA
HETATM    2  C1  UNL     1      27.460  10.514  49.045  1.00  0.00     0.241 C 
HETATM    3  C2  UNL     1      26.320   9.581  48.781  1.00  0.00     0.075 C 
HETATM    4  C3  UNL     1      26.605   8.327  48.638  1.00  0.00     0.023 C 
HETATM    5  C4  UNL     1      27.411   7.167  48.570  1.00  0.00     0.040 A 
HETATM    6  C5  UNL     1      28.758   7.038  48.393  1.00  0.00     0.064 A 
HETATM    7  C6  UNL     1      29.317   5.775  48.334  1.00  0.00     0.171 A 
HETATM    8  N1  UNL     1      28.507   4.694  48.457  1.00  0.00    -0.158 NA
HETATM    9  N2  UNL     1      27.215   4.796  48.631  1.00  0.00    -0.131 NA
HETATM   10  C7  UNL     1      26.675   6.016  48.686  1.00  0.00     0.163 A 
HETATM   11  N5  UNL     1      29.904   7.874  48.259  1.00  0.00    -0.368 N 
HETATM   12  C20 UNL     1      30.328   7.901  46.881  1.00  0.00     0.150 C 
HETATM   13  C21 UNL     1      31.817   7.954  46.673  1.00  0.00     0.187 C 
HETATM   14  O3  UNL     1      32.346   9.037  47.381  1.00  0.00    -0.387 OA
HETATM   15  C22 UNL     1      32.176   8.680  48.721  1.00  0.00     0.194 C 
HETATM   16  C23 UNL     1      30.765   8.667  49.153  1.00  0.00     0.126 C 
HETATM   17  C24 UNL     1      30.310  10.092  49.307  1.00  0.00     0.150 C 
HETATM   18  N6  UNL     1      28.885  10.265  49.170  1.00  0.00    -0.356 N 
HETATM   19  H23 UNL     1      28.654   9.268  49.016  1.00  0.00     0.162 HD
ENDROOT
BRANCH  10  20
HETATM   20  N3  UNL     1      25.270   5.956  48.863  1.00  0.00    -0.339 N 
HETATM   21  H4  UNL     1      24.593   6.699  48.599  1.00  0.00     0.167 HD
BRANCH  20  22
HETATM   22  C8  UNL     1      24.539   4.869  49.447  1.00  0.00     0.035 A 
HETATM   23  C9  UNL     1      23.643   4.134  48.660  1.00  0.00     0.032 A 
HETATM   24  C10 UNL     1      22.943   3.113  49.252  1.00  0.00     0.041 A 
HETATM   25  C11 UNL     1      23.055   2.763  50.549  1.00  0.00     0.091 A 
HETATM   26  C18 UNL     1      23.957   3.511  51.321  1.00  0.00     0.069 A 
HETATM   27 CL1  UNL     1      24.250   3.207  53.046  1.00  0.00    -0.081 Cl
HETATM   28  C19 UNL     1      24.718   4.572  50.806  1.00  0.00     0.056 A 
BRANCH  25  29
HETATM   29  O2  UNL     1      22.477   1.838  51.268  1.00  0.00    -0.344 OA
BRANCH  29  30
HETATM   30  C12 UNL     1      21.777   0.709  51.336  1.00  0.00     0.235 C 
BRANCH  30  31
HETATM   31  C13 UNL     1      21.901  -0.036  52.617  1.00  0.00     0.058 A 
HETATM   32  C14 UNL     1      20.920  -0.632  53.366  1.00  0.00     0.029 A 
HETATM   33  C15 UNL     1      21.106  -1.324  54.528  1.00  0.00     0.003 A 
HETATM   34  C16 UNL     1      22.378  -1.463  55.033  1.00  0.00     0.019 A 
HETATM   35  C17 UNL     1      23.363  -0.874  54.293  1.00  0.00     0.117 A 
HETATM   36  N4  UNL     1      23.139  -0.212  53.173  1.00  0.00    -0.263 NA
ENDBRANCH  30  31
ENDBRANCH  29  30
ENDBRANCH  25  29
ENDBRANCH  20  22
ENDBRANCH  10  20
TORSDOF 5
ENDMDL
MODEL 3
REMARK VINA RESULT:      -8.9      8.088     12.293
REMARK  5 active torsions:
REMARK  status: ('A' for Active; 'I' for Inactive)
REMARK    1  A    between atoms: C7_10  and  N3_11 
REMARK    2  A    between atoms: N3_11  and  C8_12 
REMARK    3  A    between atoms: C11_15  and  O2_16 
REMARK    4  A    between atoms: O2_16  and  C12_17 
REMARK    5  A    between atoms: C12_17  and  C13_18 
ROOT
HETATM    1  O1  UNL     1      26.040  11.937  48.517  1.00  0.00    -0.269 OA
HETATM    2  C1  UNL     1      26.025  10.667  48.372  1.00  0.00     0.241 C 
HETATM    3  C2  UNL     1      25.479   9.290  48.158  1.00  0.00     0.075 C 
HETATM    4  C3  UNL     1      26.328   8.315  48.145  1.00  0.00     0.023 C 
HETATM    5  C4  UNL     1      27.587   7.672  48.215  1.00  0.00     0.040 A 
HETATM    6  C5  UNL     1      28.846   8.185  48.098  1.00  0.00     0.064 A 
HETATM    7  C6  UNL     1      29.934   7.337  48.178  1.00  0.00     0.171 A 
HETATM    8  N1  UNL     1      29.719   6.012  48.375  1.00  0.00    -0.158 NA
HETATM    9  N2  UNL     1      28.521   5.501  48.494  1.00  0.00    -0.131 NA
HETATM   10  C7  UNL     1      27.470   6.321  48.414  1.00  0.00     0.163 A 
HETATM   11  N5  UNL     1      29.473   9.453  47.925  1.00  0.00    -0.368 N 
HETATM   12  C20 UNL     1      29.937   9.585  46.566  1.00  0.00     0.150 C 
HETATM   13  C21 UNL     1      31.238  10.323  46.406  1.00  0.00     0.187 C 
HETATM   14  O3  UNL     1      31.143  11.572  47.026  1.00  0.00    -0.387 OA
HETATM   15  C22 UNL     1      31.060  11.268  48.388  1.00  0.00     0.194 C 
HETATM   16  C23 UNL     1      29.792  10.617  48.770  1.00  0.00     0.126 C 
HETATM   17  C24 UNL     1      28.711  11.663  48.772  1.00  0.00     0.150 C 
HETATM   18  N6  UNL     1      27.387  11.132  48.570  1.00  0.00    -0.356 N 
HETATM   19  H23 UNL     1      27.663  10.136  48.503  1.00  0.00     0.162 HD
ENDROOT
BRANCH  10  20
HETATM   20  N3  UNL     1      26.248   5.615  48.547  1.00  0.00    -0.339 N 
HETATM   21  H4  UNL     1      25.397   5.759  47.967  1.00  0.00     0.167 HD
BRANCH  20  22
HETATM   22  C8  UNL     1      25.967   4.590  49.510  1.00  0.00     0.035 A 
HETATM   23  C9  UNL     1      26.670   3.380  49.459  1.00  0.00     0.032 A 
HETATM   24  C10 UNL     1      26.363   2.410  50.381  1.00  0.00     0.041 A 
HETATM   25  C11 UNL     1      25.425   2.538  51.340  1.00  0.00     0.091 A 
HETATM   26  C18 UNL     1      24.732   3.758  51.375  1.00  0.00     0.069 A 
HETATM   27 CL1  UNL     1      23.462   4.125  52.561  1.00  0.00    -0.081 Cl
HETATM   28  C19 UNL     1      24.974   4.808  50.476  1.00  0.00     0.056 A 
BRANCH  25  29
HETATM   29  O2  UNL     1      25.008   1.735  52.282  1.00  0.00    -0.344 OA
BRANCH  29  30
HETATM   30  C12 UNL     1      25.233   1.099  53.429  1.00  0.00     0.235 C 
BRANCH  30  31
HETATM   31  C13 UNL     1      26.597   0.524  53.576  1.00  0.00     0.058 A 
HETATM   32  C14 UNL     1      27.102  -0.640  53.055  1.00  0.00     0.029 A 
HETATM   33  C15 UNL     1      28.377  -1.101  53.209  1.00  0.00     0.003 A 
HETATM   34  C16 UNL     1      29.275  -0.365  53.947  1.00  0.00     0.019 A 
HETATM   35  C17 UNL     1      28.782   0.796  54.469  1.00  0.00     0.117 A 
HETATM   36  N4  UNL     1      27.539   1.206  54.296  1.00  0.00    -0.263 NA
ENDBRANCH  30  31
ENDBRANCH  29  30
ENDBRANCH  25  29
ENDBRANCH  20  22
ENDBRANCH  10  20
TORSDOF 5
ENDMDL
MODEL 4
REMARK VINA RESULT:      -8.8      2.738     10.134
REMARK  5 active torsions:
REMARK  status: ('A' for Active; 'I' for Inactive)
REMARK    1  A    between atoms: C7_10  and  N3_11 
REMARK    2  A    between atoms: N3_11  and  C8_12 
REMARK    3  A    between atoms: C11_15  and  O2_16 
REMARK    4  A    between atoms: O2_16  and  C12_17 
REMARK    5  A    between atoms: C12_17  and  C13_18 
ROOT
HETATM    1  O1  UNL     1      13.574  -1.825  52.701  1.00  0.00    -0.269 OA
HETATM    2  C1  UNL     1      14.671  -1.378  52.219  1.00  0.00     0.241 C 
HETATM    3  C2  UNL     1      16.001  -1.381  51.534  1.00  0.00     0.075 C 
HETATM    4  C3  UNL     1      16.615  -0.247  51.432  1.00  0.00     0.023 C 
HETATM    5  C4  UNL     1      16.833   1.143  51.584  1.00  0.00     0.040 A 
HETATM    6  C5  UNL     1      15.954   2.147  51.871  1.00  0.00     0.064 A 
HETATM    7  C6  UNL     1      16.411   3.449  51.940  1.00  0.00     0.171 A 
HETATM    8  N1  UNL     1      17.727   3.694  51.724  1.00  0.00    -0.158 NA
HETATM    9  N2  UNL     1      18.587   2.746  51.451  1.00  0.00    -0.131 NA
HETATM   10  C7  UNL     1      18.144   1.488  51.382  1.00  0.00     0.163 A 
HETATM   11  N5  UNL     1      14.572   2.302  52.179  1.00  0.00    -0.368 N 
HETATM   12  C20 UNL     1      13.873   2.828  51.032  1.00  0.00     0.150 C 
HETATM   13  C21 UNL     1      12.766   3.796  51.347  1.00  0.00     0.187 C 
HETATM   14  O3  UNL     1      11.876   3.205  52.248  1.00  0.00    -0.387 OA
HETATM   15  C22 UNL     1      12.613   3.095  53.430  1.00  0.00     0.194 C 
HETATM   16  C23 UNL     1      13.704   2.104  53.353  1.00  0.00     0.126 C 
HETATM   17  C24 UNL     1      13.094   0.731  53.416  1.00  0.00     0.150 C 
HETATM   18  N6  UNL     1      13.906  -0.295  52.810  1.00  0.00    -0.356 N 
HETATM   19  H23 UNL     1      14.694   0.319  52.535  1.00  0.00     0.162 HD
ENDROOT
BRANCH  10  20
HETATM   20  N3  UNL     1      19.190   0.585  51.066  1.00  0.00    -0.339 N 
HETATM   21  H4  UNL     1      19.144  -0.172  50.355  1.00  0.00     0.167 HD
BRANCH  20  22
HETATM   22  C8  UNL     1      20.487   0.549  51.677  1.00  0.00     0.035 A 
HETATM   23  C9  UNL     1      21.585   1.101  51.005  1.00  0.00     0.032 A 
HETATM   24  C10 UNL     1      22.817   1.033  51.606  1.00  0.00     0.041 A 
HETATM   25  C11 UNL     1      23.049   0.467  52.807  1.00  0.00     0.091 A 
HETATM   26  C18 UNL     1      21.937  -0.080  53.464  1.00  0.00     0.069 A 
HETATM   27 CL1  UNL     1      22.032  -0.868  55.053  1.00  0.00    -0.081 Cl
HETATM   28  C19 UNL     1      20.639  -0.059  52.931  1.00  0.00     0.056 A 
BRANCH  25  29
HETATM   29  O2  UNL     1      24.135   0.314  53.517  1.00  0.00    -0.344 OA
BRANCH  29  30
HETATM   30  C12 UNL     1      25.172  -0.438  53.879  1.00  0.00     0.235 C 
BRANCH  30  31
HETATM   31  C13 UNL     1      26.476   0.274  53.945  1.00  0.00     0.058 A 
HETATM   32  C14 UNL     1      26.831   1.475  53.388  1.00  0.00     0.029 A 
HETATM   33  C15 UNL     1      28.044   2.088  53.507  1.00  0.00     0.003 A 
HETATM   34  C16 UNL     1      29.036   1.481  54.244  1.00  0.00     0.019 A 
HETATM   35  C17 UNL     1      28.691   0.285  54.804  1.00  0.00     0.117 A 
HETATM   36  N4  UNL     1      27.503  -0.274  54.664  1.00  0.00    -0.263 NA
ENDBRANCH  30  31
ENDBRANCH  29  30
ENDBRANCH  25  29
ENDBRANCH  20  22
ENDBRANCH  10  20
TORSDOF 5
ENDMDL
MODEL 5
REMARK VINA RESULT:      -8.7      5.908     10.534
REMARK  5 active torsions:
REMARK  status: ('A' for Active; 'I' for Inactive)
REMARK    1  A    between atoms: C7_10  and  N3_11 
REMARK    2  A    between atoms: N3_11  and  C8_12 
REMARK    3  A    between atoms: C11_15  and  O2_16 
REMARK    4  A    between atoms: O2_16  and  C12_17 
REMARK    5  A    between atoms: C12_17  and  C13_18 
ROOT
HETATM    1  O1  UNL     1      21.873   3.621  44.838  1.00  0.00    -0.269 OA
HETATM    2  C1  UNL     1      21.939   3.582  46.115  1.00  0.00     0.241 C 
HETATM    3  C2  UNL     1      22.000   3.007  47.495  1.00  0.00     0.075 C 
HETATM    4  C3  UNL     1      22.060   3.843  48.480  1.00  0.00     0.023 C 
HETATM    5  C4  UNL     1      22.108   5.097  49.133  1.00  0.00     0.040 A 
HETATM    6  C5  UNL     1      22.411   6.335  48.643  1.00  0.00     0.064 A 
HETATM    7  C6  UNL     1      22.415   7.420  49.499  1.00  0.00     0.171 A 
HETATM    8  N1  UNL     1      22.114   7.224  50.807  1.00  0.00    -0.158 NA
HETATM    9  N2  UNL     1      21.817   6.048  51.295  1.00  0.00    -0.131 NA
HETATM   10  C7  UNL     1      21.815   4.999  50.469  1.00  0.00     0.163 A 
HETATM   11  N5  UNL     1      22.735   6.941  47.396  1.00  0.00    -0.368 N 
HETATM   12  C20 UNL     1      24.147   7.234  47.350  1.00  0.00     0.150 C 
HETATM   13  C21 UNL     1      24.511   8.508  46.639  1.00  0.00     0.187 C 
HETATM   14  O3  UNL     1      23.960   8.497  45.354  1.00  0.00    -0.387 OA
HETATM   15  C22 UNL     1      22.583   8.583  45.576  1.00  0.00     0.194 C 
HETATM   16  C23 UNL     1      22.008   7.369  46.188  1.00  0.00     0.126 C 
HETATM   17  C24 UNL     1      21.935   6.302  45.130  1.00  0.00     0.150 C 
HETATM   18  N6  UNL     1      21.939   4.960  45.656  1.00  0.00    -0.356 N 
HETATM   19  H23 UNL     1      21.980   5.221  46.657  1.00  0.00     0.162 HD
ENDROOT
BRANCH  10  20
HETATM   20  N3  UNL     1      21.490   3.799  51.150  1.00  0.00    -0.339 N 
HETATM   21  H4  UNL     1      20.533   3.415  51.279  1.00  0.00     0.167 HD
BRANCH  20  22
HETATM   22  C8  UNL     1      22.420   2.913  51.789  1.00  0.00     0.035 A 
HETATM   23  C9  UNL     1      23.725   3.349  52.049  1.00  0.00     0.032 A 
HETATM   24  C10 UNL     1      24.598   2.471  52.642  1.00  0.00     0.041 A 
HETATM   25  C11 UNL     1      24.287   1.208  52.995  1.00  0.00     0.091 A 
HETATM   26  C18 UNL     1      22.974   0.790  52.726  1.00  0.00     0.069 A 
HETATM   27 CL1  UNL     1      22.367  -0.833  53.115  1.00  0.00    -0.081 Cl
HETATM   28  C19 UNL     1      22.011   1.614  52.123  1.00  0.00     0.056 A 
BRANCH  25  29
HETATM   29  O2  UNL     1      24.977   0.251  53.557  1.00  0.00    -0.344 OA
BRANCH  29  30
HETATM   30  C12 UNL     1      25.722  -0.846  53.441  1.00  0.00     0.235 C 
BRANCH  30  31
HETATM   31  C13 UNL     1      27.191  -0.617  53.474  1.00  0.00     0.058 A 
HETATM   32  C14 UNL     1      27.877   0.555  53.662  1.00  0.00     0.029 A 
HETATM   33  C15 UNL     1      29.234   0.693  53.704  1.00  0.00     0.003 A 
HETATM   34  C16 UNL     1      30.029  -0.419  53.548  1.00  0.00     0.019 A 
HETATM   35  C17 UNL     1      29.355  -1.592  53.361  1.00  0.00     0.117 A 
HETATM   36  N4  UNL     1      28.038  -1.681  53.326  1.00  0.00    -0.263 NA
ENDBRANCH  30  31
ENDBRANCH  29  30
ENDBRANCH  25  29
ENDBRANCH  20  22
ENDBRANCH  10  20
TORSDOF 5
ENDMDL
MODEL 6
REMARK VINA RESULT:      -8.5      2.109      3.727
REMARK  5 active torsions:
REMARK  status: ('A' for Active; 'I' for Inactive)
REMARK    1  A    between atoms: C7_10  and  N3_11 
REMARK    2  A    between atoms: N3_11  and  C8_12 
REMARK    3  A    between atoms: C11_15  and  O2_16 
REMARK    4  A    between atoms: O2_16  and  C12_17 
REMARK    5  A    between atoms: C12_17  and  C13_18 
ROOT
HETATM    1  O1  UNL     1      27.168   3.674  50.225  1.00  0.00    -0.269 OA
HETATM    2  C1  UNL     1      25.960   3.253  50.200  1.00  0.00     0.241 C 
HETATM    3  C2  UNL     1      24.563   3.043  49.708  1.00  0.00     0.075 C 
HETATM    4  C3  UNL     1      23.780   2.325  50.446  1.00  0.00     0.023 C 
HETATM    5  C4  UNL     1      23.381   1.532  51.548  1.00  0.00     0.040 A 
HETATM    6  C5  UNL     1      24.132   0.874  52.478  1.00  0.00     0.064 A 
HETATM    7  C6  UNL     1      23.501   0.131  53.458  1.00  0.00     0.171 A 
HETATM    8  N1  UNL     1      22.146   0.080  53.469  1.00  0.00    -0.158 NA
HETATM    9  N2  UNL     1      21.407   0.707  52.590  1.00  0.00    -0.131 NA
HETATM   10  C7  UNL     1      22.017   1.422  51.642  1.00  0.00     0.163 A 
HETATM   11  N5  UNL     1      25.505   0.704  52.818  1.00  0.00    -0.368 N 
HETATM   12  C20 UNL     1      25.951  -0.604  52.405  1.00  0.00     0.150 C 
HETATM   13  C21 UNL     1      26.935  -1.264  53.331  1.00  0.00     0.187 C 
HETATM   14  O3  UNL     1      28.020  -0.409  53.542  1.00  0.00    -0.387 OA
HETATM   15  C22 UNL     1      27.479   0.649  54.278  1.00  0.00     0.194 C 
HETATM   16  C23 UNL     1      26.547   1.490  53.501  1.00  0.00     0.126 C 
HETATM   17  C24 UNL     1      27.358   2.343  52.564  1.00  0.00     0.150 C 
HETATM   18  N6  UNL     1      26.631   2.779  51.398  1.00  0.00    -0.356 N 
HETATM   19  H23 UNL     1      25.730   2.328  51.639  1.00  0.00     0.162 HD
ENDROOT
BRANCH  10  20
HETATM   20  N3  UNL     1      21.084   2.025  50.763  1.00  0.00    -0.339 N 
HETATM   21  H4  UNL     1      21.298   2.408  49.820  1.00  0.00     0.167 HD
BRANCH  20  22
HETATM   22  C8  UNL     1      19.687   2.225  51.022  1.00  0.00     0.035 A 
HETATM   23  C9  UNL     1      19.226   3.493  51.397  1.00  0.00     0.032 A 
HETATM   24  C10 UNL     1      17.888   3.647  51.659  1.00  0.00     0.041 A 
HETATM   25  C11 UNL     1      16.977   2.657  51.582  1.00  0.00     0.091 A 
HETATM   26  C18 UNL     1      17.458   1.394  51.206  1.00  0.00     0.069 A 
HETATM   27 CL1  UNL     1      16.420  -0.039  51.045  1.00  0.00    -0.081 Cl
HETATM   28  C19 UNL     1      18.807   1.138  50.918  1.00  0.00     0.056 A 
BRANCH  25  29
HETATM   29  O2  UNL     1      15.688   2.623  51.793  1.00  0.00    -0.344 OA
BRANCH  29  30
HETATM   30  C12 UNL     1      14.470   3.091  51.530  1.00  0.00     0.235 C 
BRANCH  30  31
HETATM   31  C13 UNL     1      13.567   3.200  52.707  1.00  0.00     0.058 A 
HETATM   32  C14 UNL     1      13.106   4.326  53.338  1.00  0.00     0.029 A 
HETATM   33  C15 UNL     1      12.257   4.358  54.405  1.00  0.00     0.003 A 
HETATM   34  C16 UNL     1      11.793   3.174  54.932  1.00  0.00     0.019 A 
HETATM   35  C17 UNL     1      12.245   2.046  54.309  1.00  0.00     0.117 A 
HETATM   36  N4  UNL     1      13.069   2.060  53.278  1.00  0.00    -0.263 NA
ENDBRANCH  30  31
ENDBRANCH  29  30
ENDBRANCH  25  29
ENDBRANCH  20  22
ENDBRANCH  10  20
TORSDOF 5
ENDMDL
MODEL 7
REMARK VINA RESULT:      -8.3      1.689      3.140
REMARK  5 active torsions:
REMARK  status: ('A' for Active; 'I' for Inactive)
REMARK    1  A    between atoms: C7_10  and  N3_11 
REMARK    2  A    between atoms: N3_11  and  C8_12 
REMARK    3  A    between atoms: C11_15  and  O2_16 
REMARK    4  A    between atoms: O2_16  and  C12_17 
REMARK    5  A    between atoms: C12_17  and  C13_18 
ROOT
HETATM    1  O1  UNL     1      23.788   3.003  49.142  1.00  0.00    -0.269 OA
HETATM    2  C1  UNL     1      22.838   2.246  49.543  1.00  0.00     0.241 C 
HETATM    3  C2  UNL     1      21.596   1.415  49.491  1.00  0.00     0.075 C 
HETATM    4  C3  UNL     1      21.213   0.857  50.593  1.00  0.00     0.023 C 
HETATM    5  C4  UNL     1      21.241   0.508  51.964  1.00  0.00     0.040 A 
HETATM    6  C5  UNL     1      22.261   0.572  52.868  1.00  0.00     0.064 A 
HETATM    7  C6  UNL     1      22.047   0.141  54.164  1.00  0.00     0.171 A 
HETATM    8  N1  UNL     1      20.822  -0.333  54.502  1.00  0.00    -0.158 NA
HETATM    9  N2  UNL     1      19.830  -0.399  53.652  1.00  0.00    -0.131 NA
HETATM   10  C7  UNL     1      20.038   0.015  52.400  1.00  0.00     0.163 A 
HETATM   11  N5  UNL     1      23.616   1.010  52.923  1.00  0.00    -0.368 N 
HETATM   12  C20 UNL     1      24.497  -0.132  52.909  1.00  0.00     0.150 C 
HETATM   13  C21 UNL     1      25.731   0.004  53.758  1.00  0.00     0.187 C 
HETATM   14  O3  UNL     1      26.415   1.169  53.399  1.00  0.00    -0.387 OA
HETATM   15  C22 UNL     1      25.569   2.200  53.816  1.00  0.00     0.194 C 
HETATM   16  C23 UNL     1      24.325   2.297  53.027  1.00  0.00     0.126 C 
HETATM   17  C24 UNL     1      24.665   2.897  51.690  1.00  0.00     0.150 C 
HETATM   18  N6  UNL     1      23.735   2.552  50.644  1.00  0.00    -0.356 N 
HETATM   19  H23 UNL     1      23.101   1.979  51.228  1.00  0.00     0.162 HD
ENDROOT
BRANCH  10  20
HETATM   20  N3  UNL     1      18.877  -0.134  51.602  1.00  0.00    -0.339 N 
HETATM   21  H4  UNL     1      18.777  -0.773  50.787  1.00  0.00     0.167 HD
BRANCH  20  22
HETATM   22  C8  UNL     1      17.641   0.575  51.770  1.00  0.00     0.035 A 
HETATM   23  C9  UNL     1      16.514  -0.101  52.252  1.00  0.00     0.032 A 
HETATM   24  C10 UNL     1      15.341   0.599  52.382  1.00  0.00     0.041 A 
HETATM   25  C11 UNL     1      15.194   1.904  52.075  1.00  0.00     0.091 A 
HETATM   26  C18 UNL     1      16.334   2.563  51.594  1.00  0.00     0.069 A 
HETATM   27 CL1  UNL     1      16.349   4.280  51.136  1.00  0.00    -0.081 Cl
HETATM   28  C19 UNL     1      17.577   1.934  51.426  1.00  0.00     0.056 A 
BRANCH  25  29
HETATM   29  O2  UNL     1      14.172   2.716  52.134  1.00  0.00    -0.344 OA
BRANCH  29  30
HETATM   30  C12 UNL     1      13.313   3.428  52.859  1.00  0.00     0.235 C 
BRANCH  30  31
HETATM   31  C13 UNL     1      12.337   2.628  53.647  1.00  0.00     0.058 A 
HETATM   32  C14 UNL     1      12.170   2.568  55.006  1.00  0.00     0.029 A 
HETATM   33  C15 UNL     1      11.235   1.827  55.668  1.00  0.00     0.003 A 
HETATM   34  C16 UNL     1      10.356   1.052  54.947  1.00  0.00     0.019 A 
HETATM   35  C17 UNL     1      10.514   1.105  53.592  1.00  0.00     0.117 A 
HETATM   36  N4  UNL     1      11.434   1.837  52.991  1.00  0.00    -0.263 NA
ENDBRANCH  30  31
ENDBRANCH  29  30
ENDBRANCH  25  29
ENDBRANCH  20  22
ENDBRANCH  10  20
TORSDOF 5
ENDMDL
MODEL 8
REMARK VINA RESULT:      -8.3      7.145     11.025
REMARK  5 active torsions:
REMARK  status: ('A' for Active; 'I' for Inactive)
REMARK    1  A    between atoms: C7_10  and  N3_11 
REMARK    2  A    between atoms: N3_11  and  C8_12 
REMARK    3  A    between atoms: C11_15  and  O2_16 
REMARK    4  A    between atoms: O2_16  and  C12_17 
REMARK    5  A    between atoms: C12_17  and  C13_18 
ROOT
HETATM    1  O1  UNL     1      25.954  11.458  48.094  1.00  0.00    -0.269 OA
HETATM    2  C1  UNL     1      26.019  10.185  48.002  1.00  0.00     0.241 C 
HETATM    3  C2  UNL     1      25.574   8.775  47.775  1.00  0.00     0.075 C 
HETATM    4  C3  UNL     1      26.462   7.845  47.918  1.00  0.00     0.023 C 
HETATM    5  C4  UNL     1      27.728   7.273  48.186  1.00  0.00     0.040 A 
HETATM    6  C5  UNL     1      28.966   7.847  48.218  1.00  0.00     0.064 A 
HETATM    7  C6  UNL     1      30.072   7.060  48.481  1.00  0.00     0.171 A 
HETATM    8  N1  UNL     1      29.894   5.734  48.703  1.00  0.00    -0.158 NA
HETATM    9  N2  UNL     1      28.717   5.165  48.680  1.00  0.00    -0.131 NA
HETATM   10  C7  UNL     1      27.649   5.925  48.424  1.00  0.00     0.163 A 
HETATM   11  N5  UNL     1      29.549   9.139  48.078  1.00  0.00    -0.368 N 
HETATM   12  C20 UNL     1      30.189   9.247  46.791  1.00  0.00     0.150 C 
HETATM   13  C21 UNL     1      31.463  10.046  46.777  1.00  0.00     0.187 C 
HETATM   14  O3  UNL     1      31.225  11.310  47.325  1.00  0.00    -0.387 OA
HETATM   15  C22 UNL     1      30.970  11.051  48.674  1.00  0.00     0.194 C 
HETATM   16  C23 UNL     1      29.694  10.348  48.909  1.00  0.00     0.126 C 
HETATM   17  C24 UNL     1      28.575  11.335  48.720  1.00  0.00     0.150 C 
HETATM   18  N6  UNL     1      27.317  10.728  48.363  1.00  0.00    -0.356 N 
HETATM   19  H23 UNL     1      27.647   9.746  48.376  1.00  0.00     0.162 HD
ENDROOT
BRANCH  10  20
HETATM   20  N3  UNL     1      26.455   5.161  48.420  1.00  0.00    -0.339 N 
HETATM   21  H4  UNL     1      25.737   5.160  47.668  1.00  0.00     0.167 HD
BRANCH  20  22
HETATM   22  C8  UNL     1      26.023   4.266  49.454  1.00  0.00     0.035 A 
HETATM   23  C9  UNL     1      26.659   3.028  49.609  1.00  0.00     0.032 A 
HETATM   24  C10 UNL     1      26.209   2.185  50.595  1.00  0.00     0.041 A 
HETATM   25  C11 UNL     1      25.190   2.464  51.431  1.00  0.00     0.091 A 
HETATM   26  C18 UNL     1      24.566   3.709  51.259  1.00  0.00     0.069 A 
HETATM   27 CL1  UNL     1      23.207   4.265  52.259  1.00  0.00    -0.081 Cl
HETATM   28  C19 UNL     1      24.953   4.637  50.282  1.00  0.00     0.056 A 
BRANCH  25  29
HETATM   29  O2  UNL     1      24.637   1.793  52.406  1.00  0.00    -0.344 OA
BRANCH  29  30
HETATM   30  C12 UNL     1      24.737   0.883  53.373  1.00  0.00     0.235 C 
BRANCH  30  31
HETATM   31  C13 UNL     1      23.479   0.153  53.684  1.00  0.00     0.058 A 
HETATM   32  C14 UNL     1      23.287  -0.914  54.523  1.00  0.00     0.029 A 
HETATM   33  C15 UNL     1      22.096  -1.526  54.784  1.00  0.00     0.003 A 
HETATM   34  C16 UNL     1      20.953  -1.066  54.170  1.00  0.00     0.019 A 
HETATM   35  C17 UNL     1      21.134  -0.002  53.333  1.00  0.00     0.117 A 
HETATM   36  N4  UNL     1      22.307   0.561  53.109  1.00  0.00    -0.263 NA
ENDBRANCH  30  31
ENDBRANCH  29  30
ENDBRANCH  25  29
ENDBRANCH  20  22
ENDBRANCH  10  20
TORSDOF 5
ENDMDL
MODEL 9
REMARK VINA RESULT:      -8.2      3.921     10.519
REMARK  5 active torsions:
REMARK  status: ('A' for Active; 'I' for Inactive)
REMARK    1  A    between atoms: C7_10  and  N3_11 
REMARK    2  A    between atoms: N3_11  and  C8_12 
REMARK    3  A    between atoms: C11_15  and  O2_16 
REMARK    4  A    between atoms: O2_16  and  C12_17 
REMARK    5  A    between atoms: C12_17  and  C13_18 
ROOT
HETATM    1  O1  UNL     1      20.913   4.024  45.565  1.00  0.00    -0.269 OA
HETATM    2  C1  UNL     1      21.061   4.213  46.821  1.00  0.00     0.241 C 
HETATM    3  C2  UNL     1      21.714   4.603  48.109  1.00  0.00     0.075 C 
HETATM    4  C3  UNL     1      21.026   4.444  49.192  1.00  0.00     0.023 C 
HETATM    5  C4  UNL     1      19.920   4.090  50.001  1.00  0.00     0.040 A 
HETATM    6  C5  UNL     1      18.615   3.877  49.667  1.00  0.00     0.064 A 
HETATM    7  C6  UNL     1      17.703   3.563  50.656  1.00  0.00     0.171 A 
HETATM    8  N1  UNL     1      18.134   3.473  51.939  1.00  0.00    -0.158 NA
HETATM    9  N2  UNL     1      19.381   3.669  52.281  1.00  0.00    -0.131 NA
HETATM   10  C7  UNL     1      20.261   3.975  51.324  1.00  0.00     0.163 A 
HETATM   11  N5  UNL     1      17.802   3.846  48.496  1.00  0.00    -0.368 N 
HETATM   12  C20 UNL     1      17.002   5.044  48.427  1.00  0.00     0.150 C 
HETATM   13  C21 UNL     1      15.616   4.854  47.875  1.00  0.00     0.187 C 
HETATM   14  O3  UNL     1      15.695   4.232  46.626  1.00  0.00    -0.387 OA
HETATM   15  C22 UNL     1      16.152   2.944  46.918  1.00  0.00     0.194 C 
HETATM   16  C23 UNL     1      17.550   2.907  47.389  1.00  0.00     0.126 C 
HETATM   17  C24 UNL     1      18.449   3.132  46.204  1.00  0.00     0.150 C 
HETATM   18  N6  UNL     1      19.741   3.671  46.547  1.00  0.00    -0.356 N 
HETATM   19  H23 UNL     1      19.592   3.704  47.572  1.00  0.00     0.162 HD
ENDROOT
BRANCH  10  20
HETATM   20  N3  UNL     1      21.561   4.170  51.855  1.00  0.00    -0.339 N 
HETATM   21  H4  UNL     1      22.027   5.088  51.998  1.00  0.00     0.167 HD
BRANCH  20  22
HETATM   22  C8  UNL     1      22.463   3.138  52.278  1.00  0.00     0.035 A 
HETATM   23  C9  UNL     1      23.791   3.462  52.584  1.00  0.00     0.032 A 
HETATM   24  C10 UNL     1      24.636   2.449  52.965  1.00  0.00     0.041 A 
HETATM   25  C11 UNL     1      24.277   1.154  53.066  1.00  0.00     0.091 A 
HETATM   26  C18 UNL     1      22.943   0.850  52.755  1.00  0.00     0.069 A 
HETATM   27 CL1  UNL     1      22.274  -0.794  52.828  1.00  0.00    -0.081 Cl
HETATM   28  C19 UNL     1      22.006   1.815  52.357  1.00  0.00     0.056 A 
BRANCH  25  29
HETATM   29  O2  UNL     1      24.936   0.078  53.406  1.00  0.00    -0.344 OA
BRANCH  29  30
HETATM   30  C12 UNL     1      25.720  -0.562  54.270  1.00  0.00     0.235 C 
BRANCH  30  31
HETATM   31  C13 UNL     1      27.180  -0.404  54.035  1.00  0.00     0.058 A 
HETATM   32  C14 UNL     1      27.976   0.689  54.261  1.00  0.00     0.029 A 
HETATM   33  C15 UNL     1      29.322   0.761  54.043  1.00  0.00     0.003 A 
HETATM   34  C16 UNL     1      29.984  -0.341  53.551  1.00  0.00     0.019 A 
HETATM   35  C17 UNL     1      29.200  -1.435  53.324  1.00  0.00     0.117 A 
HETATM   36  N4  UNL     1      27.899  -1.462  53.548  1.00  0.00    -0.263 NA
ENDBRANCH  30  31
ENDBRANCH  29  30
ENDBRANCH  25  29
ENDBRANCH  20  22
ENDBRANCH  10  20
TORSDOF 5
ENDMDL
