MODEL 1
REMARK VINA RESULT:      -9.1      0.000      0.000
REMARK  5 active torsions:
REMARK  status: ('A' for Active; 'I' for Inactive)
REMARK    1  A    between atoms: C6_9  and  C7_10 
REMARK    2  A    between atoms: C7_10  and  N4_11 
REMARK    3  A    between atoms: N4_11  and  C8_12 
REMARK    4  A    between atoms: C10_14  and  C11_15 
REMARK    5  A    between atoms: C11_15  and  N5_17 
ROOT
HETATM    1  N4  UNL     1      25.827   4.713  50.281  1.00  0.00    -0.376 N 
HETATM    2  H7  UNL     1      25.765   5.756  50.355  1.00  0.00     0.160 HD
ENDROOT
BRANCH   1   3
HETATM    3  C7  UNL     1      26.775   4.203  49.303  1.00  0.00     0.201 C 
BRANCH   3   4
HETATM    4  C6  UNL     1      27.542   5.293  48.648  1.00  0.00     0.145 A 
HETATM    5  N2  UNL     1      27.185   6.501  48.189  1.00  0.00    -0.216 N 
HETATM    6  N1  UNL     1      25.867   6.938  48.264  1.00  0.00    -0.161 NA
HETATM    7  C4  UNL     1      28.274   7.090  47.691  1.00  0.00     0.079 A 
HETATM    8  C3  UNL     1      25.629   8.161  48.029  1.00  0.00     0.136 C 
HETATM    9  C2  UNL     1      26.402   9.008  48.646  1.00  0.00     0.086 C 
HETATM   10  C1  UNL     1      26.135  10.478  48.452  1.00  0.00     0.075 C 
HETATM   11  N8  UNL     1      27.464   8.482  49.474  1.00  0.00    -0.153 NA
HETATM   12  N7  UNL     1      28.652   8.665  49.071  1.00  0.00    -0.162 NA
HETATM   13  C20 UNL     1      28.925   9.366  47.843  1.00  0.00     0.143 C 
HETATM   14  C19 UNL     1      28.672   8.336  47.057  1.00  0.00     0.054 C 
HETATM   15  C5  UNL     1      29.348   6.210  47.848  1.00  0.00     0.150 A 
HETATM   16  N3  UNL     1      28.870   5.081  48.454  1.00  0.00    -0.241 NA
ENDBRANCH   3   4
ENDBRANCH   1   3
BRANCH   1  17
HETATM   17  C8  UNL     1      25.136   3.647  50.977  1.00  0.00     0.090 A 
HETATM   18  C9  UNL     1      25.720   2.470  51.334  1.00  0.00     0.068 A 
HETATM   19  C10 UNL     1      24.889   1.584  51.984  1.00  0.00     0.078 A 
HETATM   20  N6  UNL     1      23.493   1.963  52.233  1.00  0.00    -0.212 NA
HETATM   21  S1  UNL     1      23.446   3.615  51.499  1.00  0.00     0.029 SA
BRANCH  19  22
HETATM   22  C11 UNL     1      25.140   0.242  52.534  1.00  0.00     0.271 C 
HETATM   23  C12 UNL     1      24.047  -0.077  53.497  1.00  0.00     0.050 C 
BRANCH  22  24
HETATM   24  N5  UNL     1      26.470   0.120  53.037  1.00  0.00     0.103 N 
HETATM   25  C13 UNL     1      26.980  -1.232  52.969  1.00  0.00     0.305 C 
HETATM   26  C14 UNL     1      28.470  -1.121  53.268  1.00  0.00     0.146 C 
HETATM   27  C15 UNL     1      29.130  -2.463  53.164  1.00  0.00     0.041 C 
HETATM   28  O1  UNL     1      28.674  -0.583  54.514  1.00  0.00    -0.378 OA
HETATM   29  C16 UNL     1      28.065   0.631  54.731  1.00  0.00     0.146 C 
HETATM   30  C17 UNL     1      28.616   1.743  53.828  1.00  0.00     0.041 C 
HETATM   31  C18 UNL     1      26.588   0.522  54.428  1.00  0.00     0.305 C 
ENDBRANCH  22  24
ENDBRANCH  19  22
ENDBRANCH   1  17
TORSDOF 5
ENDMDL
MODEL 2
REMARK VINA RESULT:      -8.7      2.811      4.544
REMARK  5 active torsions:
REMARK  status: ('A' for Active; 'I' for Inactive)
REMARK    1  A    between atoms: C6_9  and  C7_10 
REMARK    2  A    between atoms: C7_10  and  N4_11 
REMARK    3  A    between atoms: N4_11  and  C8_12 
REMARK    4  A    between atoms: C10_14  and  C11_15 
REMARK    5  A    between atoms: C11_15  and  N5_17 
ROOT
HETATM    1  N4  UNL     1      28.316   4.890  48.287  1.00  0.00    -0.376 N 
HETATM    2  H7  UNL     1      28.900   4.179  47.786  1.00  0.00     0.160 HD
ENDROOT
BRANCH   1   3
HETATM    3  C7  UNL     1      28.766   6.269  48.182  1.00  0.00     0.201 C 
BRANCH   3   4
HETATM    4  C6  UNL     1      30.217   6.405  48.466  1.00  0.00     0.145 A 
HETATM    5  N2  UNL     1      31.269   5.616  48.200  1.00  0.00    -0.216 N 
HETATM    6  N1  UNL     1      31.108   4.397  47.550  1.00  0.00    -0.161 NA
HETATM    7  C4  UNL     1      32.364   6.215  48.673  1.00  0.00     0.079 A 
HETATM    8  C3  UNL     1      32.145   3.807  47.123  1.00  0.00     0.136 C 
HETATM    9  C2  UNL     1      32.974   4.550  46.449  1.00  0.00     0.086 C 
HETATM   10  C1  UNL     1      34.200   3.895  45.868  1.00  0.00     0.075 C 
HETATM   11  N8  UNL     1      32.664   5.955  46.304  1.00  0.00    -0.153 NA
HETATM   12  N7  UNL     1      33.415   6.776  46.910  1.00  0.00    -0.162 NA
HETATM   13  C20 UNL     1      34.527   6.323  47.708  1.00  0.00     0.143 C 
HETATM   14  C19 UNL     1      33.798   6.002  48.760  1.00  0.00     0.054 C 
HETATM   15  C5  UNL     1      31.972   7.424  49.257  1.00  0.00     0.150 A 
HETATM   16  N3  UNL     1      30.616   7.528  49.117  1.00  0.00    -0.241 NA
ENDBRANCH   3   4
ENDBRANCH   1   3
BRANCH   1  17
HETATM   17  C8  UNL     1      27.115   4.770  49.088  1.00  0.00     0.090 A 
HETATM   18  C9  UNL     1      26.801   3.668  49.825  1.00  0.00     0.068 A 
HETATM   19  C10 UNL     1      25.610   3.750  50.512  1.00  0.00     0.078 A 
HETATM   20  N6  UNL     1      24.803   4.970  50.403  1.00  0.00    -0.212 NA
HETATM   21  S1  UNL     1      25.824   5.963  49.288  1.00  0.00     0.029 SA
BRANCH  19  22
HETATM   22  C11 UNL     1      24.941   2.797  51.413  1.00  0.00     0.271 C 
HETATM   23  C12 UNL     1      23.954   3.551  52.237  1.00  0.00     0.050 C 
BRANCH  22  24
HETATM   24  N5  UNL     1      25.884   2.007  52.138  1.00  0.00     0.103 N 
HETATM   25  C13 UNL     1      25.642   0.586  52.021  1.00  0.00     0.305 C 
HETATM   26  C14 UNL     1      26.880  -0.088  52.600  1.00  0.00     0.146 C 
HETATM   27  C15 UNL     1      26.775  -1.579  52.478  1.00  0.00     0.041 C 
HETATM   28  O1  UNL     1      27.056   0.273  53.913  1.00  0.00    -0.378 OA
HETATM   29  C16 UNL     1      27.115   1.628  54.142  1.00  0.00     0.146 C 
HETATM   30  C17 UNL     1      28.330   2.291  53.480  1.00  0.00     0.041 C 
HETATM   31  C18 UNL     1      25.889   2.297  53.561  1.00  0.00     0.305 C 
ENDBRANCH  22  24
ENDBRANCH  19  22
ENDBRANCH   1  17
TORSDOF 5
ENDMDL
MODEL 3
REMARK VINA RESULT:      -8.6      2.009      3.335
REMARK  5 active torsions:
REMARK  status: ('A' for Active; 'I' for Inactive)
REMARK    1  A    between atoms: C6_9  and  C7_10 
REMARK    2  A    between atoms: C7_10  and  N4_11 
REMARK    3  A    between atoms: N4_11  and  C8_12 
REMARK    4  A    between atoms: C10_14  and  C11_15 
REMARK    5  A    between atoms: C11_15  and  N5_17 
ROOT
HETATM    1  N4  UNL     1      27.622   4.638  49.002  1.00  0.00    -0.376 N 
HETATM    2  H7  UNL     1      28.591   4.260  48.872  1.00  0.00     0.160 HD
ENDROOT
BRANCH   1   3
HETATM    3  C7  UNL     1      27.380   5.962  48.452  1.00  0.00     0.201 C 
BRANCH   3   4
HETATM    4  C6  UNL     1      28.561   6.850  48.594  1.00  0.00     0.145 A 
HETATM    5  N2  UNL     1      29.880   6.621  48.513  1.00  0.00    -0.216 N 
HETATM    6  N1  UNL     1      30.375   5.345  48.267  1.00  0.00    -0.161 NA
HETATM    7  C4  UNL     1      30.513   7.778  48.719  1.00  0.00     0.079 A 
HETATM    8  C3  UNL     1      31.603   5.227  47.974  1.00  0.00     0.136 C 
HETATM    9  C2  UNL     1      32.040   6.044  47.059  1.00  0.00     0.086 C 
HETATM   10  C1  UNL     1      33.477   5.917  46.628  1.00  0.00     0.075 C 
HETATM   11  N8  UNL     1      31.118   7.019  46.521  1.00  0.00    -0.153 NA
HETATM   12  N7  UNL     1      31.333   8.234  46.809  1.00  0.00    -0.162 NA
HETATM   13  C20 UNL     1      32.447   8.620  47.636  1.00  0.00     0.143 C 
HETATM   14  C19 UNL     1      31.863   8.312  48.778  1.00  0.00     0.054 C 
HETATM   15  C5  UNL     1      29.544   8.763  48.938  1.00  0.00     0.150 A 
HETATM   16  N3  UNL     1      28.319   8.161  48.856  1.00  0.00    -0.241 NA
ENDBRANCH   3   4
ENDBRANCH   1   3
BRANCH   1  17
HETATM   17  C8  UNL     1      26.443   4.088  49.639  1.00  0.00     0.090 A 
HETATM   18  C9  UNL     1      26.471   3.057  50.528  1.00  0.00     0.068 A 
HETATM   19  C10 UNL     1      25.240   2.679  51.017  1.00  0.00     0.078 A 
HETATM   20  N6  UNL     1      24.040   3.388  50.560  1.00  0.00    -0.212 NA
HETATM   21  S1  UNL     1      24.762   4.594  49.421  1.00  0.00     0.029 SA
BRANCH  19  22
HETATM   22  C11 UNL     1      24.858   1.641  51.988  1.00  0.00     0.271 C 
HETATM   23  C12 UNL     1      23.917   2.249  52.972  1.00  0.00     0.050 C 
BRANCH  22  24
HETATM   24  N5  UNL     1      26.001   0.988  52.539  1.00  0.00     0.103 N 
HETATM   25  C13 UNL     1      25.935  -0.453  52.440  1.00  0.00     0.305 C 
HETATM   26  C14 UNL     1      27.329  -0.952  52.802  1.00  0.00     0.146 C 
HETATM   27  C15 UNL     1      27.405  -2.444  52.675  1.00  0.00     0.041 C 
HETATM   28  O1  UNL     1      27.665  -0.563  54.075  1.00  0.00    -0.378 OA
HETATM   29  C16 UNL     1      27.579   0.789  54.313  1.00  0.00     0.146 C 
HETATM   30  C17 UNL     1      28.573   1.605  53.475  1.00  0.00     0.041 C 
HETATM   31  C18 UNL     1      26.198   1.284  53.947  1.00  0.00     0.305 C 
ENDBRANCH  22  24
ENDBRANCH  19  22
ENDBRANCH   1  17
TORSDOF 5
ENDMDL
MODEL 4
REMARK VINA RESULT:      -8.5      1.221      2.207
REMARK  5 active torsions:
REMARK  status: ('A' for Active; 'I' for Inactive)
REMARK    1  A    between atoms: C6_9  and  C7_10 
REMARK    2  A    between atoms: C7_10  and  N4_11 
REMARK    3  A    between atoms: N4_11  and  C8_12 
REMARK    4  A    between atoms: C10_14  and  C11_15 
REMARK    5  A    between atoms: C11_15  and  N5_17 
ROOT
HETATM    1  N4  UNL     1      26.731   4.641  49.574  1.00  0.00    -0.376 N 
HETATM    2  H7  UNL     1      27.741   4.576  49.304  1.00  0.00     0.160 HD
ENDROOT
BRANCH   1   3
HETATM    3  C7  UNL     1      26.018   5.809  49.084  1.00  0.00     0.201 C 
BRANCH   3   4
HETATM    4  C6  UNL     1      26.828   7.048  49.204  1.00  0.00     0.145 A 
HETATM    5  N2  UNL     1      28.009   7.410  48.683  1.00  0.00    -0.216 N 
HETATM    6  N1  UNL     1      28.730   6.547  47.864  1.00  0.00    -0.161 NA
HETATM    7  C4  UNL     1      28.286   8.645  49.109  1.00  0.00     0.079 A 
HETATM    8  C3  UNL     1      29.714   7.019  47.220  1.00  0.00     0.136 C 
HETATM    9  C2  UNL     1      29.484   8.129  46.581  1.00  0.00     0.086 C 
HETATM   10  C1  UNL     1      30.598   8.711  45.751  1.00  0.00     0.075 C 
HETATM   11  N8  UNL     1      28.175   8.730  46.711  1.00  0.00    -0.153 NA
HETATM   12  N7  UNL     1      28.105   9.823  47.347  1.00  0.00    -0.162 NA
HETATM   13  C20 UNL     1      29.279  10.435  47.913  1.00  0.00     0.143 C 
HETATM   14  C19 UNL     1      29.317   9.660  48.980  1.00  0.00     0.054 C 
HETATM   15  C5  UNL     1      27.233   9.061  49.930  1.00  0.00     0.150 A 
HETATM   16  N3  UNL     1      26.322   8.043  49.979  1.00  0.00    -0.241 NA
ENDBRANCH   3   4
ENDBRANCH   1   3
BRANCH   1  17
HETATM   17  C8  UNL     1      25.879   3.773  50.362  1.00  0.00     0.090 A 
HETATM   18  C9  UNL     1      26.278   2.575  50.871  1.00  0.00     0.068 A 
HETATM   19  C10 UNL     1      25.315   1.899  51.588  1.00  0.00     0.078 A 
HETATM   20  N6  UNL     1      23.985   2.500  51.743  1.00  0.00    -0.212 NA
HETATM   21  S1  UNL     1      24.193   4.045  50.825  1.00  0.00     0.029 SA
BRANCH  19  22
HETATM   22  C11 UNL     1      25.357   0.609  52.295  1.00  0.00     0.271 C 
HETATM   23  C12 UNL     1      24.187   0.546  53.217  1.00  0.00     0.050 C 
BRANCH  22  24
HETATM   24  N5  UNL     1      26.633   0.377  52.891  1.00  0.00     0.103 N 
HETATM   25  C13 UNL     1      27.044  -1.009  52.831  1.00  0.00     0.305 C 
HETATM   26  C14 UNL     1      28.512  -1.018  53.239  1.00  0.00     0.146 C 
HETATM   27  C15 UNL     1      29.074  -2.406  53.155  1.00  0.00     0.041 C 
HETATM   28  O1  UNL     1      28.664  -0.517  54.508  1.00  0.00    -0.378 OA
HETATM   29  C16 UNL     1      28.134   0.738  54.706  1.00  0.00     0.146 C 
HETATM   30  C17 UNL     1      28.833   1.817  53.868  1.00  0.00     0.041 C 
HETATM   31  C18 UNL     1      26.679   0.747  54.294  1.00  0.00     0.305 C 
ENDBRANCH  22  24
ENDBRANCH  19  22
ENDBRANCH   1  17
TORSDOF 5
ENDMDL
MODEL 5
REMARK VINA RESULT:      -8.3      2.876      8.317
REMARK  5 active torsions:
REMARK  status: ('A' for Active; 'I' for Inactive)
REMARK    1  A    between atoms: C6_9  and  C7_10 
REMARK    2  A    between atoms: C7_10  and  N4_11 
REMARK    3  A    between atoms: N4_11  and  C8_12 
REMARK    4  A    between atoms: C10_14  and  C11_15 
REMARK    5  A    between atoms: C11_15  and  N5_17 
ROOT
HETATM    1  N4  UNL     1      23.316   2.382  50.445  1.00  0.00    -0.376 N 
HETATM    2  H7  UNL     1      23.838   1.710  49.834  1.00  0.00     0.160 HD
ENDROOT
BRANCH   1   3
HETATM    3  C7  UNL     1      22.875   1.861  51.728  1.00  0.00     0.201 C 
BRANCH   3   4
HETATM    4  C6  UNL     1      23.907   1.007  52.368  1.00  0.00     0.145 A 
HETATM    5  N2  UNL     1      25.245   1.080  52.407  1.00  0.00    -0.216 N 
HETATM    6  N1  UNL     1      25.929   2.097  51.748  1.00  0.00    -0.161 NA
HETATM    7  C4  UNL     1      25.693   0.053  53.131  1.00  0.00     0.079 A 
HETATM    8  C3  UNL     1      27.161   2.251  52.005  1.00  0.00     0.136 C 
HETATM    9  C2  UNL     1      27.470   2.271  53.269  1.00  0.00     0.086 C 
HETATM   10  C1  UNL     1      28.911   2.506  53.640  1.00  0.00     0.075 C 
HETATM   11  N8  UNL     1      26.411   2.064  54.232  1.00  0.00    -0.153 NA
HETATM   12  N7  UNL     1      26.438   0.984  54.893  1.00  0.00    -0.162 NA
HETATM   13  C20 UNL     1      27.479   0.009  54.691  1.00  0.00     0.143 C 
HETATM   14  C19 UNL     1      26.947  -0.512  53.602  1.00  0.00     0.054 C 
HETATM   15  C5  UNL     1      24.586  -0.688  53.556  1.00  0.00     0.150 A 
HETATM   16  N3  UNL     1      23.467  -0.072  53.067  1.00  0.00    -0.241 NA
ENDBRANCH   3   4
ENDBRANCH   1   3
BRANCH   1  17
HETATM   17  C8  UNL     1      22.936   3.768  50.259  1.00  0.00     0.090 A 
HETATM   18  C9  UNL     1      23.782   4.819  50.441  1.00  0.00     0.068 A 
HETATM   19  C10 UNL     1      23.224   6.058  50.220  1.00  0.00     0.078 A 
HETATM   20  N6  UNL     1      21.815   6.148  49.821  1.00  0.00    -0.212 NA
HETATM   21  S1  UNL     1      21.353   4.399  49.784  1.00  0.00     0.029 SA
BRANCH  19  22
HETATM   22  C11 UNL     1      23.801   7.410  50.293  1.00  0.00     0.271 C 
HETATM   23  C12 UNL     1      22.826   8.365  49.692  1.00  0.00     0.050 C 
BRANCH  22  24
HETATM   24  N5  UNL     1      25.123   7.449  49.757  1.00  0.00     0.103 N 
HETATM   25  C13 UNL     1      25.800   8.702  50.006  1.00  0.00     0.305 C 
HETATM   26  C14 UNL     1      27.257   8.460  49.629  1.00  0.00     0.146 C 
HETATM   27  C15 UNL     1      28.083   9.681  49.905  1.00  0.00     0.041 C 
HETATM   28  O1  UNL     1      27.361   8.101  48.308  1.00  0.00    -0.378 OA
HETATM   29  C16 UNL     1      26.600   7.018  47.937  1.00  0.00     0.146 C 
HETATM   30  C17 UNL     1      27.029   5.722  48.638  1.00  0.00     0.041 C 
HETATM   31  C18 UNL     1      25.155   7.256  48.318  1.00  0.00     0.305 C 
ENDBRANCH  22  24
ENDBRANCH  19  22
ENDBRANCH   1  17
TORSDOF 5
ENDMDL
MODEL 6
REMARK VINA RESULT:      -8.2      3.436      8.557
REMARK  5 active torsions:
REMARK  status: ('A' for Active; 'I' for Inactive)
REMARK    1  A    between atoms: C6_9  and  C7_10 
REMARK    2  A    between atoms: C7_10  and  N4_11 
REMARK    3  A    between atoms: N4_11  and  C8_12 
REMARK    4  A    between atoms: C10_14  and  C11_15 
REMARK    5  A    between atoms: C11_15  and  N5_17 
ROOT
HETATM    1  N4  UNL     1      27.283   4.654  49.027  1.00  0.00    -0.376 N 
HETATM    2  H7  UNL     1      27.527   3.645  49.175  1.00  0.00     0.160 HD
ENDROOT
BRANCH   1   3
HETATM    3  C7  UNL     1      25.972   5.065  49.504  1.00  0.00     0.201 C 
BRANCH   3   4
HETATM    4  C6  UNL     1      25.203   3.929  50.072  1.00  0.00     0.145 A 
HETATM    5  N2  UNL     1      25.556   2.902  50.858  1.00  0.00    -0.216 N 
HETATM    6  N1  UNL     1      26.869   2.740  51.286  1.00  0.00    -0.161 NA
HETATM    7  C4  UNL     1      24.467   2.162  51.081  1.00  0.00     0.079 A 
HETATM    8  C3  UNL     1      27.099   1.895  52.203  1.00  0.00     0.136 C 
HETATM    9  C2  UNL     1      26.313   1.967  53.238  1.00  0.00     0.086 C 
HETATM   10  C1  UNL     1      26.569   1.026  54.386  1.00  0.00     0.075 C 
HETATM   11  N8  UNL     1      25.246   2.942  53.216  1.00  0.00    -0.153 NA
HETATM   12  N7  UNL     1      24.061   2.498  53.143  1.00  0.00    -0.162 NA
HETATM   13  C20 UNL     1      23.796   1.083  53.084  1.00  0.00     0.143 C 
HETATM   14  C19 UNL     1      24.066   0.963  51.798  1.00  0.00     0.054 C 
HETATM   15  C5  UNL     1      23.399   2.756  50.403  1.00  0.00     0.150 A 
HETATM   16  N3  UNL     1      23.880   3.870  49.772  1.00  0.00    -0.241 NA
ENDBRANCH   3   4
ENDBRANCH   1   3
BRANCH   1  17
HETATM   17  C8  UNL     1      28.012   5.751  48.424  1.00  0.00     0.090 A 
HETATM   18  C9  UNL     1      29.318   5.676  48.044  1.00  0.00     0.068 A 
HETATM   19  C10 UNL     1      29.829   6.832  47.495  1.00  0.00     0.078 A 
HETATM   20  N6  UNL     1      28.961   8.008  47.367  1.00  0.00    -0.212 NA
HETATM   21  S1  UNL     1      27.415   7.376  48.061  1.00  0.00     0.029 SA
BRANCH  19  22
HETATM   22  C11 UNL     1      31.163   7.144  46.957  1.00  0.00     0.271 C 
HETATM   23  C12 UNL     1      30.996   7.638  45.560  1.00  0.00     0.050 C 
BRANCH  22  24
HETATM   24  N5  UNL     1      32.068   6.055  47.129  1.00  0.00     0.103 N 
HETATM   25  C13 UNL     1      33.257   6.417  47.871  1.00  0.00     0.305 C 
HETATM   26  C14 UNL     1      33.949   5.099  48.200  1.00  0.00     0.146 C 
HETATM   27  C15 UNL     1      35.175   5.341  49.029  1.00  0.00     0.041 C 
HETATM   28  O1  UNL     1      34.276   4.425  47.050  1.00  0.00    -0.378 OA
HETATM   29  C16 UNL     1      33.226   4.195  46.191  1.00  0.00     0.146 C 
HETATM   30  C17 UNL     1      32.158   3.272  46.790  1.00  0.00     0.041 C 
HETATM   31  C18 UNL     1      32.535   5.503  45.870  1.00  0.00     0.305 C 
ENDBRANCH  22  24
ENDBRANCH  19  22
ENDBRANCH   1  17
TORSDOF 5
ENDMDL
MODEL 7
REMARK VINA RESULT:      -8.0      1.905      2.743
REMARK  5 active torsions:
REMARK  status: ('A' for Active; 'I' for Inactive)
REMARK    1  A    between atoms: C6_9  and  C7_10 
REMARK    2  A    between atoms: C7_10  and  N4_11 
REMARK    3  A    between atoms: N4_11  and  C8_12 
REMARK    4  A    between atoms: C10_14  and  C11_15 
REMARK    5  A    between atoms: C11_15  and  N5_17 
ROOT
HETATM    1  N4  UNL     1      27.050   5.658  48.513  1.00  0.00    -0.376 N 
HETATM    2  H7  UNL     1      27.028   6.382  47.756  1.00  0.00     0.160 HD
ENDROOT
BRANCH   1   3
HETATM    3  C7  UNL     1      28.298   4.924  48.651  1.00  0.00     0.201 C 
BRANCH   3   4
HETATM    4  C6  UNL     1      29.454   5.681  48.107  1.00  0.00     0.145 A 
HETATM    5  N2  UNL     1      29.680   6.993  47.944  1.00  0.00    -0.216 N 
HETATM    6  N1  UNL     1      28.724   7.938  48.300  1.00  0.00    -0.161 NA
HETATM    7  C4  UNL     1      30.894   7.138  47.409  1.00  0.00     0.079 A 
HETATM    8  C3  UNL     1      29.074   9.155  48.341  1.00  0.00     0.136 C 
HETATM    9  C2  UNL     1      30.180   9.397  48.983  1.00  0.00     0.086 C 
HETATM   10  C1  UNL     1      30.621  10.831  49.115  1.00  0.00     0.075 C 
HETATM   11  N8  UNL     1      30.911   8.274  49.526  1.00  0.00    -0.153 NA
HETATM   12  N7  UNL     1      32.027   8.001  48.991  1.00  0.00    -0.162 NA
HETATM   13  C20 UNL     1      32.538   8.778  47.891  1.00  0.00     0.143 C 
HETATM   14  C19 UNL     1      31.798   8.188  46.972  1.00  0.00     0.054 C 
HETATM   15  C5  UNL     1      31.440   5.862  47.232  1.00  0.00     0.150 A 
HETATM   16  N3  UNL     1      30.519   4.955  47.678  1.00  0.00    -0.241 NA
ENDBRANCH   3   4
ENDBRANCH   1   3
BRANCH   1  17
HETATM   17  C8  UNL     1      26.056   5.229  49.476  1.00  0.00     0.090 A 
HETATM   18  C9  UNL     1      25.919   3.944  49.904  1.00  0.00     0.068 A 
HETATM   19  C10 UNL     1      24.909   3.742  50.818  1.00  0.00     0.078 A 
HETATM   20  N6  UNL     1      24.090   4.883  51.244  1.00  0.00    -0.212 NA
HETATM   21  S1  UNL     1      24.834   6.222  50.282  1.00  0.00     0.029 SA
BRANCH  19  22
HETATM   22  C11 UNL     1      24.461   2.527  51.518  1.00  0.00     0.271 C 
HETATM   23  C12 UNL     1      23.321   2.895  52.405  1.00  0.00     0.050 C 
BRANCH  22  24
HETATM   24  N5  UNL     1      25.549   1.852  52.150  1.00  0.00     0.103 N 
HETATM   25  C13 UNL     1      25.406   0.413  52.140  1.00  0.00     0.305 C 
HETATM   26  C14 UNL     1      26.758  -0.135  52.582  1.00  0.00     0.146 C 
HETATM   27  C15 UNL     1      26.755  -1.634  52.552  1.00  0.00     0.041 C 
HETATM   28  O1  UNL     1      27.075   0.318  53.839  1.00  0.00    -0.378 OA
HETATM   29  C16 UNL     1      27.057   1.685  53.987  1.00  0.00     0.146 C 
HETATM   30  C17 UNL     1      28.120   2.390  53.134  1.00  0.00     0.041 C 
HETATM   31  C18 UNL     1      25.717   2.228  53.542  1.00  0.00     0.305 C 
ENDBRANCH  22  24
ENDBRANCH  19  22
ENDBRANCH   1  17
TORSDOF 5
ENDMDL
MODEL 8
REMARK VINA RESULT:      -8.0      2.660      8.537
REMARK  5 active torsions:
REMARK  status: ('A' for Active; 'I' for Inactive)
REMARK    1  A    between atoms: C6_9  and  C7_10 
REMARK    2  A    between atoms: C7_10  and  N4_11 
REMARK    3  A    between atoms: N4_11  and  C8_12 
REMARK    4  A    between atoms: C10_14  and  C11_15 
REMARK    5  A    between atoms: C11_15  and  N5_17 
ROOT
HETATM    1  N4  UNL     1      24.549   3.811  50.115  1.00  0.00    -0.376 N 
HETATM    2  H7  UNL     1      23.758   3.132  50.006  1.00  0.00     0.160 HD
ENDROOT
BRANCH   1   3
HETATM    3  C7  UNL     1      25.883   3.234  50.132  1.00  0.00     0.201 C 
BRANCH   3   4
HETATM    4  C6  UNL     1      26.211   2.626  51.446  1.00  0.00     0.145 A 
HETATM    5  N2  UNL     1      25.449   2.084  52.408  1.00  0.00    -0.216 N 
HETATM    6  N1  UNL     1      24.065   2.030  52.284  1.00  0.00    -0.161 NA
HETATM    7  C4  UNL     1      26.254   1.678  53.392  1.00  0.00     0.079 A 
HETATM    8  C3  UNL     1      23.420   1.309  53.104  1.00  0.00     0.136 C 
HETATM    9  C2  UNL     1      23.886   0.106  53.277  1.00  0.00     0.086 C 
HETATM   10  C1  UNL     1      23.132  -0.818  54.197  1.00  0.00     0.075 C 
HETATM   11  N8  UNL     1      25.096  -0.262  52.577  1.00  0.00    -0.153 NA
HETATM   12  N7  UNL     1      26.135  -0.443  53.279  1.00  0.00    -0.162 NA
HETATM   13  C20 UNL     1      26.106  -0.287  54.710  1.00  0.00     0.143 C 
HETATM   14  C19 UNL     1      26.183   1.030  54.690  1.00  0.00     0.054 C 
HETATM   15  C5  UNL     1      27.568   1.984  53.024  1.00  0.00     0.150 A 
HETATM   16  N3  UNL     1      27.523   2.581  51.795  1.00  0.00    -0.241 NA
ENDBRANCH   3   4
ENDBRANCH   1   3
BRANCH   1  17
HETATM   17  C8  UNL     1      24.577   5.253  50.256  1.00  0.00     0.090 A 
HETATM   18  C9  UNL     1      25.635   6.031  49.893  1.00  0.00     0.068 A 
HETATM   19  C10 UNL     1      25.465   7.380  50.114  1.00  0.00     0.078 A 
HETATM   20  N6  UNL     1      24.207   7.857  50.700  1.00  0.00    -0.212 NA
HETATM   21  S1  UNL     1      23.310   6.300  50.909  1.00  0.00     0.029 SA
BRANCH  19  22
HETATM   22  C11 UNL     1      26.349   8.526  49.848  1.00  0.00     0.271 C 
HETATM   23  C12 UNL     1      25.567   9.553  49.101  1.00  0.00     0.050 C 
BRANCH  22  24
HETATM   24  N5  UNL     1      27.575   8.116  49.244  1.00  0.00     0.103 N 
HETATM   25  C13 UNL     1      28.637   9.086  49.401  1.00  0.00     0.305 C 
HETATM   26  C14 UNL     1      29.910   8.372  48.963  1.00  0.00     0.146 C 
HETATM   27  C15 UNL     1      31.103   9.263  49.141  1.00  0.00     0.041 C 
HETATM   28  O1  UNL     1      29.809   7.963  47.656  1.00  0.00    -0.378 OA
HETATM   29  C16 UNL     1      28.716   7.178  47.374  1.00  0.00     0.146 C 
HETATM   30  C17 UNL     1      28.744   5.832  48.111  1.00  0.00     0.041 C 
HETATM   31  C18 UNL     1      27.453   7.885  47.816  1.00  0.00     0.305 C 
ENDBRANCH  22  24
ENDBRANCH  19  22
ENDBRANCH   1  17
TORSDOF 5
ENDMDL
MODEL 9
REMARK VINA RESULT:      -7.9      3.465      5.788
REMARK  5 active torsions:
REMARK  status: ('A' for Active; 'I' for Inactive)
REMARK    1  A    between atoms: C6_9  and  C7_10 
REMARK    2  A    between atoms: C7_10  and  N4_11 
REMARK    3  A    between atoms: N4_11  and  C8_12 
REMARK    4  A    between atoms: C10_14  and  C11_15 
REMARK    5  A    between atoms: C11_15  and  N5_17 
ROOT
HETATM    1  N4  UNL     1      28.246   6.569  48.902  1.00  0.00    -0.376 N 
HETATM    2  H7  UNL     1      28.700   7.386  49.375  1.00  0.00     0.160 HD
ENDROOT
BRANCH   1   3
HETATM    3  C7  UNL     1      29.133   5.704  48.141  1.00  0.00     0.201 C 
BRANCH   3   4
HETATM    4  C6  UNL     1      30.563   5.969  48.439  1.00  0.00     0.145 A 
HETATM    5  N2  UNL     1      31.675   5.243  48.254  1.00  0.00    -0.216 N 
HETATM    6  N1  UNL     1      31.620   3.971  47.696  1.00  0.00    -0.161 NA
HETATM    7  C4  UNL     1      32.711   5.957  48.699  1.00  0.00     0.079 A 
HETATM    8  C3  UNL     1      32.707   3.430  47.334  1.00  0.00     0.136 C 
HETATM    9  C2  UNL     1      33.495   4.181  46.619  1.00  0.00     0.086 C 
HETATM   10  C1  UNL     1      34.778   3.577  46.112  1.00  0.00     0.075 C 
HETATM   11  N8  UNL     1      33.086   5.544  46.362  1.00  0.00    -0.153 NA
HETATM   12  N7  UNL     1      33.760   6.461  46.917  1.00  0.00    -0.162 NA
HETATM   13  C20 UNL     1      34.883   6.154  47.767  1.00  0.00     0.143 C 
HETATM   14  C19 UNL     1      34.156   5.860  48.827  1.00  0.00     0.054 C 
HETATM   15  C5  UNL     1      32.218   7.174  49.182  1.00  0.00     0.150 A 
HETATM   16  N3  UNL     1      30.862   7.165  49.010  1.00  0.00    -0.241 NA
ENDBRANCH   3   4
ENDBRANCH   1   3
BRANCH   1  17
HETATM   17  C8  UNL     1      26.870   6.117  48.854  1.00  0.00     0.090 A 
HETATM   18  C9  UNL     1      26.480   4.843  49.135  1.00  0.00     0.068 A 
HETATM   19  C10 UNL     1      25.126   4.614  49.026  1.00  0.00     0.078 A 
HETATM   20  N6  UNL     1      24.243   5.718  48.630  1.00  0.00    -0.212 NA
HETATM   21  S1  UNL     1      25.436   7.062  48.430  1.00  0.00     0.029 SA
BRANCH  19  22
HETATM   22  C11 UNL     1      24.324   3.402  49.257  1.00  0.00     0.271 C 
HETATM   23  C12 UNL     1      23.163   3.426  48.322  1.00  0.00     0.050 C 
BRANCH  22  24
HETATM   24  N5  UNL     1      24.007   3.236  50.639  1.00  0.00     0.103 N 
HETATM   25  C13 UNL     1      25.055   2.579  51.387  1.00  0.00     0.305 C 
HETATM   26  C14 UNL     1      24.677   2.746  52.854  1.00  0.00     0.146 C 
HETATM   27  C15 UNL     1      25.731   2.153  53.741  1.00  0.00     0.041 C 
HETATM   28  O1  UNL     1      23.458   2.168  53.108  1.00  0.00    -0.378 OA
HETATM   29  C16 UNL     1      22.428   2.608  52.309  1.00  0.00     0.146 C 
HETATM   30  C17 UNL     1      22.107   4.094  52.517  1.00  0.00     0.041 C 
HETATM   31  C18 UNL     1      22.807   2.447  50.854  1.00  0.00     0.305 C 
ENDBRANCH  22  24
ENDBRANCH  19  22
ENDBRANCH   1  17
TORSDOF 5
ENDMDL
