MODEL 1
REMARK VINA RESULT:      -8.4      0.000      0.000
REMARK  4 active torsions:
REMARK  status: ('A' for Active; 'I' for Inactive)
REMARK    1  A    between atoms: C2_2  and  C3_3 
REMARK       I    between atoms: C3_3  and  N1_5 
REMARK    2  A    between atoms: N1_5  and  C4_6 
REMARK    3  A    between atoms: C13_16  and  N3_17 
REMARK    4  A    between atoms: C15_19  and  C16_20 
ROOT
HETATM    1  C4  UNL     1      24.662   0.038  53.318  1.00  0.00     0.035 A 
HETATM    2  C5  UNL     1      24.404   1.084  52.457  1.00  0.00     0.032 A 
HETATM    3  C6  UNL     1      23.148   1.508  52.159  1.00  0.00     0.040 A 
HETATM    4  C7  UNL     1      22.061   0.901  52.711  1.00  0.00     0.086 A 
HETATM    5  C8  UNL     1      22.224  -0.170  53.598  1.00  0.00    -0.004 A 
HETATM    6  C9  UNL     1      23.547  -0.531  53.841  1.00  0.00     0.041 A 
HETATM    7  C10 UNL     1      21.266  -1.002  54.336  1.00  0.00     0.161 C 
HETATM    8  N2  UNL     1      20.009  -1.217  53.695  1.00  0.00    -0.382 N 
HETATM    9  C11 UNL     1      19.198  -0.355  52.908  1.00  0.00     0.081 C 
HETATM   10  C12 UNL     1      18.030  -0.899  53.133  1.00  0.00     0.048 C 
HETATM   11  C13 UNL     1      16.604  -0.689  52.741  1.00  0.00     0.294 C 
HETATM   12  C14 UNL     1      16.432  -0.439  51.297  1.00  0.00     0.072 C 
HETATM   13  C15 UNL     1      15.731  -1.331  50.625  1.00  0.00     0.028 C 
HETATM   14  N4  UNL     1      16.868   0.591  50.429  1.00  0.00    -0.244 NA
HETATM   15  C18 UNL     1      17.943   1.338  50.353  1.00  0.00     0.236 C 
HETATM   16  N5  UNL     1      19.167   1.457  51.110  1.00  0.00    -0.216 NA
HETATM   17  C19 UNL     1      19.648   0.780  52.115  1.00  0.00     0.197 C 
HETATM   18  O2  UNL     1      20.845   1.470  52.290  1.00  0.00    -0.290 OA
HETATM   19  H10 UNL     1      19.577  -2.179  53.809  1.00  0.00     0.160 HD
ENDROOT
BRANCH   1  20
HETATM   20  N1  UNL     1      26.001  -0.323  53.561  1.00  0.00    -0.324 N 
HETATM   21  C3  UNL     1      26.999   0.284  54.362  1.00  0.00     0.244 C 
HETATM   22  O1  UNL     1      26.672   1.328  54.979  1.00  0.00    -0.268 OA
HETATM   23  H4  UNL     1      26.381  -1.195  53.086  1.00  0.00     0.169 HD
BRANCH  21  24
HETATM   24  C2  UNL     1      28.350  -0.233  54.499  1.00  0.00     0.064 C 
HETATM   25  C1  UNL     1      28.993  -0.799  53.511  1.00  0.00     0.017 C 
ENDBRANCH  21  24
ENDBRANCH   1  20
BRANCH  11  26
HETATM   26  N3  UNL     1      15.835  -1.852  53.124  1.00  0.00     0.092 N 
HETATM   27  H13 UNL     1      15.687  -1.910  54.161  1.00  0.00     0.314 HD
HETATM   28  H14 UNL     1      16.234  -2.733  52.711  1.00  0.00     0.314 HD
ENDBRANCH  11  26
BRANCH  13  29
HETATM   29  C16 UNL     1      15.031  -2.558  50.873  1.00  0.00     0.014 C 
HETATM   30  C17 UNL     1      14.392  -3.524  50.237  1.00  0.00     0.441 C 
HETATM   31  F1  UNL     1      14.361  -3.337  48.890  1.00  0.00    -0.452 F 
ENDBRANCH  13  29
TORSDOF 4
ENDMDL
MODEL 2
REMARK VINA RESULT:      -8.1      7.666     11.443
REMARK  4 active torsions:
REMARK  status: ('A' for Active; 'I' for Inactive)
REMARK    1  A    between atoms: C2_2  and  C3_3 
REMARK       I    between atoms: C3_3  and  N1_5 
REMARK    2  A    between atoms: N1_5  and  C4_6 
REMARK    3  A    between atoms: C13_16  and  N3_17 
REMARK    4  A    between atoms: C15_19  and  C16_20 
ROOT
HETATM    1  C4  UNL     1      24.012   2.265  52.381  1.00  0.00     0.035 A 
HETATM    2  C5  UNL     1      23.342   3.436  52.662  1.00  0.00     0.032 A 
HETATM    3  C6  UNL     1      23.558   4.595  51.986  1.00  0.00     0.040 A 
HETATM    4  C7  UNL     1      24.471   4.650  50.976  1.00  0.00     0.086 A 
HETATM    5  C8  UNL     1      25.200   3.510  50.620  1.00  0.00    -0.004 A 
HETATM    6  C9  UNL     1      24.909   2.372  51.369  1.00  0.00     0.041 A 
HETATM    7  C10 UNL     1      26.226   3.266  49.598  1.00  0.00     0.161 C 
HETATM    8  N2  UNL     1      27.067   4.378  49.287  1.00  0.00    -0.382 N 
HETATM    9  C11 UNL     1      26.785   5.767  49.184  1.00  0.00     0.081 C 
HETATM   10  C12 UNL     1      27.733   6.114  48.352  1.00  0.00     0.048 C 
HETATM   11  C13 UNL     1      28.227   7.348  47.671  1.00  0.00     0.294 C 
HETATM   12  C14 UNL     1      28.324   8.508  48.577  1.00  0.00     0.072 C 
HETATM   13  C15 UNL     1      29.530   9.004  48.773  1.00  0.00     0.028 C 
HETATM   14  N4  UNL     1      27.370   9.247  49.319  1.00  0.00    -0.244 NA
HETATM   15  C18 UNL     1      26.257   8.946  49.945  1.00  0.00     0.236 C 
HETATM   16  N5  UNL     1      25.497   7.739  50.167  1.00  0.00    -0.216 NA
HETATM   17  C19 UNL     1      25.719   6.491  49.861  1.00  0.00     0.197 C 
HETATM   18  O2  UNL     1      24.562   5.927  50.391  1.00  0.00    -0.290 OA
HETATM   19  H10 UNL     1      28.086   4.160  49.091  1.00  0.00     0.160 HD
ENDROOT
BRANCH   1  20
HETATM   20  N1  UNL     1      23.714   1.117  53.141  1.00  0.00    -0.324 N 
HETATM   21  C3  UNL     1      22.738   0.107  52.960  1.00  0.00     0.244 C 
HETATM   22  O1  UNL     1      21.989   0.218  51.958  1.00  0.00    -0.268 OA
HETATM   23  H4  UNL     1      24.291   0.927  54.014  1.00  0.00     0.169 HD
BRANCH  21  24
HETATM   24  C2  UNL     1      22.569  -1.024  53.857  1.00  0.00     0.064 C 
HETATM   25  C1  UNL     1      21.558  -1.127  54.679  1.00  0.00     0.017 C 
ENDBRANCH  21  24
ENDBRANCH   1  20
BRANCH  11  26
HETATM   26  N3  UNL     1      29.525   7.078  47.093  1.00  0.00     0.092 N 
HETATM   27  H13 UNL     1      30.116   7.941  47.016  1.00  0.00     0.314 HD
HETATM   28  H14 UNL     1      29.442   6.549  46.187  1.00  0.00     0.314 HD
ENDBRANCH  11  26
BRANCH  13  29
HETATM   29  C16 UNL     1      30.878   8.752  48.350  1.00  0.00     0.014 C 
HETATM   30  C17 UNL     1      32.050   8.372  48.826  1.00  0.00     0.441 C 
HETATM   31  F1  UNL     1      32.022   8.126  50.163  1.00  0.00    -0.452 F 
ENDBRANCH  13  29
TORSDOF 4
ENDMDL
MODEL 3
REMARK VINA RESULT:      -8.1      3.061      4.127
REMARK  4 active torsions:
REMARK  status: ('A' for Active; 'I' for Inactive)
REMARK    1  A    between atoms: C2_2  and  C3_3 
REMARK       I    between atoms: C3_3  and  N1_5 
REMARK    2  A    between atoms: N1_5  and  C4_6 
REMARK    3  A    between atoms: C13_16  and  N3_17 
REMARK    4  A    between atoms: C15_19  and  C16_20 
ROOT
HETATM    1  C4  UNL     1      24.659   1.786  53.047  1.00  0.00     0.035 A 
HETATM    2  C5  UNL     1      24.193   0.499  52.880  1.00  0.00     0.032 A 
HETATM    3  C6  UNL     1      22.967   0.214  52.369  1.00  0.00     0.040 A 
HETATM    4  C7  UNL     1      22.122   1.213  51.992  1.00  0.00     0.086 A 
HETATM    5  C8  UNL     1      22.508   2.552  52.125  1.00  0.00    -0.004 A 
HETATM    6  C9  UNL     1      23.781   2.744  52.656  1.00  0.00     0.041 A 
HETATM    7  C10 UNL     1      21.831   3.816  51.810  1.00  0.00     0.161 C 
HETATM    8  N2  UNL     1      20.409   3.807  51.940  1.00  0.00    -0.382 N 
HETATM    9  C11 UNL     1      19.446   2.805  51.644  1.00  0.00     0.081 C 
HETATM   10  C12 UNL     1      18.407   3.568  51.422  1.00  0.00     0.048 C 
HETATM   11  C13 UNL     1      16.968   3.418  51.052  1.00  0.00     0.294 C 
HETATM   12  C14 UNL     1      16.280   2.364  51.820  1.00  0.00     0.072 C 
HETATM   13  C15 UNL     1      15.291   2.755  52.601  1.00  0.00     0.028 C 
HETATM   14  N4  UNL     1      16.447   0.961  51.914  1.00  0.00    -0.244 NA
HETATM   15  C18 UNL     1      17.478   0.152  51.871  1.00  0.00     0.236 C 
HETATM   16  N5  UNL     1      18.904   0.312  51.711  1.00  0.00    -0.216 NA
HETATM   17  C19 UNL     1      19.666   1.366  51.623  1.00  0.00     0.197 C 
HETATM   18  O2  UNL     1      20.899   0.733  51.488  1.00  0.00    -0.290 OA
HETATM   19  H10 UNL     1      19.963   4.691  52.321  1.00  0.00     0.160 HD
ENDROOT
BRANCH   1  20
HETATM   20  N1  UNL     1      25.947   1.974  53.585  1.00  0.00    -0.324 N 
HETATM   21  C3  UNL     1      27.196   2.196  52.955  1.00  0.00     0.244 C 
HETATM   22  O1  UNL     1      27.198   2.240  51.700  1.00  0.00    -0.268 OA
HETATM   23  H4  UNL     1      26.058   1.956  54.642  1.00  0.00     0.169 HD
BRANCH  21  24
HETATM   24  C2  UNL     1      28.445   2.372  53.678  1.00  0.00     0.064 C 
HETATM   25  C1  UNL     1      29.119   1.369  54.177  1.00  0.00     0.017 C 
ENDBRANCH  21  24
ENDBRANCH   1  20
BRANCH  11  26
HETATM   26  N3  UNL     1      16.296   4.682  51.257  1.00  0.00     0.092 N 
HETATM   27  H13 UNL     1      15.255   4.575  51.330  1.00  0.00     0.314 HD
HETATM   28  H14 UNL     1      16.591   5.398  50.544  1.00  0.00     0.314 HD
ENDBRANCH  11  26
BRANCH  13  29
HETATM   29  C16 UNL     1      14.625   3.972  52.964  1.00  0.00     0.014 C 
HETATM   30  C17 UNL     1      13.579   4.407  53.644  1.00  0.00     0.441 C 
HETATM   31  F1  UNL     1      12.860   3.400  54.208  1.00  0.00    -0.452 F 
ENDBRANCH  13  29
TORSDOF 4
ENDMDL
MODEL 4
REMARK VINA RESULT:      -8.1      5.421      9.796
REMARK  4 active torsions:
REMARK  status: ('A' for Active; 'I' for Inactive)
REMARK    1  A    between atoms: C2_2  and  C3_3 
REMARK       I    between atoms: C3_3  and  N1_5 
REMARK    2  A    between atoms: N1_5  and  C4_6 
REMARK    3  A    between atoms: C13_16  and  N3_17 
REMARK    4  A    between atoms: C15_19  and  C16_20 
ROOT
HETATM    1  C4  UNL     1      21.918   3.030  47.443  1.00  0.00     0.035 A 
HETATM    2  C5  UNL     1      21.135   2.104  48.098  1.00  0.00     0.032 A 
HETATM    3  C6  UNL     1      21.389   1.680  49.364  1.00  0.00     0.040 A 
HETATM    4  C7  UNL     1      22.457   2.164  50.057  1.00  0.00     0.086 A 
HETATM    5  C8  UNL     1      23.310   3.108  49.472  1.00  0.00    -0.004 A 
HETATM    6  C9  UNL     1      22.967   3.480  48.175  1.00  0.00     0.041 A 
HETATM    7  C10 UNL     1      24.511   3.798  49.960  1.00  0.00     0.161 C 
HETATM    8  N2  UNL     1      25.319   3.062  50.878  1.00  0.00    -0.382 N 
HETATM    9  C11 UNL     1      24.970   2.170  51.928  1.00  0.00     0.081 C 
HETATM   10  C12 UNL     1      26.023   2.318  52.690  1.00  0.00     0.048 C 
HETATM   11  C13 UNL     1      26.546   1.796  53.988  1.00  0.00     0.294 C 
HETATM   12  C14 UNL     1      26.409   0.334  54.121  1.00  0.00     0.072 C 
HETATM   13  C15 UNL     1      27.529  -0.356  54.220  1.00  0.00     0.028 C 
HETATM   14  N4  UNL     1      25.296  -0.539  54.169  1.00  0.00    -0.244 NA
HETATM   15  C18 UNL     1      24.113  -0.556  53.602  1.00  0.00     0.236 C 
HETATM   16  N5  UNL     1      23.406   0.297  52.676  1.00  0.00    -0.216 NA
HETATM   17  C19 UNL     1      23.758   1.369  52.023  1.00  0.00     0.197 C 
HETATM   18  O2  UNL     1      22.566   1.615  51.348  1.00  0.00    -0.290 OA
HETATM   19  H10 UNL     1      26.368   3.182  50.786  1.00  0.00     0.160 HD
ENDROOT
BRANCH   1  20
HETATM   20  N1  UNL     1      21.567   3.403  46.130  1.00  0.00    -0.324 N 
HETATM   21  C3  UNL     1      20.842   4.516  45.641  1.00  0.00     0.244 C 
HETATM   22  O1  UNL     1      20.422   5.337  46.493  1.00  0.00    -0.268 OA
HETATM   23  H4  UNL     1      21.875   2.774  45.329  1.00  0.00     0.169 HD
BRANCH  21  24
HETATM   24  C2  UNL     1      20.570   4.747  44.231  1.00  0.00     0.064 C 
HETATM   25  C1  UNL     1      20.233   3.786  43.411  1.00  0.00     0.017 C 
ENDBRANCH  21  24
ENDBRANCH   1  20
BRANCH  11  26
HETATM   26  N3  UNL     1      27.939   2.164  54.115  1.00  0.00     0.092 N 
HETATM   27  H13 UNL     1      28.403   2.303  53.184  1.00  0.00     0.314 HD
HETATM   28  H14 UNL     1      28.460   1.499  54.743  1.00  0.00     0.314 HD
ENDBRANCH  11  26
BRANCH  13  29
HETATM   29  C16 UNL     1      28.943  -0.114  54.242  1.00  0.00     0.014 C 
HETATM   30  C17 UNL     1      30.077  -0.605  53.775  1.00  0.00     0.441 C 
HETATM   31  F1  UNL     1      29.896  -1.714  53.010  1.00  0.00    -0.452 F 
ENDBRANCH  13  29
TORSDOF 4
ENDMDL
MODEL 5
REMARK VINA RESULT:      -7.9      3.976      9.577
REMARK  4 active torsions:
REMARK  status: ('A' for Active; 'I' for Inactive)
REMARK    1  A    between atoms: C2_2  and  C3_3 
REMARK       I    between atoms: C3_3  and  N1_5 
REMARK    2  A    between atoms: N1_5  and  C4_6 
REMARK    3  A    between atoms: C13_16  and  N3_17 
REMARK    4  A    between atoms: C15_19  and  C16_20 
ROOT
HETATM    1  C4  UNL     1      18.427   0.263  50.649  1.00  0.00     0.035 A 
HETATM    2  C5  UNL     1      18.266  -0.465  51.808  1.00  0.00     0.032 A 
HETATM    3  C6  UNL     1      19.187  -0.484  52.807  1.00  0.00     0.040 A 
HETATM    4  C7  UNL     1      20.339   0.235  52.703  1.00  0.00     0.086 A 
HETATM    5  C8  UNL     1      20.591   1.005  51.561  1.00  0.00    -0.004 A 
HETATM    6  C9  UNL     1      19.590   0.961  50.594  1.00  0.00     0.041 A 
HETATM    7  C10 UNL     1      21.714   1.866  51.172  1.00  0.00     0.161 C 
HETATM    8  N2  UNL     1      22.995   1.474  51.665  1.00  0.00    -0.382 N 
HETATM    9  C11 UNL     1      23.390   0.916  52.911  1.00  0.00     0.081 C 
HETATM   10  C12 UNL     1      24.630   1.334  52.947  1.00  0.00     0.048 C 
HETATM   11  C13 UNL     1      25.814   1.244  53.853  1.00  0.00     0.294 C 
HETATM   12  C14 UNL     1      26.049  -0.119  54.365  1.00  0.00     0.072 C 
HETATM   13  C15 UNL     1      27.183  -0.693  54.012  1.00  0.00     0.028 C 
HETATM   14  N4  UNL     1      25.298  -0.993  55.188  1.00  0.00    -0.244 NA
HETATM   15  C18 UNL     1      24.019  -1.234  55.350  1.00  0.00     0.236 C 
HETATM   16  N5  UNL     1      22.797  -0.728  54.772  1.00  0.00    -0.216 NA
HETATM   17  C19 UNL     1      22.565   0.120  53.808  1.00  0.00     0.197 C 
HETATM   18  O2  UNL     1      21.174   0.097  53.828  1.00  0.00    -0.290 OA
HETATM   19  H10 UNL     1      23.818   1.614  51.010  1.00  0.00     0.160 HD
ENDROOT
BRANCH   1  20
HETATM   20  N1  UNL     1      17.412   0.215  49.674  1.00  0.00    -0.324 N 
HETATM   21  C3  UNL     1      16.279   1.040  49.467  1.00  0.00     0.244 C 
HETATM   22  O1  UNL     1      16.117   1.991  50.271  1.00  0.00    -0.268 OA
HETATM   23  H4  UNL     1      17.454  -0.554  48.941  1.00  0.00     0.169 HD
BRANCH  21  24
HETATM   24  C2  UNL     1      15.321   0.841  48.393  1.00  0.00     0.064 C 
HETATM   25  C1  UNL     1      14.162   1.446  48.360  1.00  0.00     0.017 C 
ENDBRANCH  21  24
ENDBRANCH   1  20
BRANCH  11  26
HETATM   26  N3  UNL     1      26.986   1.701  53.140  1.00  0.00     0.092 N 
HETATM   27  H13 UNL     1      26.790   1.891  52.127  1.00  0.00     0.314 HD
HETATM   28  H14 UNL     1      27.805   1.058  53.291  1.00  0.00     0.314 HD
ENDBRANCH  11  26
BRANCH  13  29
HETATM   29  C16 UNL     1      28.346  -0.386  53.231  1.00  0.00     0.014 C 
HETATM   30  C17 UNL     1      29.648  -0.609  53.194  1.00  0.00     0.441 C 
HETATM   31  F1  UNL     1      30.078  -1.389  54.222  1.00  0.00    -0.452 F 
ENDBRANCH  13  29
TORSDOF 4
ENDMDL
MODEL 6
REMARK VINA RESULT:      -7.5      5.266      9.515
REMARK  4 active torsions:
REMARK  status: ('A' for Active; 'I' for Inactive)
REMARK    1  A    between atoms: C2_2  and  C3_3 
REMARK       I    between atoms: C3_3  and  N1_5 
REMARK    2  A    between atoms: N1_5  and  C4_6 
REMARK    3  A    between atoms: C13_16  and  N3_17 
REMARK    4  A    between atoms: C15_19  and  C16_20 
ROOT
HETATM    1  C4  UNL     1      20.904   6.013  49.889  1.00  0.00     0.035 A 
HETATM    2  C5  UNL     1      20.059   4.949  50.122  1.00  0.00     0.032 A 
HETATM    3  C6  UNL     1      20.363   3.931  50.969  1.00  0.00     0.040 A 
HETATM    4  C7  UNL     1      21.548   3.917  51.641  1.00  0.00     0.086 A 
HETATM    5  C8  UNL     1      22.470   4.956  51.468  1.00  0.00    -0.004 A 
HETATM    6  C9  UNL     1      22.069   5.953  50.582  1.00  0.00     0.041 A 
HETATM    7  C10 UNL     1      23.797   5.212  52.044  1.00  0.00     0.161 C 
HETATM    8  N2  UNL     1      24.570   4.054  52.357  1.00  0.00    -0.382 N 
HETATM    9  C11 UNL     1      24.194   2.788  52.881  1.00  0.00     0.081 C 
HETATM   10  C12 UNL     1      25.321   2.451  53.452  1.00  0.00     0.048 C 
HETATM   11  C13 UNL     1      25.880   1.311  54.239  1.00  0.00     0.294 C 
HETATM   12  C14 UNL     1      25.547  -0.006  53.664  1.00  0.00     0.072 C 
HETATM   13  C15 UNL     1      26.561  -0.740  53.248  1.00  0.00     0.028 C 
HETATM   14  N4  UNL     1      24.329  -0.695  53.448  1.00  0.00    -0.244 NA
HETATM   15  C18 UNL     1      23.110  -0.332  53.128  1.00  0.00     0.236 C 
HETATM   16  N5  UNL     1      22.451   0.922  52.850  1.00  0.00    -0.216 NA
HETATM   17  C19 UNL     1      22.893   2.146  52.755  1.00  0.00     0.197 C 
HETATM   18  O2  UNL     1      21.692   2.790  52.470  1.00  0.00    -0.290 OA
HETATM   19  H10 UNL     1      25.614   4.120  52.179  1.00  0.00     0.160 HD
ENDROOT
BRANCH   1  20
HETATM   20  N1  UNL     1      20.494   7.019  48.992  1.00  0.00    -0.324 N 
HETATM   21  C3  UNL     1      20.031   8.337  49.219  1.00  0.00     0.244 C 
HETATM   22  O1  UNL     1      19.960   8.715  50.415  1.00  0.00    -0.268 OA
HETATM   23  H4  UNL     1      20.515   6.803  47.951  1.00  0.00     0.169 HD
BRANCH  21  24
HETATM   24  C2  UNL     1      19.645   9.252  48.157  1.00  0.00     0.064 C 
HETATM   25  C1  UNL     1      18.437   9.283  47.657  1.00  0.00     0.017 C 
ENDBRANCH  21  24
ENDBRANCH   1  20
BRANCH  11  26
HETATM   26  N3  UNL     1      27.316   1.454  54.318  1.00  0.00     0.092 N 
HETATM   27  H13 UNL     1      27.696   1.167  55.253  1.00  0.00     0.314 HD
HETATM   28  H14 UNL     1      27.627   2.414  54.021  1.00  0.00     0.314 HD
ENDBRANCH  11  26
BRANCH  13  29
HETATM   29  C16 UNL     1      27.991  -0.654  53.173  1.00  0.00     0.014 C 
HETATM   30  C17 UNL     1      29.065  -1.422  53.121  1.00  0.00     0.441 C 
HETATM   31  F1  UNL     1      28.767  -2.749  53.141  1.00  0.00    -0.452 F 
ENDBRANCH  13  29
TORSDOF 4
ENDMDL
MODEL 7
REMARK VINA RESULT:      -7.5      7.053      8.948
REMARK  4 active torsions:
REMARK  status: ('A' for Active; 'I' for Inactive)
REMARK    1  A    between atoms: C2_2  and  C3_3 
REMARK       I    between atoms: C3_3  and  N1_5 
REMARK    2  A    between atoms: N1_5  and  C4_6 
REMARK    3  A    between atoms: C13_16  and  N3_17 
REMARK    4  A    between atoms: C15_19  and  C16_20 
ROOT
HETATM    1  C4  UNL     1      26.470   1.895  52.390  1.00  0.00     0.035 A 
HETATM    2  C5  UNL     1      25.340   2.120  53.147  1.00  0.00     0.032 A 
HETATM    3  C6  UNL     1      24.291   2.867  52.712  1.00  0.00     0.040 A 
HETATM    4  C7  UNL     1      24.313   3.441  51.477  1.00  0.00     0.086 A 
HETATM    5  C8  UNL     1      25.419   3.268  50.636  1.00  0.00    -0.004 A 
HETATM    6  C9  UNL     1      26.442   2.487  51.170  1.00  0.00     0.041 A 
HETATM    7  C10 UNL     1      25.723   3.750  49.283  1.00  0.00     0.161 C 
HETATM    8  N2  UNL     1      25.169   5.019  48.938  1.00  0.00    -0.382 N 
HETATM    9  C11 UNL     1      23.917   5.613  49.254  1.00  0.00     0.081 C 
HETATM   10  C12 UNL     1      23.801   6.420  48.231  1.00  0.00     0.048 C 
HETATM   11  C13 UNL     1      22.832   7.429  47.706  1.00  0.00     0.294 C 
HETATM   12  C14 UNL     1      22.342   8.354  48.745  1.00  0.00     0.072 C 
HETATM   13  C15 UNL     1      22.645   9.629  48.589  1.00  0.00     0.028 C 
HETATM   14  N4  UNL     1      21.584   8.177  49.928  1.00  0.00    -0.244 NA
HETATM   15  C18 UNL     1      21.500   7.234  50.835  1.00  0.00     0.236 C 
HETATM   16  N5  UNL     1      22.134   5.954  51.049  1.00  0.00    -0.216 NA
HETATM   17  C19 UNL     1      23.087   5.329  50.416  1.00  0.00     0.197 C 
HETATM   18  O2  UNL     1      23.147   4.177  51.195  1.00  0.00    -0.290 OA
HETATM   19  H10 UNL     1      25.773   5.653  48.339  1.00  0.00     0.160 HD
ENDROOT
BRANCH   1  20
HETATM   20  N1  UNL     1      27.501   1.105  52.934  1.00  0.00    -0.324 N 
HETATM   21  C3  UNL     1      28.596   1.445  53.765  1.00  0.00     0.244 C 
HETATM   22  O1  UNL     1      28.701   2.652  54.097  1.00  0.00    -0.268 OA
HETATM   23  H4  UNL     1      27.507   0.065  52.714  1.00  0.00     0.169 HD
BRANCH  21  24
HETATM   24  C2  UNL     1      29.579   0.486  54.239  1.00  0.00     0.064 C 
HETATM   25  C1  UNL     1      29.699  -0.712  53.729  1.00  0.00     0.017 C 
ENDBRANCH  21  24
ENDBRANCH   1  20
BRANCH  11  26
HETATM   26  N3  UNL     1      23.467   8.183  46.648  1.00  0.00     0.092 N 
HETATM   27  H13 UNL     1      24.065   7.582  46.031  1.00  0.00     0.314 HD
HETATM   28  H14 UNL     1      23.973   9.026  47.024  1.00  0.00     0.314 HD
ENDBRANCH  11  26
BRANCH  13  29
HETATM   29  C16 UNL     1      23.352  10.459  47.657  1.00  0.00     0.014 C 
HETATM   30  C17 UNL     1      23.475  11.725  47.297  1.00  0.00     0.441 C 
HETATM   31  F1  UNL     1      22.687  12.560  48.025  1.00  0.00    -0.452 F 
ENDBRANCH  13  29
TORSDOF 4
ENDMDL
MODEL 8
REMARK VINA RESULT:      -7.4     10.666     15.297
REMARK  4 active torsions:
REMARK  status: ('A' for Active; 'I' for Inactive)
REMARK    1  A    between atoms: C2_2  and  C3_3 
REMARK       I    between atoms: C3_3  and  N1_5 
REMARK    2  A    between atoms: N1_5  and  C4_6 
REMARK    3  A    between atoms: C13_16  and  N3_17 
REMARK    4  A    between atoms: C15_19  and  C16_20 
ROOT
HETATM    1  C4  UNL     1      26.125   6.845  48.337  1.00  0.00     0.035 A 
HETATM    2  C5  UNL     1      26.410   5.558  48.739  1.00  0.00     0.032 A 
HETATM    3  C6  UNL     1      27.662   5.033  48.715  1.00  0.00     0.040 A 
HETATM    4  C7  UNL     1      28.718   5.775  48.280  1.00  0.00     0.086 A 
HETATM    5  C8  UNL     1      28.526   7.094  47.851  1.00  0.00    -0.004 A 
HETATM    6  C9  UNL     1      27.209   7.542  47.914  1.00  0.00     0.041 A 
HETATM    7  C10 UNL     1      29.448   8.117  47.343  1.00  0.00     0.161 C 
HETATM    8  N2  UNL     1      30.570   7.630  46.607  1.00  0.00    -0.382 N 
HETATM    9  C11 UNL     1      31.382   6.478  46.788  1.00  0.00     0.081 C 
HETATM   10  C12 UNL     1      32.484   6.905  46.226  1.00  0.00     0.048 C 
HETATM   11  C13 UNL     1      33.862   6.404  45.944  1.00  0.00     0.294 C 
HETATM   12  C14 UNL     1      33.878   5.034  45.397  1.00  0.00     0.072 C 
HETATM   13  C15 UNL     1      34.356   4.893  44.175  1.00  0.00     0.028 C 
HETATM   14  N4  UNL     1      33.479   3.776  45.909  1.00  0.00    -0.244 NA
HETATM   15  C18 UNL     1      32.516   3.368  46.701  1.00  0.00     0.236 C 
HETATM   16  N5  UNL     1      31.428   4.002  47.408  1.00  0.00    -0.216 NA
HETATM   17  C19 UNL     1      30.993   5.231  47.431  1.00  0.00     0.197 C 
HETATM   18  O2  UNL     1      29.936   5.071  48.323  1.00  0.00    -0.290 OA
HETATM   19  H10 UNL     1      30.876   8.209  45.773  1.00  0.00     0.160 HD
ENDROOT
BRANCH   1  20
HETATM   20  N1  UNL     1      24.791   7.294  48.402  1.00  0.00    -0.324 N 
HETATM   21  C3  UNL     1      24.125   8.099  49.358  1.00  0.00     0.244 C 
HETATM   22  O1  UNL     1      24.807   8.503  50.332  1.00  0.00    -0.268 OA
HETATM   23  H4  UNL     1      24.126   7.008  47.624  1.00  0.00     0.169 HD
BRANCH  21  24
HETATM   24  C2  UNL     1      22.723   8.470  49.265  1.00  0.00     0.064 C 
HETATM   25  C1  UNL     1      21.775   7.598  49.038  1.00  0.00     0.017 C 
ENDBRANCH  21  24
ENDBRANCH   1  20
BRANCH  11  26
HETATM   26  N3  UNL     1      34.507   7.303  45.013  1.00  0.00     0.092 N 
HETATM   27  H13 UNL     1      34.502   6.933  44.031  1.00  0.00     0.314 HD
HETATM   28  H14 UNL     1      35.465   7.584  45.346  1.00  0.00     0.314 HD
ENDBRANCH  11  26
BRANCH  13  29
HETATM   29  C16 UNL     1      34.907   5.713  43.135  1.00  0.00     0.014 C 
HETATM   30  C17 UNL     1      35.029   5.761  41.820  1.00  0.00     0.441 C 
HETATM   31  F1  UNL     1      34.455   4.696  41.198  1.00  0.00    -0.452 F 
ENDBRANCH  13  29
TORSDOF 4
ENDMDL
MODEL 9
REMARK VINA RESULT:      -7.4      4.742      9.651
REMARK  4 active torsions:
REMARK  status: ('A' for Active; 'I' for Inactive)
REMARK    1  A    between atoms: C2_2  and  C3_3 
REMARK       I    between atoms: C3_3  and  N1_5 
REMARK    2  A    between atoms: N1_5  and  C4_6 
REMARK    3  A    between atoms: C13_16  and  N3_17 
REMARK    4  A    between atoms: C15_19  and  C16_20 
ROOT
HETATM    1  C4  UNL     1      18.524   3.592  51.518  1.00  0.00     0.035 A 
HETATM    2  C5  UNL     1      19.118   4.315  50.506  1.00  0.00     0.032 A 
HETATM    3  C6  UNL     1      20.375   4.065  50.054  1.00  0.00     0.040 A 
HETATM    4  C7  UNL     1      21.122   3.064  50.597  1.00  0.00     0.086 A 
HETATM    5  C8  UNL     1      20.602   2.276  51.631  1.00  0.00    -0.004 A 
HETATM    6  C9  UNL     1      19.308   2.607  52.024  1.00  0.00     0.041 A 
HETATM    7  C10 UNL     1      21.155   1.150  52.395  1.00  0.00     0.161 C 
HETATM    8  N2  UNL     1      22.568   1.173  52.596  1.00  0.00    -0.382 N 
HETATM    9  C11 UNL     1      23.630   1.580  51.745  1.00  0.00     0.081 C 
HETATM   10  C12 UNL     1      24.592   0.842  52.238  1.00  0.00     0.048 C 
HETATM   11  C13 UNL     1      26.044   0.591  51.998  1.00  0.00     0.294 C 
HETATM   12  C14 UNL     1      26.821   1.830  51.810  1.00  0.00     0.072 C 
HETATM   13  C15 UNL     1      27.754   2.082  52.708  1.00  0.00     0.028 C 
HETATM   14  N4  UNL     1      26.794   2.859  50.837  1.00  0.00    -0.244 NA
HETATM   15  C18 UNL     1      25.850   3.433  50.131  1.00  0.00     0.236 C 
HETATM   16  N5  UNL     1      24.418   3.288  50.019  1.00  0.00    -0.216 NA
HETATM   17  C19 UNL     1      23.556   2.552  50.664  1.00  0.00     0.197 C 
HETATM   18  O2  UNL     1      22.395   2.950  50.008  1.00  0.00    -0.290 OA
HETATM   19  H10 UNL     1      22.917   0.828  53.537  1.00  0.00     0.160 HD
ENDROOT
BRANCH   1  20
HETATM   20  N1  UNL     1      17.215   3.931  51.913  1.00  0.00    -0.324 N 
HETATM   21  C3  UNL     1      16.007   3.195  51.861  1.00  0.00     0.244 C 
HETATM   22  O1  UNL     1      16.071   2.034  51.388  1.00  0.00    -0.268 OA
HETATM   23  H4  UNL     1      17.049   4.896  52.328  1.00  0.00     0.169 HD
BRANCH  21  24
HETATM   24  C2  UNL     1      14.727   3.710  52.320  1.00  0.00     0.064 C 
HETATM   25  C1  UNL     1      14.590   4.358  53.447  1.00  0.00     0.017 C 
ENDBRANCH  21  24
ENDBRANCH   1  20
BRANCH  11  26
HETATM   26  N3  UNL     1      26.583  -0.152  53.115  1.00  0.00     0.092 N 
HETATM   27  H13 UNL     1      25.920  -0.885  53.466  1.00  0.00     0.314 HD
HETATM   28  H14 UNL     1      26.935   0.488  53.873  1.00  0.00     0.314 HD
ENDBRANCH  11  26
BRANCH  13  29
HETATM   29  C16 UNL     1      28.290   1.487  53.898  1.00  0.00     0.014 C 
HETATM   30  C17 UNL     1      29.279   0.708  54.302  1.00  0.00     0.441 C 
HETATM   31  F1  UNL     1      30.088   0.313  53.284  1.00  0.00    -0.452 F 
ENDBRANCH  13  29
TORSDOF 4
ENDMDL
