MODEL 1
REMARK VINA RESULT:      -7.7      0.000      0.000
REMARK  4 active torsions:
REMARK  status: ('A' for Active; 'I' for Inactive)
REMARK    1  A    between atoms: C5_5  and  C6_6 
REMARK       I    between atoms: C6_6  and  N1_8 
REMARK    2  A    between atoms: N1_8  and  S1_9 
REMARK    3  A    between atoms: S1_9  and  N2_10 
REMARK    4  A    between atoms: S1_9  and  C8_13 
ROOT
HETATM    1  C6  UNL     1      25.939   3.917  49.896  1.00  0.00     0.265 C 
HETATM    2  O1  UNL     1      26.529   3.020  49.272  1.00  0.00    -0.267 OA
HETATM    3  N1  UNL     1      25.580   3.854  51.277  1.00  0.00    -0.288 N 
HETATM    4  H6  UNL     1      25.078   4.659  51.743  1.00  0.00     0.178 HD
ENDROOT
BRANCH   3   5
HETATM    5  S1  UNL     1      26.077   2.314  52.039  1.00  0.00     0.014 SA
BRANCH   5   6
HETATM    6  N2  UNL     1      27.645   2.177  52.387  1.00  0.00    -0.085 NA
HETATM    7  C7  UNL     1      28.048   2.307  53.743  1.00  0.00     0.308 A 
HETATM    8  O2  UNL     1      28.961   2.537  52.896  1.00  0.00    -0.261 OA
ENDBRANCH   5   6
BRANCH   5   9
HETATM    9  C8  UNL     1      24.882   1.168  52.748  1.00  0.00     0.027 A 
HETATM   10  C9  UNL     1      25.125   0.084  53.567  1.00  0.00     0.022 A 
HETATM   11  C10 UNL     1      24.060  -0.675  54.007  1.00  0.00     0.020 A 
HETATM   12  C11 UNL     1      22.758  -0.363  53.637  1.00  0.00     0.011 A 
HETATM   13 BR1  UNL     1      21.316  -1.432  54.263  1.00  0.00    -0.051 Br
HETATM   14  C12 UNL     1      22.490   0.719  52.817  1.00  0.00     0.020 A 
HETATM   15  C13 UNL     1      23.568   1.474  52.381  1.00  0.00     0.022 A 
ENDBRANCH   5   9
ENDBRANCH   3   5
BRANCH   1  16
HETATM   16  C5  UNL     1      25.602   5.124  49.115  1.00  0.00     0.073 A 
HETATM   17  C4  UNL     1      26.646   5.998  48.796  1.00  0.00     0.022 A 
HETATM   18  C3  UNL     1      26.448   7.161  48.068  1.00  0.00     0.028 A 
HETATM   19  C2  UNL     1      25.136   7.382  47.685  1.00  0.00     0.032 A 
HETATM   20  C1  UNL     1      24.816   8.605  46.899  1.00  0.00     0.070 C 
HETATM   21  N3  UNL     1      24.142   6.534  47.999  1.00  0.00    -0.241 NA
HETATM   22  C14 UNL     1      24.326   5.407  48.704  1.00  0.00     0.142 A 
HETATM   23 CL1  UNL     1      23.018   4.312  49.103  1.00  0.00    -0.061 Cl
ENDBRANCH   1  16
TORSDOF 4
ENDMDL
MODEL 2
REMARK VINA RESULT:      -7.5      3.965      4.967
REMARK  4 active torsions:
REMARK  status: ('A' for Active; 'I' for Inactive)
REMARK    1  A    between atoms: C5_5  and  C6_6 
REMARK       I    between atoms: C6_6  and  N1_8 
REMARK    2  A    between atoms: N1_8  and  S1_9 
REMARK    3  A    between atoms: S1_9  and  N2_10 
REMARK    4  A    between atoms: S1_9  and  C8_13 
ROOT
HETATM    1  C6  UNL     1      23.261   2.169  52.020  1.00  0.00     0.265 C 
HETATM    2  O1  UNL     1      23.922   2.748  52.896  1.00  0.00    -0.267 OA
HETATM    3  N1  UNL     1      22.974   0.770  52.000  1.00  0.00    -0.288 N 
HETATM    4  H6  UNL     1      22.403   0.346  51.220  1.00  0.00     0.178 HD
ENDROOT
BRANCH   3   5
HETATM    5  S1  UNL     1      23.683  -0.088  53.400  1.00  0.00     0.014 SA
BRANCH   5   6
HETATM    6  N2  UNL     1      22.685  -1.070  54.199  1.00  0.00    -0.085 NA
HETATM    7  C7  UNL     1      21.515  -0.514  54.782  1.00  0.00     0.308 A 
HETATM    8  O2  UNL     1      21.896  -1.604  55.301  1.00  0.00    -0.261 OA
ENDBRANCH   5   6
BRANCH   5   9
HETATM    9  C8  UNL     1      25.462  -0.185  53.663  1.00  0.00     0.027 A 
HETATM   10  C9  UNL     1      26.204   0.378  54.682  1.00  0.00     0.022 A 
HETATM   11  C10 UNL     1      27.569   0.184  54.703  1.00  0.00     0.020 A 
HETATM   12  C11 UNL     1      28.200  -0.566  53.717  1.00  0.00     0.011 A 
HETATM   13 BR1  UNL     1      30.084  -0.812  53.779  1.00  0.00    -0.051 Br
HETATM   14  C12 UNL     1      27.477  -1.140  52.687  1.00  0.00     0.020 A 
HETATM   15  C13 UNL     1      26.105  -0.938  52.676  1.00  0.00     0.022 A 
ENDBRANCH   5   9
ENDBRANCH   3   5
BRANCH   1  16
HETATM   16  C5  UNL     1      22.749   3.028  50.933  1.00  0.00     0.073 A 
HETATM   17  C4  UNL     1      23.572   3.220  49.820  1.00  0.00     0.022 A 
HETATM   18  C3  UNL     1      23.197   4.005  48.741  1.00  0.00     0.028 A 
HETATM   19  C2  UNL     1      21.943   4.581  48.859  1.00  0.00     0.032 A 
HETATM   20  C1  UNL     1      21.444   5.444  47.754  1.00  0.00     0.070 C 
HETATM   21  N3  UNL     1      21.161   4.389  49.936  1.00  0.00    -0.241 NA
HETATM   22  C14 UNL     1      21.519   3.631  50.983  1.00  0.00     0.142 A 
HETATM   23 CL1  UNL     1      20.487   3.391  52.378  1.00  0.00    -0.061 Cl
ENDBRANCH   1  16
TORSDOF 4
ENDMDL
MODEL 3
REMARK VINA RESULT:      -7.4      3.936      7.892
REMARK  4 active torsions:
REMARK  status: ('A' for Active; 'I' for Inactive)
REMARK    1  A    between atoms: C5_5  and  C6_6 
REMARK       I    between atoms: C6_6  and  N1_8 
REMARK    2  A    between atoms: N1_8  and  S1_9 
REMARK    3  A    between atoms: S1_9  and  N2_10 
REMARK    4  A    between atoms: S1_9  and  C8_13 
ROOT
HETATM    1  C6  UNL     1      23.018   3.034  51.734  1.00  0.00     0.265 C 
HETATM    2  O1  UNL     1      23.414   3.978  52.435  1.00  0.00    -0.267 OA
HETATM    3  N1  UNL     1      22.817   3.092  50.321  1.00  0.00    -0.288 N 
HETATM    4  H6  UNL     1      22.478   2.245  49.788  1.00  0.00     0.178 HD
ENDROOT
BRANCH   3   5
HETATM    5  S1  UNL     1      23.200   4.703  49.645  1.00  0.00     0.014 SA
BRANCH   5   6
HETATM    6  N2  UNL     1      22.060   5.828  49.827  1.00  0.00    -0.085 NA
HETATM    7  C7  UNL     1      22.298   6.887  50.744  1.00  0.00     0.308 A 
HETATM    8  O2  UNL     1      21.076   6.672  50.491  1.00  0.00    -0.261 OA
ENDBRANCH   5   6
BRANCH   5   9
HETATM    9  C8  UNL     1      24.874   5.168  49.170  1.00  0.00     0.027 A 
HETATM   10  C9  UNL     1      25.302   6.358  48.617  1.00  0.00     0.022 A 
HETATM   11  C10 UNL     1      26.640   6.518  48.323  1.00  0.00     0.020 A 
HETATM   12  C11 UNL     1      27.553   5.501  48.575  1.00  0.00     0.011 A 
HETATM   13 BR1  UNL     1      29.390   5.757  48.156  1.00  0.00    -0.051 Br
HETATM   14  C12 UNL     1      27.148   4.301  49.129  1.00  0.00     0.020 A 
HETATM   15  C13 UNL     1      25.800   4.152  49.420  1.00  0.00     0.022 A 
ENDBRANCH   5   9
ENDBRANCH   3   5
BRANCH   1  16
HETATM   16  C5  UNL     1      22.748   1.772  52.452  1.00  0.00     0.073 A 
HETATM   17  C4  UNL     1      21.461   1.585  52.963  1.00  0.00     0.022 A 
HETATM   18  C3  UNL     1      21.092   0.440  53.655  1.00  0.00     0.028 A 
HETATM   19  C2  UNL     1      22.103  -0.495  53.795  1.00  0.00     0.032 A 
HETATM   20  C1  UNL     1      21.812  -1.760  54.523  1.00  0.00     0.070 C 
HETATM   21  N3  UNL     1      23.337  -0.301  53.299  1.00  0.00    -0.241 NA
HETATM   22  C14 UNL     1      23.700   0.803  52.630  1.00  0.00     0.142 A 
HETATM   23 CL1  UNL     1      25.313   1.038  51.989  1.00  0.00    -0.061 Cl
ENDBRANCH   1  16
TORSDOF 4
ENDMDL
MODEL 4
REMARK VINA RESULT:      -7.4      4.474      7.267
REMARK  4 active torsions:
REMARK  status: ('A' for Active; 'I' for Inactive)
REMARK    1  A    between atoms: C5_5  and  C6_6 
REMARK       I    between atoms: C6_6  and  N1_8 
REMARK    2  A    between atoms: N1_8  and  S1_9 
REMARK    3  A    between atoms: S1_9  and  N2_10 
REMARK    4  A    between atoms: S1_9  and  C8_13 
ROOT
HETATM    1  C6  UNL     1      21.925   0.926  52.049  1.00  0.00     0.265 C 
HETATM    2  O1  UNL     1      22.443   0.715  50.941  1.00  0.00    -0.267 OA
HETATM    3  N1  UNL     1      22.499   1.728  53.083  1.00  0.00    -0.288 N 
HETATM    4  H6  UNL     1      21.999   1.864  54.002  1.00  0.00     0.178 HD
ENDROOT
BRANCH   3   5
HETATM    5  S1  UNL     1      24.082   2.414  52.610  1.00  0.00     0.014 SA
BRANCH   5   6
HETATM    6  N2  UNL     1      24.077   3.974  52.203  1.00  0.00    -0.085 NA
HETATM    7  C7  UNL     1      22.852   4.688  52.283  1.00  0.00     0.308 A 
HETATM    8  O2  UNL     1      23.707   5.194  51.500  1.00  0.00    -0.261 OA
ENDBRANCH   5   6
BRANCH   5   9
HETATM    9  C8  UNL     1      25.633   1.565  52.951  1.00  0.00     0.027 A 
HETATM   10  C9  UNL     1      26.698   2.011  53.708  1.00  0.00     0.022 A 
HETATM   11  C10 UNL     1      27.806   1.201  53.848  1.00  0.00     0.020 A 
HETATM   12  C11 UNL     1      27.860  -0.048  53.241  1.00  0.00     0.011 A 
HETATM   13 BR1  UNL     1      29.403  -1.137  53.457  1.00  0.00    -0.051 Br
HETATM   14  C12 UNL     1      26.804  -0.516  52.480  1.00  0.00     0.020 A 
HETATM   15  C13 UNL     1      25.696   0.307  52.345  1.00  0.00     0.022 A 
ENDBRANCH   5   9
ENDBRANCH   3   5
BRANCH   1  16
HETATM   16  C5  UNL     1      20.615   0.283  52.276  1.00  0.00     0.073 A 
HETATM   17  C4  UNL     1      19.610   0.519  51.333  1.00  0.00     0.022 A 
HETATM   18  C3  UNL     1      18.341  -0.031  51.442  1.00  0.00     0.028 A 
HETATM   19  C2  UNL     1      18.157  -0.829  52.559  1.00  0.00     0.032 A 
HETATM   20  C1  UNL     1      16.829  -1.468  52.770  1.00  0.00     0.070 C 
HETATM   21  N3  UNL     1      19.132  -1.047  53.457  1.00  0.00    -0.241 NA
HETATM   22  C14 UNL     1      20.361  -0.518  53.358  1.00  0.00     0.142 A 
HETATM   23 CL1  UNL     1      21.620  -0.813  54.538  1.00  0.00    -0.061 Cl
ENDBRANCH   1  16
TORSDOF 4
ENDMDL
MODEL 5
REMARK VINA RESULT:      -7.3      4.755      7.686
REMARK  4 active torsions:
REMARK  status: ('A' for Active; 'I' for Inactive)
REMARK    1  A    between atoms: C5_5  and  C6_6 
REMARK       I    between atoms: C6_6  and  N1_8 
REMARK    2  A    between atoms: N1_8  and  S1_9 
REMARK    3  A    between atoms: S1_9  and  N2_10 
REMARK    4  A    between atoms: S1_9  and  C8_13 
ROOT
HETATM    1  C6  UNL     1      21.175   0.166  52.973  1.00  0.00     0.265 C 
HETATM    2  O1  UNL     1      21.307   1.258  53.549  1.00  0.00    -0.267 OA
HETATM    3  N1  UNL     1      22.243  -0.730  52.663  1.00  0.00    -0.288 N 
HETATM    4  H6  UNL     1      22.055  -1.645  52.170  1.00  0.00     0.178 HD
ENDROOT
BRANCH   3   5
HETATM    5  S1  UNL     1      23.831  -0.106  53.200  1.00  0.00     0.014 SA
BRANCH   5   6
HETATM    6  N2  UNL     1      24.513  -0.890  54.432  1.00  0.00    -0.085 NA
HETATM    7  C7  UNL     1      23.686  -1.294  55.514  1.00  0.00     0.308 A 
HETATM    8  O2  UNL     1      24.914  -1.185  55.800  1.00  0.00    -0.261 OA
ENDBRANCH   5   6
BRANCH   5   9
HETATM    9  C8  UNL     1      24.799   1.036  52.198  1.00  0.00     0.027 A 
HETATM   10  C9  UNL     1      26.172   1.162  52.138  1.00  0.00     0.022 A 
HETATM   11  C10 UNL     1      26.723   2.108  51.298  1.00  0.00     0.020 A 
HETATM   12  C11 UNL     1      25.916   2.927  50.518  1.00  0.00     0.011 A 
HETATM   13 BR1  UNL     1      26.710   4.219  49.372  1.00  0.00    -0.051 Br
HETATM   14  C12 UNL     1      24.537   2.818  50.561  1.00  0.00     0.020 A 
HETATM   15  C13 UNL     1      23.995   1.864  51.409  1.00  0.00     0.022 A 
ENDBRANCH   5   9
ENDBRANCH   3   5
BRANCH   1  16
HETATM   16  C5  UNL     1      19.794  -0.196  52.598  1.00  0.00     0.073 A 
HETATM   17  C4  UNL     1      19.050  -0.939  53.519  1.00  0.00     0.022 A 
HETATM   18  C3  UNL     1      17.744  -1.337  53.276  1.00  0.00     0.028 A 
HETATM   19  C2  UNL     1      17.242  -0.938  52.049  1.00  0.00     0.032 A 
HETATM   20  C1  UNL     1      15.848  -1.314  51.689  1.00  0.00     0.070 C 
HETATM   21  N3  UNL     1      17.969  -0.224  51.172  1.00  0.00    -0.241 NA
HETATM   22  C14 UNL     1      19.233   0.163  51.401  1.00  0.00     0.142 A 
HETATM   23 CL1  UNL     1      20.165   1.094  50.246  1.00  0.00    -0.061 Cl
ENDBRANCH   1  16
TORSDOF 4
ENDMDL
MODEL 6
REMARK VINA RESULT:      -7.2      2.927      4.376
REMARK  4 active torsions:
REMARK  status: ('A' for Active; 'I' for Inactive)
REMARK    1  A    between atoms: C5_5  and  C6_6 
REMARK       I    between atoms: C6_6  and  N1_8 
REMARK    2  A    between atoms: N1_8  and  S1_9 
REMARK    3  A    between atoms: S1_9  and  N2_10 
REMARK    4  A    between atoms: S1_9  and  C8_13 
ROOT
HETATM    1  C6  UNL     1      24.823   5.164  49.777  1.00  0.00     0.265 C 
HETATM    2  O1  UNL     1      24.044   4.517  49.060  1.00  0.00    -0.267 OA
HETATM    3  N1  UNL     1      24.505   5.691  51.066  1.00  0.00    -0.288 N 
HETATM    4  H6  UNL     1      25.221   6.234  51.621  1.00  0.00     0.178 HD
ENDROOT
BRANCH   3   5
HETATM    5  S1  UNL     1      22.826   5.318  51.556  1.00  0.00     0.014 SA
BRANCH   5   6
HETATM    6  N2  UNL     1      21.714   6.408  51.141  1.00  0.00    -0.085 NA
HETATM    7  C7  UNL     1      21.848   7.063  49.887  1.00  0.00     0.308 A 
HETATM    8  O2  UNL     1      21.151   7.689  50.738  1.00  0.00    -0.261 OA
ENDBRANCH   5   6
BRANCH   5   9
HETATM    9  C8  UNL     1      22.331   3.673  52.100  1.00  0.00     0.027 A 
HETATM   10  C9  UNL     1      21.054   3.194  52.307  1.00  0.00     0.022 A 
HETATM   11  C10 UNL     1      20.886   1.891  52.729  1.00  0.00     0.020 A 
HETATM   12  C11 UNL     1      21.982   1.064  52.945  1.00  0.00     0.011 A 
HETATM   13 BR1  UNL     1      21.713  -0.726  53.525  1.00  0.00    -0.051 Br
HETATM   14  C12 UNL     1      23.271   1.522  52.743  1.00  0.00     0.020 A 
HETATM   15  C13 UNL     1      23.427   2.834  52.320  1.00  0.00     0.022 A 
ENDBRANCH   5   9
ENDBRANCH   3   5
BRANCH   1  16
HETATM   16  C5  UNL     1      26.173   5.383  49.219  1.00  0.00     0.073 A 
HETATM   17  C4  UNL     1      26.493   6.675  48.794  1.00  0.00     0.022 A 
HETATM   18  C3  UNL     1      27.729   6.998  48.254  1.00  0.00     0.028 A 
HETATM   19  C2  UNL     1      28.614   5.936  48.173  1.00  0.00     0.032 A 
HETATM   20  C1  UNL     1      29.970   6.177  47.607  1.00  0.00     0.070 C 
HETATM   21  N3  UNL     1      28.293   4.698  48.585  1.00  0.00    -0.241 NA
HETATM   22  C14 UNL     1      27.099   4.380  49.107  1.00  0.00     0.142 A 
HETATM   23 CL1  UNL     1      26.698   2.760  49.641  1.00  0.00    -0.061 Cl
ENDBRANCH   1  16
TORSDOF 4
ENDMDL
MODEL 7
REMARK VINA RESULT:      -7.2      3.877      7.367
REMARK  4 active torsions:
REMARK  status: ('A' for Active; 'I' for Inactive)
REMARK    1  A    between atoms: C5_5  and  C6_6 
REMARK       I    between atoms: C6_6  and  N1_8 
REMARK    2  A    between atoms: N1_8  and  S1_9 
REMARK    3  A    between atoms: S1_9  and  N2_10 
REMARK    4  A    between atoms: S1_9  and  C8_13 
ROOT
HETATM    1  C6  UNL     1      23.696   2.138  52.331  1.00  0.00     0.265 C 
HETATM    2  O1  UNL     1      24.019   2.916  53.242  1.00  0.00    -0.267 OA
HETATM    3  N1  UNL     1      24.405   1.978  51.101  1.00  0.00    -0.288 N 
HETATM    4  H6  UNL     1      24.070   1.295  50.369  1.00  0.00     0.178 HD
ENDROOT
BRANCH   3   5
HETATM    5  S1  UNL     1      25.841   3.040  51.001  1.00  0.00     0.014 SA
BRANCH   5   6
HETATM    6  N2  UNL     1      27.206   2.431  51.606  1.00  0.00    -0.085 NA
HETATM    7  C7  UNL     1      27.121   1.283  52.439  1.00  0.00     0.308 A 
HETATM    8  O2  UNL     1      28.168   1.977  52.599  1.00  0.00    -0.261 OA
ENDBRANCH   5   6
BRANCH   5   9
HETATM    9  C8  UNL     1      25.881   4.499  49.946  1.00  0.00     0.027 A 
HETATM   10  C9  UNL     1      24.881   5.427  49.739  1.00  0.00     0.022 A 
HETATM   11  C10 UNL     1      25.114   6.483  48.882  1.00  0.00     0.020 A 
HETATM   12  C11 UNL     1      26.335   6.621  48.233  1.00  0.00     0.011 A 
HETATM   13 BR1  UNL     1      26.619   8.090  47.060  1.00  0.00    -0.051 Br
HETATM   14  C12 UNL     1      27.352   5.704  48.426  1.00  0.00     0.020 A 
HETATM   15  C13 UNL     1      27.106   4.646  49.288  1.00  0.00     0.022 A 
ENDBRANCH   5   9
ENDBRANCH   3   5
BRANCH   1  16
HETATM   16  C5  UNL     1      22.482   1.334  52.576  1.00  0.00     0.073 A 
HETATM   17  C4  UNL     1      21.257   1.877  52.176  1.00  0.00     0.022 A 
HETATM   18  C3  UNL     1      20.053   1.214  52.356  1.00  0.00     0.028 A 
HETATM   19  C2  UNL     1      20.166  -0.026  52.963  1.00  0.00     0.032 A 
HETATM   20  C1  UNL     1      18.931  -0.821  53.202  1.00  0.00     0.070 C 
HETATM   21  N3  UNL     1      21.350  -0.536  53.343  1.00  0.00    -0.241 NA
HETATM   22  C14 UNL     1      22.519   0.101  53.172  1.00  0.00     0.142 A 
HETATM   23 CL1  UNL     1      24.053  -0.579  53.673  1.00  0.00    -0.061 Cl
ENDBRANCH   1  16
TORSDOF 4
ENDMDL
MODEL 8
REMARK VINA RESULT:      -7.1      4.022      8.064
REMARK  4 active torsions:
REMARK  status: ('A' for Active; 'I' for Inactive)
REMARK    1  A    between atoms: C5_5  and  C6_6 
REMARK       I    between atoms: C6_6  and  N1_8 
REMARK    2  A    between atoms: N1_8  and  S1_9 
REMARK    3  A    between atoms: S1_9  and  N2_10 
REMARK    4  A    between atoms: S1_9  and  C8_13 
ROOT
HETATM    1  C6  UNL     1      26.172   3.246  50.482  1.00  0.00     0.265 C 
HETATM    2  O1  UNL     1      26.479   2.682  49.420  1.00  0.00    -0.267 OA
HETATM    3  N1  UNL     1      25.817   4.624  50.605  1.00  0.00    -0.288 N 
HETATM    4  H6  UNL     1      25.565   5.036  51.545  1.00  0.00     0.178 HD
ENDROOT
BRANCH   3   5
HETATM    5  S1  UNL     1      25.862   5.480  49.035  1.00  0.00     0.014 SA
BRANCH   5   6
HETATM    6  N2  UNL     1      24.433   5.931  48.441  1.00  0.00    -0.085 NA
HETATM    7  C7  UNL     1      23.278   5.209  48.843  1.00  0.00     0.308 A 
HETATM    8  O2  UNL     1      23.157   5.832  47.747  1.00  0.00    -0.261 OA
ENDBRANCH   5   6
BRANCH   5   9
HETATM    9  C8  UNL     1      27.387   6.161  48.360  1.00  0.00     0.027 A 
HETATM   10  C9  UNL     1      27.580   7.393  47.770  1.00  0.00     0.022 A 
HETATM   11  C10 UNL     1      28.838   7.727  47.312  1.00  0.00     0.020 A 
HETATM   12  C11 UNL     1      29.903   6.844  47.440  1.00  0.00     0.011 A 
HETATM   13 BR1  UNL     1      31.623   7.339  46.799  1.00  0.00    -0.051 Br
HETATM   14  C12 UNL     1      29.734   5.604  48.029  1.00  0.00     0.020 A 
HETATM   15  C13 UNL     1      28.464   5.279  48.484  1.00  0.00     0.022 A 
ENDBRANCH   5   9
ENDBRANCH   3   5
BRANCH   1  16
HETATM   16  C5  UNL     1      26.185   2.392  51.686  1.00  0.00     0.073 A 
HETATM   17  C4  UNL     1      27.380   2.313  52.408  1.00  0.00     0.022 A 
HETATM   18  C3  UNL     1      27.510   1.543  53.554  1.00  0.00     0.028 A 
HETATM   19  C2  UNL     1      26.361   0.861  53.920  1.00  0.00     0.032 A 
HETATM   20  C1  UNL     1      26.394   0.005  55.136  1.00  0.00     0.070 C 
HETATM   21  N3  UNL     1      25.219   0.945  53.216  1.00  0.00    -0.241 NA
HETATM   22  C14 UNL     1      25.087   1.688  52.107  1.00  0.00     0.142 A 
HETATM   23 CL1  UNL     1      23.590   1.786  51.202  1.00  0.00    -0.061 Cl
ENDBRANCH   1  16
TORSDOF 4
ENDMDL
MODEL 9
REMARK VINA RESULT:      -7.0      3.294      6.291
REMARK  4 active torsions:
REMARK  status: ('A' for Active; 'I' for Inactive)
REMARK    1  A    between atoms: C5_5  and  C6_6 
REMARK       I    between atoms: C6_6  and  N1_8 
REMARK    2  A    between atoms: N1_8  and  S1_9 
REMARK    3  A    between atoms: S1_9  and  N2_10 
REMARK    4  A    between atoms: S1_9  and  C8_13 
ROOT
HETATM    1  C6  UNL     1      25.419   2.125  52.363  1.00  0.00     0.265 C 
HETATM    2  O1  UNL     1      25.147   2.037  51.155  1.00  0.00    -0.267 OA
HETATM    3  N1  UNL     1      24.726   2.951  53.300  1.00  0.00    -0.288 N 
HETATM    4  H6  UNL     1      25.014   2.975  54.316  1.00  0.00     0.178 HD
ENDROOT
BRANCH   3   5
HETATM    5  S1  UNL     1      23.394   3.872  52.540  1.00  0.00     0.014 SA
BRANCH   5   6
HETATM    6  N2  UNL     1      23.815   5.257  51.830  1.00  0.00    -0.085 NA
HETATM    7  C7  UNL     1      23.726   5.343  50.415  1.00  0.00     0.308 A 
HETATM    8  O2  UNL     1      24.524   6.170  50.946  1.00  0.00    -0.261 OA
ENDBRANCH   5   6
BRANCH   5   9
HETATM    9  C8  UNL     1      21.783   3.134  52.217  1.00  0.00     0.027 A 
HETATM   10  C9  UNL     1      20.592   3.776  51.949  1.00  0.00     0.022 A 
HETATM   11  C10 UNL     1      19.458   3.021  51.728  1.00  0.00     0.020 A 
HETATM   12  C11 UNL     1      19.504   1.633  51.772  1.00  0.00     0.011 A 
HETATM   13 BR1  UNL     1      17.922   0.626  51.462  1.00  0.00    -0.051 Br
HETATM   14  C12 UNL     1      20.687   0.967  52.038  1.00  0.00     0.020 A 
HETATM   15  C13 UNL     1      21.820   1.737  52.260  1.00  0.00     0.022 A 
ENDBRANCH   5   9
ENDBRANCH   3   5
BRANCH   1  16
HETATM   16  C5  UNL     1      26.549   1.296  52.827  1.00  0.00     0.073 A 
HETATM   17  C4  UNL     1      27.813   1.893  52.866  1.00  0.00     0.022 A 
HETATM   18  C3  UNL     1      28.947   1.213  53.284  1.00  0.00     0.028 A 
HETATM   19  C2  UNL     1      28.722  -0.102  53.655  1.00  0.00     0.032 A 
HETATM   20  C1  UNL     1      29.874  -0.922  54.119  1.00  0.00     0.070 C 
HETATM   21  N3  UNL     1      27.502  -0.664  53.611  1.00  0.00    -0.241 NA
HETATM   22  C14 UNL     1      26.401  -0.011  53.208  1.00  0.00     0.142 A 
HETATM   23 CL1  UNL     1      24.818  -0.759  53.159  1.00  0.00    -0.061 Cl
ENDBRANCH   1  16
TORSDOF 4
ENDMDL
