MODEL 1
REMARK VINA RESULT:      -6.6      0.000      0.000
REMARK  7 active torsions:
REMARK  status: ('A' for Active; 'I' for Inactive)
REMARK    1  A    between atoms: O1_2  and  C2_3 
REMARK    2  A    between atoms: C2_3  and  C3_4 
REMARK    3  A    between atoms: C3_4  and  N1_5 
REMARK    4  A    between atoms: N1_5  and  C4_6 
REMARK    5  A    between atoms: C4_6  and  C5_7 
REMARK    6  A    between atoms: C5_7  and  O2_8 
REMARK    7  A    between atoms: O2_8  and  C6_9 
ROOT
HETATM    1  C6  UNL     1      23.650   1.420  52.490  1.00  0.00     0.079 C 
HETATM    2  C7  UNL     1      23.367   2.662  52.051  1.00  0.00     0.039 C 
HETATM    3  C8  UNL     1      22.061   3.305  52.018  1.00  0.00     0.019 C 
HETATM    4  C9  UNL     1      20.882   2.860  52.437  1.00  0.00     0.084 C 
HETATM    5  N2  UNL     1      20.577   1.592  53.051  1.00  0.00    -0.387 N 
HETATM    6  C10 UNL     1      21.286   0.395  52.712  1.00  0.00     0.145 A 
HETATM    7  C11 UNL     1      20.827  -0.770  53.512  1.00  0.00     0.047 A 
HETATM    8  C12 UNL     1      21.868  -1.287  54.142  1.00  0.00     0.137 A 
HETATM    9  F1  UNL     1      21.991  -2.347  54.989  1.00  0.00    -0.205 F 
HETATM   10  C13 UNL     1      23.106  -0.532  53.848  1.00  0.00     0.083 A 
HETATM   11 CL1  UNL     1      24.743  -0.762  54.392  1.00  0.00    -0.080 Cl
HETATM   12  C14 UNL     1      22.727   0.433  53.029  1.00  0.00     0.026 A 
HETATM   13  H16 UNL     1      19.796   1.689  53.743  1.00  0.00     0.159 HD
ENDROOT
BRANCH   1  14
HETATM   14  O2  UNL     1      24.976   1.108  52.391  1.00  0.00    -0.349 OA
BRANCH  14  15
HETATM   15  C5  UNL     1      26.084   1.949  52.436  1.00  0.00     0.205 C 
BRANCH  15  16
HETATM   16  C4  UNL     1      26.627   2.104  53.848  1.00  0.00     0.296 C 
BRANCH  16  17
HETATM   17  N1  UNL     1      28.011   2.513  53.758  1.00  0.00     0.087 N 
HETATM   18  H8  UNL     1      28.145   3.230  54.514  1.00  0.00     0.316 HD
BRANCH  17  19
HETATM   19  C3  UNL     1      28.882   1.411  53.985  1.00  0.00     0.295 C 
BRANCH  19  20
HETATM   20  C2  UNL     1      28.381   0.331  54.878  1.00  0.00     0.197 C 
BRANCH  20  21
HETATM   21  O1  UNL     1      28.475  -0.867  54.127  1.00  0.00    -0.394 OA
HETATM   22  C1  UNL     1      29.715  -1.054  53.569  1.00  0.00     0.201 C 
ENDBRANCH  20  21
ENDBRANCH  19  20
ENDBRANCH  17  19
ENDBRANCH  16  17
ENDBRANCH  15  16
ENDBRANCH  14  15
ENDBRANCH   1  14
TORSDOF 7
ENDMDL
MODEL 2
REMARK VINA RESULT:      -6.4      2.455      3.365
REMARK  7 active torsions:
REMARK  status: ('A' for Active; 'I' for Inactive)
REMARK    1  A    between atoms: O1_2  and  C2_3 
REMARK    2  A    between atoms: C2_3  and  C3_4 
REMARK    3  A    between atoms: C3_4  and  N1_5 
REMARK    4  A    between atoms: N1_5  and  C4_6 
REMARK    5  A    between atoms: C4_6  and  C5_7 
REMARK    6  A    between atoms: C5_7  and  O2_8 
REMARK    7  A    between atoms: O2_8  and  C6_9 
ROOT
HETATM    1  C6  UNL     1      22.493   0.387  52.669  1.00  0.00     0.079 C 
HETATM    2  C7  UNL     1      23.163  -0.183  53.689  1.00  0.00     0.039 C 
HETATM    3  C8  UNL     1      22.625  -1.089  54.694  1.00  0.00     0.019 C 
HETATM    4  C9  UNL     1      21.403  -1.591  54.822  1.00  0.00     0.084 C 
HETATM    5  N2  UNL     1      20.257  -1.367  53.976  1.00  0.00    -0.387 N 
HETATM    6  C10 UNL     1      20.039  -0.119  53.309  1.00  0.00     0.145 A 
HETATM    7  C11 UNL     1      18.821  -0.147  52.458  1.00  0.00     0.047 A 
HETATM    8  C12 UNL     1      19.164   0.167  51.220  1.00  0.00     0.137 A 
HETATM    9  F1  UNL     1      18.439   0.284  50.072  1.00  0.00    -0.205 F 
HETATM   10  C13 UNL     1      20.617   0.421  51.110  1.00  0.00     0.083 A 
HETATM   11 CL1  UNL     1      21.602   0.866  49.745  1.00  0.00    -0.080 Cl
HETATM   12  C14 UNL     1      21.086   0.237  52.331  1.00  0.00     0.026 A 
HETATM   13  H16 UNL     1      19.648  -2.219  53.937  1.00  0.00     0.159 HD
ENDROOT
BRANCH   1  14
HETATM   14  O2  UNL     1      23.282   1.191  51.896  1.00  0.00    -0.349 OA
BRANCH  14  15
HETATM   15  C5  UNL     1      23.919   2.383  52.229  1.00  0.00     0.205 C 
BRANCH  15  16
HETATM   16  C4  UNL     1      25.433   2.268  52.134  1.00  0.00     0.296 C 
BRANCH  16  17
HETATM   17  N1  UNL     1      25.992   2.578  53.430  1.00  0.00     0.087 N 
HETATM   18  H8  UNL     1      25.188   2.536  54.104  1.00  0.00     0.316 HD
BRANCH  17  19
HETATM   19  C3  UNL     1      26.978   1.620  53.801  1.00  0.00     0.295 C 
BRANCH  19  20
HETATM   20  C2  UNL     1      26.548   0.538  54.728  1.00  0.00     0.197 C 
BRANCH  20  21
HETATM   21  O1  UNL     1      27.733  -0.138  55.111  1.00  0.00    -0.394 OA
HETATM   22  C1  UNL     1      28.861   0.392  54.535  1.00  0.00     0.201 C 
ENDBRANCH  20  21
ENDBRANCH  19  20
ENDBRANCH  17  19
ENDBRANCH  16  17
ENDBRANCH  15  16
ENDBRANCH  14  15
ENDBRANCH   1  14
TORSDOF 7
ENDMDL
MODEL 3
REMARK VINA RESULT:      -6.3      2.192      2.677
REMARK  7 active torsions:
REMARK  status: ('A' for Active; 'I' for Inactive)
REMARK    1  A    between atoms: O1_2  and  C2_3 
REMARK    2  A    between atoms: C2_3  and  C3_4 
REMARK    3  A    between atoms: C3_4  and  N1_5 
REMARK    4  A    between atoms: N1_5  and  C4_6 
REMARK    5  A    between atoms: C4_6  and  C5_7 
REMARK    6  A    between atoms: C5_7  and  O2_8 
REMARK    7  A    between atoms: O2_8  and  C6_9 
ROOT
HETATM    1  C6  UNL     1      23.613   0.820  53.002  1.00  0.00     0.079 C 
HETATM    2  C7  UNL     1      24.440   1.871  53.157  1.00  0.00     0.039 C 
HETATM    3  C8  UNL     1      24.177   3.256  52.792  1.00  0.00     0.019 C 
HETATM    4  C9  UNL     1      23.084   3.809  52.280  1.00  0.00     0.084 C 
HETATM    5  N2  UNL     1      21.837   3.167  51.943  1.00  0.00    -0.387 N 
HETATM    6  C10 UNL     1      21.783   1.816  51.471  1.00  0.00     0.145 A 
HETATM    7  C11 UNL     1      20.387   1.363  51.239  1.00  0.00     0.047 A 
HETATM    8  C12 UNL     1      20.171   0.274  51.957  1.00  0.00     0.137 A 
HETATM    9  F1  UNL     1      19.077  -0.525  52.103  1.00  0.00    -0.205 F 
HETATM   10  C13 UNL     1      21.369  -0.102  52.740  1.00  0.00     0.083 A 
HETATM   11 CL1  UNL     1      21.652  -1.424  53.837  1.00  0.00    -0.080 Cl
HETATM   12  C14 UNL     1      22.271   0.815  52.439  1.00  0.00     0.026 A 
HETATM   13  H16 UNL     1      21.029   3.818  52.091  1.00  0.00     0.159 HD
ENDROOT
BRANCH   1  14
HETATM   14  O2  UNL     1      24.154  -0.355  53.445  1.00  0.00    -0.349 OA
BRANCH  14  15
HETATM   15  C5  UNL     1      25.432  -0.606  53.934  1.00  0.00     0.205 C 
BRANCH  15  16
HETATM   16  C4  UNL     1      26.328  -1.250  52.886  1.00  0.00     0.296 C 
BRANCH  16  17
HETATM   17  N1  UNL     1      27.670  -1.319  53.420  1.00  0.00     0.087 N 
HETATM   18  H8  UNL     1      28.202  -1.950  52.770  1.00  0.00     0.316 HD
BRANCH  17  19
HETATM   19  C3  UNL     1      28.277  -0.032  53.439  1.00  0.00     0.295 C 
BRANCH  19  20
HETATM   20  C2  UNL     1      28.897   0.400  54.722  1.00  0.00     0.197 C 
BRANCH  20  21
HETATM   21  O1  UNL     1      28.863   1.817  54.711  1.00  0.00    -0.394 OA
HETATM   22  C1  UNL     1      28.445   2.333  53.510  1.00  0.00     0.201 C 
ENDBRANCH  20  21
ENDBRANCH  19  20
ENDBRANCH  17  19
ENDBRANCH  16  17
ENDBRANCH  15  16
ENDBRANCH  14  15
ENDBRANCH   1  14
TORSDOF 7
ENDMDL
MODEL 4
REMARK VINA RESULT:      -6.2      2.971      4.765
REMARK  7 active torsions:
REMARK  status: ('A' for Active; 'I' for Inactive)
REMARK    1  A    between atoms: O1_2  and  C2_3 
REMARK    2  A    between atoms: C2_3  and  C3_4 
REMARK    3  A    between atoms: C3_4  and  N1_5 
REMARK    4  A    between atoms: N1_5  and  C4_6 
REMARK    5  A    between atoms: C4_6  and  C5_7 
REMARK    6  A    between atoms: C5_7  and  O2_8 
REMARK    7  A    between atoms: O2_8  and  C6_9 
ROOT
HETATM    1  C6  UNL     1      24.654   1.033  52.369  1.00  0.00     0.079 C 
HETATM    2  C7  UNL     1      25.934   1.069  51.952  1.00  0.00     0.039 C 
HETATM    3  C8  UNL     1      27.035   0.242  52.426  1.00  0.00     0.019 C 
HETATM    4  C9  UNL     1      27.038  -0.742  53.318  1.00  0.00     0.084 C 
HETATM    5  N2  UNL     1      25.925  -1.264  54.070  1.00  0.00    -0.387 N 
HETATM    6  C10 UNL     1      24.837  -0.433  54.491  1.00  0.00     0.145 A 
HETATM    7  C11 UNL     1      23.788  -1.208  55.205  1.00  0.00     0.047 A 
HETATM    8  C12 UNL     1      22.634  -1.027  54.585  1.00  0.00     0.137 A 
HETATM    9  F1  UNL     1      21.381  -1.504  54.828  1.00  0.00    -0.205 F 
HETATM   10  C13 UNL     1      22.786  -0.144  53.408  1.00  0.00     0.083 A 
HETATM   11 CL1  UNL     1      21.622   0.427  52.247  1.00  0.00    -0.080 Cl
HETATM   12  C14 UNL     1      24.070   0.169  53.384  1.00  0.00     0.026 A 
HETATM   13  H16 UNL     1      26.040  -2.291  54.246  1.00  0.00     0.159 HD
ENDROOT
BRANCH   1  14
HETATM   14  O2  UNL     1      23.857   1.939  51.726  1.00  0.00    -0.349 OA
BRANCH  14  15
HETATM   15  C5  UNL     1      23.656   3.288  52.005  1.00  0.00     0.205 C 
BRANCH  15  16
HETATM   16  C4  UNL     1      23.762   4.151  50.756  1.00  0.00     0.296 C 
BRANCH  16  17
HETATM   17  N1  UNL     1      24.820   5.114  50.961  1.00  0.00     0.087 N 
HETATM   18  H8  UNL     1      25.339   4.789  51.814  1.00  0.00     0.316 HD
BRANCH  17  19
HETATM   19  C3  UNL     1      25.705   5.141  49.846  1.00  0.00     0.295 C 
BRANCH  19  20
HETATM   20  C2  UNL     1      26.375   3.860  49.488  1.00  0.00     0.197 C 
BRANCH  20  21
HETATM   21  O1  UNL     1      27.595   4.223  48.864  1.00  0.00    -0.394 OA
HETATM   22  C1  UNL     1      27.639   5.547  48.504  1.00  0.00     0.201 C 
ENDBRANCH  20  21
ENDBRANCH  19  20
ENDBRANCH  17  19
ENDBRANCH  16  17
ENDBRANCH  15  16
ENDBRANCH  14  15
ENDBRANCH   1  14
TORSDOF 7
ENDMDL
MODEL 5
REMARK VINA RESULT:      -6.2      2.519      3.561
REMARK  7 active torsions:
REMARK  status: ('A' for Active; 'I' for Inactive)
REMARK    1  A    between atoms: O1_2  and  C2_3 
REMARK    2  A    between atoms: C2_3  and  C3_4 
REMARK    3  A    between atoms: C3_4  and  N1_5 
REMARK    4  A    between atoms: N1_5  and  C4_6 
REMARK    5  A    between atoms: C4_6  and  C5_7 
REMARK    6  A    between atoms: C5_7  and  O2_8 
REMARK    7  A    between atoms: O2_8  and  C6_9 
ROOT
HETATM    1  C6  UNL     1      23.010   0.221  53.349  1.00  0.00     0.079 C 
HETATM    2  C7  UNL     1      22.678  -0.932  53.962  1.00  0.00     0.039 C 
HETATM    3  C8  UNL     1      21.337  -1.463  54.166  1.00  0.00     0.019 C 
HETATM    4  C9  UNL     1      20.163  -0.983  53.774  1.00  0.00     0.084 C 
HETATM    5  N2  UNL     1      19.899   0.219  53.024  1.00  0.00    -0.387 N 
HETATM    6  C10 UNL     1      20.712   1.391  53.157  1.00  0.00     0.145 A 
HETATM    7  C11 UNL     1      20.273   2.480  52.246  1.00  0.00     0.047 A 
HETATM    8  C12 UNL     1      21.296   2.833  51.486  1.00  0.00     0.137 A 
HETATM    9  F1  UNL     1      21.426   3.768  50.503  1.00  0.00    -0.205 F 
HETATM   10  C13 UNL     1      22.498   2.027  51.791  1.00  0.00     0.083 A 
HETATM   11 CL1  UNL     1      24.101   2.060  51.113  1.00  0.00    -0.080 Cl
HETATM   12  C14 UNL     1      22.118   1.202  52.751  1.00  0.00     0.026 A 
HETATM   13  H16 UNL     1      19.062   0.098  52.404  1.00  0.00     0.159 HD
ENDROOT
BRANCH   1  14
HETATM   14  O2  UNL     1      24.359   0.439  53.318  1.00  0.00    -0.349 OA
BRANCH  14  15
HETATM   15  C5  UNL     1      25.376  -0.241  53.981  1.00  0.00     0.205 C 
BRANCH  15  16
HETATM   16  C4  UNL     1      26.411  -0.802  53.017  1.00  0.00     0.296 C 
BRANCH  16  17
HETATM   17  N1  UNL     1      27.622  -1.071  53.760  1.00  0.00     0.087 N 
HETATM   18  H8  UNL     1      28.386  -1.139  53.043  1.00  0.00     0.316 HD
BRANCH  17  19
HETATM   19  C3  UNL     1      27.909  -0.011  54.665  1.00  0.00     0.295 C 
BRANCH  19  20
HETATM   20  C2  UNL     1      29.233   0.655  54.523  1.00  0.00     0.197 C 
BRANCH  20  21
HETATM   21  O1  UNL     1      28.971   2.047  54.546  1.00  0.00    -0.394 OA
HETATM   22  C1  UNL     1      28.476   2.519  53.356  1.00  0.00     0.201 C 
ENDBRANCH  20  21
ENDBRANCH  19  20
ENDBRANCH  17  19
ENDBRANCH  16  17
ENDBRANCH  15  16
ENDBRANCH  14  15
ENDBRANCH   1  14
TORSDOF 7
ENDMDL
MODEL 6
REMARK VINA RESULT:      -6.0      3.169      5.549
REMARK  7 active torsions:
REMARK  status: ('A' for Active; 'I' for Inactive)
REMARK    1  A    between atoms: O1_2  and  C2_3 
REMARK    2  A    between atoms: C2_3  and  C3_4 
REMARK    3  A    between atoms: C3_4  and  N1_5 
REMARK    4  A    between atoms: N1_5  and  C4_6 
REMARK    5  A    between atoms: C4_6  and  C5_7 
REMARK    6  A    between atoms: C5_7  and  O2_8 
REMARK    7  A    between atoms: O2_8  and  C6_9 
ROOT
HETATM    1  C6  UNL     1      24.651   1.011  52.363  1.00  0.00     0.079 C 
HETATM    2  C7  UNL     1      25.910   1.073  51.889  1.00  0.00     0.039 C 
HETATM    3  C8  UNL     1      27.048   0.272  52.316  1.00  0.00     0.019 C 
HETATM    4  C9  UNL     1      27.113  -0.708  53.210  1.00  0.00     0.084 C 
HETATM    5  N2  UNL     1      26.046  -1.251  54.013  1.00  0.00    -0.387 N 
HETATM    6  C10 UNL     1      24.960  -0.441  54.480  1.00  0.00     0.145 A 
HETATM    7  C11 UNL     1      23.962  -1.235  55.243  1.00  0.00     0.047 A 
HETATM    8  C12 UNL     1      22.778  -1.082  54.675  1.00  0.00     0.137 A 
HETATM    9  F1  UNL     1      21.547  -1.584  54.976  1.00  0.00    -0.205 F 
HETATM   10  C13 UNL     1      22.857  -0.200  53.490  1.00  0.00     0.083 A 
HETATM   11 CL1  UNL     1      21.630   0.341  52.380  1.00  0.00    -0.080 Cl
HETATM   12  C14 UNL     1      24.131   0.140  53.406  1.00  0.00     0.026 A 
HETATM   13  H16 UNL     1      26.191  -2.273  54.188  1.00  0.00     0.159 HD
ENDROOT
BRANCH   1  14
HETATM   14  O2  UNL     1      23.807   1.897  51.754  1.00  0.00    -0.349 OA
BRANCH  14  15
HETATM   15  C5  UNL     1      24.000   3.247  51.475  1.00  0.00     0.205 C 
BRANCH  15  16
HETATM   16  C4  UNL     1      23.557   4.138  52.626  1.00  0.00     0.296 C 
BRANCH  16  17
HETATM   17  N1  UNL     1      23.818   5.512  52.261  1.00  0.00     0.087 N 
HETATM   18  H8  UNL     1      24.469   5.883  52.996  1.00  0.00     0.316 HD
BRANCH  17  19
HETATM   19  C3  UNL     1      24.444   5.588  50.985  1.00  0.00     0.295 C 
BRANCH  19  20
HETATM   20  C2  UNL     1      24.764   6.949  50.473  1.00  0.00     0.197 C 
BRANCH  20  21
HETATM   21  O1  UNL     1      23.712   7.788  50.920  1.00  0.00    -0.394 OA
HETATM   22  C1  UNL     1      22.995   8.342  49.889  1.00  0.00     0.201 C 
ENDBRANCH  20  21
ENDBRANCH  19  20
ENDBRANCH  17  19
ENDBRANCH  16  17
ENDBRANCH  15  16
ENDBRANCH  14  15
ENDBRANCH   1  14
TORSDOF 7
ENDMDL
MODEL 7
REMARK VINA RESULT:      -5.9      2.551      5.865
REMARK  7 active torsions:
REMARK  status: ('A' for Active; 'I' for Inactive)
REMARK    1  A    between atoms: O1_2  and  C2_3 
REMARK    2  A    between atoms: C2_3  and  C3_4 
REMARK    3  A    between atoms: C3_4  and  N1_5 
REMARK    4  A    between atoms: N1_5  and  C4_6 
REMARK    5  A    between atoms: C4_6  and  C5_7 
REMARK    6  A    between atoms: C5_7  and  O2_8 
REMARK    7  A    between atoms: O2_8  and  C6_9 
ROOT
HETATM    1  C6  UNL     1      24.672   0.927  52.341  1.00  0.00     0.079 C 
HETATM    2  C7  UNL     1      25.934   1.010  51.878  1.00  0.00     0.039 C 
HETATM    3  C8  UNL     1      27.090   0.256  52.343  1.00  0.00     0.019 C 
HETATM    4  C9  UNL     1      27.173  -0.692  53.269  1.00  0.00     0.084 C 
HETATM    5  N2  UNL     1      26.113  -1.240  54.078  1.00  0.00    -0.387 N 
HETATM    6  C10 UNL     1      24.999  -0.448  54.506  1.00  0.00     0.145 A 
HETATM    7  C11 UNL     1      24.015  -1.246  55.284  1.00  0.00     0.047 A 
HETATM    8  C12 UNL     1      22.834  -1.146  54.699  1.00  0.00     0.137 A 
HETATM    9  F1  UNL     1      21.615  -1.674  55.002  1.00  0.00    -0.205 F 
HETATM   10  C13 UNL     1      22.901  -0.301  53.487  1.00  0.00     0.083 A 
HETATM   11 CL1  UNL     1      21.672   0.168  52.347  1.00  0.00    -0.080 Cl
HETATM   12  C14 UNL     1      24.166   0.074  53.406  1.00  0.00     0.026 A 
HETATM   13  H16 UNL     1      26.286  -2.252  54.287  1.00  0.00     0.159 HD
ENDROOT
BRANCH   1  14
HETATM   14  O2  UNL     1      23.810   1.767  51.694  1.00  0.00    -0.349 OA
BRANCH  14  15
HETATM   15  C5  UNL     1      23.954   3.120  51.400  1.00  0.00     0.205 C 
BRANCH  15  16
HETATM   16  C4  UNL     1      23.378   4.008  52.494  1.00  0.00     0.296 C 
BRANCH  16  17
HETATM   17  N1  UNL     1      22.178   4.631  51.984  1.00  0.00     0.087 N 
HETATM   18  H8  UNL     1      22.369   4.831  50.972  1.00  0.00     0.316 HD
BRANCH  17  19
HETATM   19  C3  UNL     1      21.063   3.752  52.095  1.00  0.00     0.295 C 
BRANCH  19  20
HETATM   20  C2  UNL     1      19.837   4.123  51.336  1.00  0.00     0.197 C 
BRANCH  20  21
HETATM   21  O1  UNL     1      18.754   3.545  52.045  1.00  0.00    -0.394 OA
HETATM   22  C1  UNL     1      18.365   2.333  51.532  1.00  0.00     0.201 C 
ENDBRANCH  20  21
ENDBRANCH  19  20
ENDBRANCH  17  19
ENDBRANCH  16  17
ENDBRANCH  15  16
ENDBRANCH  14  15
ENDBRANCH   1  14
TORSDOF 7
ENDMDL
MODEL 8
REMARK VINA RESULT:      -5.8      2.763      5.476
REMARK  7 active torsions:
REMARK  status: ('A' for Active; 'I' for Inactive)
REMARK    1  A    between atoms: O1_2  and  C2_3 
REMARK    2  A    between atoms: C2_3  and  C3_4 
REMARK    3  A    between atoms: C3_4  and  N1_5 
REMARK    4  A    between atoms: N1_5  and  C4_6 
REMARK    5  A    between atoms: C4_6  and  C5_7 
REMARK    6  A    between atoms: C5_7  and  O2_8 
REMARK    7  A    between atoms: O2_8  and  C6_9 
ROOT
HETATM    1  C6  UNL     1      24.568   0.879  52.320  1.00  0.00     0.079 C 
HETATM    2  C7  UNL     1      25.825   1.007  51.855  1.00  0.00     0.039 C 
HETATM    3  C8  UNL     1      27.014   0.320  52.339  1.00  0.00     0.019 C 
HETATM    4  C9  UNL     1      27.140  -0.600  53.288  1.00  0.00     0.084 C 
HETATM    5  N2  UNL     1      26.105  -1.175  54.111  1.00  0.00    -0.387 N 
HETATM    6  C10 UNL     1      24.956  -0.424  54.520  1.00  0.00     0.145 A 
HETATM    7  C11 UNL     1      24.009  -1.246  55.318  1.00  0.00     0.047 A 
HETATM    8  C12 UNL     1      22.825  -1.215  54.732  1.00  0.00     0.137 A 
HETATM    9  F1  UNL     1      21.631  -1.790  55.049  1.00  0.00    -0.205 F 
HETATM   10  C13 UNL     1      22.855  -0.399  53.498  1.00  0.00     0.083 A 
HETATM   11 CL1  UNL     1      21.606  -0.015  52.348  1.00  0.00    -0.080 Cl
HETATM   12  C14 UNL     1      24.101   0.031  53.407  1.00  0.00     0.026 A 
HETATM   13  H16 UNL     1      26.324  -2.172  54.346  1.00  0.00     0.159 HD
ENDROOT
BRANCH   1  14
HETATM   14  O2  UNL     1      23.669   1.662  51.653  1.00  0.00    -0.349 OA
BRANCH  14  15
HETATM   15  C5  UNL     1      23.332   2.995  51.870  1.00  0.00     0.205 C 
BRANCH  15  16
HETATM   16  C4  UNL     1      23.662   3.871  50.671  1.00  0.00     0.296 C 
BRANCH  16  17
HETATM   17  N1  UNL     1      23.830   3.014  49.518  1.00  0.00     0.087 N 
HETATM   18  H8  UNL     1      23.539   2.056  49.832  1.00  0.00     0.316 HD
BRANCH  17  19
HETATM   19  C3  UNL     1      22.998   3.439  48.444  1.00  0.00     0.295 C 
BRANCH  19  20
HETATM   20  C2  UNL     1      22.164   2.396  47.787  1.00  0.00     0.197 C 
BRANCH  20  21
HETATM   21  O1  UNL     1      21.956   1.392  48.766  1.00  0.00    -0.394 OA
HETATM   22  C1  UNL     1      20.650   1.308  49.177  1.00  0.00     0.201 C 
ENDBRANCH  20  21
ENDBRANCH  19  20
ENDBRANCH  17  19
ENDBRANCH  16  17
ENDBRANCH  15  16
ENDBRANCH  14  15
ENDBRANCH   1  14
TORSDOF 7
ENDMDL
MODEL 9
REMARK VINA RESULT:      -5.6      2.647      6.326
REMARK  7 active torsions:
REMARK  status: ('A' for Active; 'I' for Inactive)
REMARK    1  A    between atoms: O1_2  and  C2_3 
REMARK    2  A    between atoms: C2_3  and  C3_4 
REMARK    3  A    between atoms: C3_4  and  N1_5 
REMARK    4  A    between atoms: N1_5  and  C4_6 
REMARK    5  A    between atoms: C4_6  and  C5_7 
REMARK    6  A    between atoms: C5_7  and  O2_8 
REMARK    7  A    between atoms: O2_8  and  C6_9 
ROOT
HETATM    1  C6  UNL     1      24.557   1.276  52.779  1.00  0.00     0.079 C 
HETATM    2  C7  UNL     1      24.019   1.872  51.698  1.00  0.00     0.039 C 
HETATM    3  C8  UNL     1      24.695   2.749  50.751  1.00  0.00     0.019 C 
HETATM    4  C9  UNL     1      25.966   3.126  50.698  1.00  0.00     0.084 C 
HETATM    5  N2  UNL     1      27.041   2.757  51.585  1.00  0.00    -0.387 N 
HETATM    6  C10 UNL     1      26.823   2.507  52.979  1.00  0.00     0.145 A 
HETATM    7  C11 UNL     1      28.071   2.095  53.673  1.00  0.00     0.047 A 
HETATM    8  C12 UNL     1      27.865   0.924  54.252  1.00  0.00     0.137 A 
HETATM    9  F1  UNL     1      28.670   0.120  55.001  1.00  0.00    -0.205 F 
HETATM   10  C13 UNL     1      26.493   0.432  54.002  1.00  0.00     0.083 A 
HETATM   11 CL1  UNL     1      25.687  -1.024  54.513  1.00  0.00    -0.080 Cl
HETATM   12  C14 UNL     1      25.928   1.367  53.258  1.00  0.00     0.026 A 
HETATM   13  H16 UNL     1      27.952   2.707  51.070  1.00  0.00     0.159 HD
ENDROOT
BRANCH   1  14
HETATM   14  O2  UNL     1      23.660   0.511  53.469  1.00  0.00    -0.349 OA
BRANCH  14  15
HETATM   15  C5  UNL     1      22.633  -0.294  52.984  1.00  0.00     0.205 C 
BRANCH  15  16
HETATM   16  C4  UNL     1      21.962  -1.093  54.091  1.00  0.00     0.296 C 
BRANCH  16  17
HETATM   17  N1  UNL     1      20.956  -0.258  54.706  1.00  0.00     0.087 N 
HETATM   18  H8  UNL     1      21.465   0.593  55.051  1.00  0.00     0.316 HD
BRANCH  17  19
HETATM   19  C3  UNL     1      19.967   0.129  53.757  1.00  0.00     0.295 C 
BRANCH  19  20
HETATM   20  C2  UNL     1      19.019  -0.926  53.307  1.00  0.00     0.197 C 
BRANCH  20  21
HETATM   21  O1  UNL     1      18.449  -0.445  52.101  1.00  0.00    -0.394 OA
HETATM   22  C1  UNL     1      19.331   0.287  51.347  1.00  0.00     0.201 C 
ENDBRANCH  20  21
ENDBRANCH  19  20
ENDBRANCH  17  19
ENDBRANCH  16  17
ENDBRANCH  15  16
ENDBRANCH  14  15
ENDBRANCH   1  14
TORSDOF 7
ENDMDL
