MODEL 1
REMARK VINA RESULT:     -10.6      0.000      0.000
REMARK  0 active torsions:
REMARK  status: ('A' for Active; 'I' for Inactive)
ROOT
HETATM    1  F1  UNL     1      24.624  -1.100  55.625  1.00  0.00    -0.243 F 
HETATM    2  C1  UNL     1      23.724  -0.792  54.592  1.00  0.00     0.114 C 
HETATM    3  C2  UNL     1      22.509  -0.753  53.979  1.00  0.00     0.151 C 
HETATM    4  C3  UNL     1      21.118  -1.203  54.292  1.00  0.00     0.007 C 
HETATM    5  C4  UNL     1      20.545  -0.754  53.146  1.00  0.00     0.007 C 
HETATM    6  C5  UNL     1      21.423  -0.089  52.192  1.00  0.00     0.061 C 
HETATM    7  C6  UNL     1      20.684   0.295  50.942  1.00  0.00     0.044 C 
HETATM    8  C7  UNL     1      19.605   1.252  51.195  1.00  0.00    -0.055 C 
HETATM    9  C8  UNL     1      19.392   2.559  51.083  1.00  0.00     0.007 C 
HETATM   10  C9  UNL     1      20.180   3.679  50.638  1.00  0.00    -0.003 C 
HETATM   11  C10 UNL     1      21.362   4.004  50.168  1.00  0.00    -0.025 C 
HETATM   12  C11 UNL     1      22.155   5.157  49.717  1.00  0.00     0.057 C 
HETATM   13  C12 UNL     1      23.417   5.350  50.538  1.00  0.00     0.276 C 
HETATM   14  N1  UNL     1      24.336   4.252  50.454  1.00  0.00     0.093 N 
HETATM   15  C13 UNL     1      25.556   4.711  49.808  1.00  0.00     0.298 C 
HETATM   16  C14 UNL     1      26.578   3.597  49.732  1.00  0.00     0.198 C 
HETATM   17  O1  UNL     1      26.111   2.452  50.382  1.00  0.00    -0.382 OA
HETATM   18  C15 UNL     1      25.852   2.882  51.708  1.00  0.00     0.157 C 
HETATM   19  C16 UNL     1      24.560   3.608  51.717  1.00  0.00     0.305 C 
HETATM   20  C17 UNL     1      25.946   1.699  52.651  1.00  0.00     0.043 C 
HETATM   21  C18 UNL     1      26.889   0.685  52.040  1.00  0.00    -0.019 C 
HETATM   22  C19 UNL     1      26.873  -0.592  52.359  1.00  0.00    -0.003 C 
HETATM   23  C20 UNL     1      25.673  -0.945  53.142  1.00  0.00     0.005 C 
HETATM   24  C21 UNL     1      24.630  -0.197  53.564  1.00  0.00    -0.045 C 
HETATM   25  C22 UNL     1      24.587   1.121  52.874  1.00  0.00     0.048 C 
HETATM   26  C23 UNL     1      18.314   0.780  51.759  1.00  0.00     0.049 C 
HETATM   27  C24 UNL     1      18.112  -0.293  52.561  1.00  0.00     0.104 C 
HETATM   28 CL1  UNL     1      16.474  -0.785  52.897  1.00  0.00    -0.065 Cl
HETATM   29  N2  UNL     1      19.155  -1.073  53.185  1.00  0.00    -0.351 N 
HETATM   30  H28 UNL     1      18.951  -1.929  53.713  1.00  0.00     0.166 HD
ENDROOT
TORSDOF 0
ENDMDL
MODEL 2
REMARK VINA RESULT:     -10.1      2.487      4.962
REMARK  0 active torsions:
REMARK  status: ('A' for Active; 'I' for Inactive)
ROOT
HETATM    1  F1  UNL     1      22.650   2.302  47.522  1.00  0.00    -0.243 F 
HETATM    2  C1  UNL     1      22.124   2.009  48.791  1.00  0.00     0.114 C 
HETATM    3  C2  UNL     1      21.180   1.576  49.670  1.00  0.00     0.151 C 
HETATM    4  C3  UNL     1      19.788   1.035  49.591  1.00  0.00     0.007 C 
HETATM    5  C4  UNL     1      19.611   0.858  50.925  1.00  0.00     0.007 C 
HETATM    6  C5  UNL     1      20.727   1.224  51.788  1.00  0.00     0.061 C 
HETATM    7  C6  UNL     1      20.380   1.050  53.238  1.00  0.00     0.044 C 
HETATM    8  C7  UNL     1      20.075  -0.341  53.583  1.00  0.00    -0.055 C 
HETATM    9  C8  UNL     1      20.681  -1.376  54.154  1.00  0.00     0.007 C 
HETATM   10  C9  UNL     1      21.987  -1.601  54.718  1.00  0.00    -0.003 C 
HETATM   11  C10 UNL     1      23.138  -1.016  54.953  1.00  0.00    -0.025 C 
HETATM   12  C11 UNL     1      24.467  -1.260  55.532  1.00  0.00     0.057 C 
HETATM   13  C12 UNL     1      25.585  -1.057  54.525  1.00  0.00     0.276 C 
HETATM   14  N1  UNL     1      25.674   0.283  54.022  1.00  0.00     0.093 N 
HETATM   15  C13 UNL     1      26.939   0.861  54.450  1.00  0.00     0.298 C 
HETATM   16  C14 UNL     1      27.102   2.265  53.909  1.00  0.00     0.198 C 
HETATM   17  O1  UNL     1      26.036   2.597  53.068  1.00  0.00    -0.382 OA
HETATM   18  C15 UNL     1      26.062   1.603  52.058  1.00  0.00     0.157 C 
HETATM   19  C16 UNL     1      25.452   0.368  52.606  1.00  0.00     0.305 C 
HETATM   20  C17 UNL     1      25.422   2.146  50.796  1.00  0.00     0.043 C 
HETATM   21  C18 UNL     1      25.588   3.651  50.795  1.00  0.00    -0.019 C 
HETATM   22  C19 UNL     1      24.813   4.458  50.102  1.00  0.00    -0.003 C 
HETATM   23  C20 UNL     1      23.625   3.757  49.576  1.00  0.00     0.005 C 
HETATM   24  C21 UNL     1      23.223   2.472  49.691  1.00  0.00    -0.045 C 
HETATM   25  C22 UNL     1      23.981   1.754  50.752  1.00  0.00     0.048 C 
HETATM   26  C23 UNL     1      18.747  -0.914  53.242  1.00  0.00     0.049 C 
HETATM   27  C24 UNL     1      17.935  -0.553  52.220  1.00  0.00     0.104 C 
HETATM   28 CL1  UNL     1      16.320  -1.206  52.168  1.00  0.00    -0.065 Cl
HETATM   29  N2  UNL     1      18.303   0.332  51.139  1.00  0.00    -0.351 N 
HETATM   30  H28 UNL     1      17.622   0.641  50.435  1.00  0.00     0.166 HD
ENDROOT
TORSDOF 0
ENDMDL
MODEL 3
REMARK VINA RESULT:     -10.0      3.112      6.235
REMARK  0 active torsions:
REMARK  status: ('A' for Active; 'I' for Inactive)
ROOT
HETATM    1  F1  UNL     1      26.525  -1.523  53.011  1.00  0.00    -0.243 F 
HETATM    2  C1  UNL     1      25.962  -0.293  52.633  1.00  0.00     0.114 C 
HETATM    3  C2  UNL     1      25.957   0.944  52.065  1.00  0.00     0.151 C 
HETATM    4  C3  UNL     1      26.936   1.812  51.343  1.00  0.00     0.007 C 
HETATM    5  C4  UNL     1      26.095   2.855  51.127  1.00  0.00     0.007 C 
HETATM    6  C5  UNL     1      24.734   2.712  51.629  1.00  0.00     0.061 C 
HETATM    7  C6  UNL     1      23.928   3.957  51.390  1.00  0.00     0.044 C 
HETATM    8  C7  UNL     1      23.776   4.267  49.967  1.00  0.00    -0.055 C 
HETATM    9  C8  UNL     1      22.859   4.133  49.015  1.00  0.00     0.007 C 
HETATM   10  C9  UNL     1      21.528   3.584  48.961  1.00  0.00    -0.003 C 
HETATM   11  C10 UNL     1      20.608   3.000  49.693  1.00  0.00    -0.025 C 
HETATM   12  C11 UNL     1      19.249   2.444  49.622  1.00  0.00     0.057 C 
HETATM   13  C12 UNL     1      19.205   0.971  49.987  1.00  0.00     0.276 C 
HETATM   14  N1  UNL     1      19.616   0.696  51.333  1.00  0.00     0.093 N 
HETATM   15  C13 UNL     1      18.479   0.166  52.071  1.00  0.00     0.298 C 
HETATM   16  C14 UNL     1      18.871  -0.181  53.491  1.00  0.00     0.198 C 
HETATM   17  O1  UNL     1      20.241   0.015  53.688  1.00  0.00    -0.382 OA
HETATM   18  C15 UNL     1      20.857  -0.817  52.719  1.00  0.00     0.157 C 
HETATM   19  C16 UNL     1      20.786  -0.133  51.406  1.00  0.00     0.305 C 
HETATM   20  C17 UNL     1      22.248  -1.194  53.188  1.00  0.00     0.043 C 
HETATM   21  C18 UNL     1      22.261  -1.154  54.701  1.00  0.00    -0.019 C 
HETATM   22  C19 UNL     1      23.364  -1.009  55.405  1.00  0.00    -0.003 C 
HETATM   23  C20 UNL     1      24.506  -0.615  54.557  1.00  0.00     0.005 C 
HETATM   24  C21 UNL     1      24.595  -0.386  53.228  1.00  0.00    -0.045 C 
HETATM   25  C22 UNL     1      23.250  -0.252  52.605  1.00  0.00     0.048 C 
HETATM   26  C23 UNL     1      24.894   4.904  49.225  1.00  0.00     0.049 C 
HETATM   27  C24 UNL     1      26.219   4.796  49.486  1.00  0.00     0.104 C 
HETATM   28 CL1  UNL     1      27.326   5.830  48.622  1.00  0.00    -0.065 Cl
HETATM   29  N2  UNL     1      26.809   3.872  50.426  1.00  0.00    -0.351 N 
HETATM   30  H28 UNL     1      27.810   3.890  50.650  1.00  0.00     0.166 HD
ENDROOT
TORSDOF 0
ENDMDL
MODEL 4
REMARK VINA RESULT:      -9.9      2.837      5.681
REMARK  0 active torsions:
REMARK  status: ('A' for Active; 'I' for Inactive)
ROOT
HETATM    1  F1  UNL     1      27.175   2.605  49.174  1.00  0.00    -0.243 F 
HETATM    2  C1  UNL     1      26.004   2.964  49.861  1.00  0.00     0.114 C 
HETATM    3  C2  UNL     1      24.813   3.602  50.029  1.00  0.00     0.151 C 
HETATM    4  C3  UNL     1      23.959   4.536  49.233  1.00  0.00     0.007 C 
HETATM    5  C4  UNL     1      22.961   4.655  50.146  1.00  0.00     0.007 C 
HETATM    6  C5  UNL     1      23.115   3.903  51.385  1.00  0.00     0.061 C 
HETATM    7  C6  UNL     1      21.985   4.175  52.336  1.00  0.00     0.044 C 
HETATM    8  C7  UNL     1      20.685   3.761  51.801  1.00  0.00    -0.055 C 
HETATM    9  C8  UNL     1      19.840   2.744  51.926  1.00  0.00     0.007 C 
HETATM   10  C9  UNL     1      19.831   1.522  52.689  1.00  0.00    -0.003 C 
HETATM   11  C10 UNL     1      20.532   0.825  53.553  1.00  0.00    -0.025 C 
HETATM   12  C11 UNL     1      20.509  -0.426  54.325  1.00  0.00     0.057 C 
HETATM   13  C12 UNL     1      21.680  -1.334  53.995  1.00  0.00     0.276 C 
HETATM   14  N1  UNL     1      22.959  -0.765  54.307  1.00  0.00     0.093 N 
HETATM   15  C13 UNL     1      23.580  -1.557  55.358  1.00  0.00     0.298 C 
HETATM   16  C14 UNL     1      24.955  -1.021  55.696  1.00  0.00     0.198 C 
HETATM   17  O1  UNL     1      25.297   0.035  54.847  1.00  0.00    -0.382 OA
HETATM   18  C15 UNL     1      25.219  -0.522  53.546  1.00  0.00     0.157 C 
HETATM   19  C16 UNL     1      23.792  -0.586  53.151  1.00  0.00     0.305 C 
HETATM   20  C17 UNL     1      26.124   0.253  52.609  1.00  0.00     0.043 C 
HETATM   21  C18 UNL     1      27.244   0.857  53.429  1.00  0.00    -0.019 C 
HETATM   22  C19 UNL     1      27.939   1.903  53.035  1.00  0.00    -0.003 C 
HETATM   23  C20 UNL     1      27.319   2.563  51.870  1.00  0.00     0.005 C 
HETATM   24  C21 UNL     1      26.196   2.277  51.174  1.00  0.00    -0.045 C 
HETATM   25  C22 UNL     1      25.335   1.305  51.900  1.00  0.00     0.048 C 
HETATM   26  C23 UNL     1      19.991   4.614  50.802  1.00  0.00     0.049 C 
HETATM   27  C24 UNL     1      20.558   5.456  49.906  1.00  0.00     0.104 C 
HETATM   28 CL1  UNL     1      19.525   6.530  49.002  1.00  0.00    -0.065 Cl
HETATM   29  N2  UNL     1      21.971   5.535  49.618  1.00  0.00    -0.351 N 
HETATM   30  H28 UNL     1      22.359   6.251  48.993  1.00  0.00     0.166 HD
ENDROOT
TORSDOF 0
ENDMDL
MODEL 5
REMARK VINA RESULT:      -9.5      3.480      6.566
REMARK  0 active torsions:
REMARK  status: ('A' for Active; 'I' for Inactive)
ROOT
HETATM    1  F1  UNL     1      24.718  -0.812  52.736  1.00  0.00    -0.243 F 
HETATM    2  C1  UNL     1      24.464   0.474  52.234  1.00  0.00     0.114 C 
HETATM    3  C2  UNL     1      24.791   1.674  51.679  1.00  0.00     0.151 C 
HETATM    4  C3  UNL     1      26.039   2.349  51.207  1.00  0.00     0.007 C 
HETATM    5  C4  UNL     1      25.450   3.501  50.796  1.00  0.00     0.007 C 
HETATM    6  C5  UNL     1      24.004   3.592  50.962  1.00  0.00     0.061 C 
HETATM    7  C6  UNL     1      23.487   4.936  50.537  1.00  0.00     0.044 C 
HETATM    8  C7  UNL     1      23.724   5.210  49.118  1.00  0.00    -0.055 C 
HETATM    9  C8  UNL     1      23.044   5.182  47.976  1.00  0.00     0.007 C 
HETATM   10  C9  UNL     1      21.693   4.846  47.609  1.00  0.00    -0.003 C 
HETATM   11  C10 UNL     1      20.546   4.442  48.104  1.00  0.00    -0.025 C 
HETATM   12  C11 UNL     1      19.170   4.102  47.714  1.00  0.00     0.057 C 
HETATM   13  C12 UNL     1      18.805   2.669  48.061  1.00  0.00     0.276 C 
HETATM   14  N1  UNL     1      18.841   2.387  49.466  1.00  0.00     0.093 N 
HETATM   15  C13 UNL     1      17.493   2.070  49.914  1.00  0.00     0.298 C 
HETATM   16  C14 UNL     1      17.482   1.723  51.388  1.00  0.00     0.198 C 
HETATM   17  O1  UNL     1      18.781   1.711  51.903  1.00  0.00    -0.382 OA
HETATM   18  C15 UNL     1      19.464   0.756  51.109  1.00  0.00     0.157 C 
HETATM   19  C16 UNL     1      19.813   1.390  49.816  1.00  0.00     0.305 C 
HETATM   20  C17 UNL     1      20.629   0.185  51.894  1.00  0.00     0.043 C 
HETATM   21  C18 UNL     1      20.295   0.282  53.368  1.00  0.00    -0.019 C 
HETATM   22  C19 UNL     1      21.211   0.282  54.313  1.00  0.00    -0.003 C 
HETATM   23  C20 UNL     1      22.568   0.459  53.759  1.00  0.00     0.005 C 
HETATM   24  C21 UNL     1      22.999   0.618  52.488  1.00  0.00    -0.045 C 
HETATM   25  C22 UNL     1      21.877   0.936  51.564  1.00  0.00     0.048 C 
HETATM   26  C23 UNL     1      25.072   5.634  48.661  1.00  0.00     0.049 C 
HETATM   27  C24 UNL     1      26.264   5.332  49.228  1.00  0.00     0.104 C 
HETATM   28 CL1  UNL     1      27.693   6.146  48.649  1.00  0.00    -0.065 Cl
HETATM   29  N2  UNL     1      26.461   4.365  50.283  1.00  0.00    -0.351 N 
HETATM   30  H28 UNL     1      27.372   4.236  50.737  1.00  0.00     0.166 HD
ENDROOT
TORSDOF 0
ENDMDL
MODEL 6
REMARK VINA RESULT:      -9.4      1.888      3.064
REMARK  0 active torsions:
REMARK  status: ('A' for Active; 'I' for Inactive)
ROOT
HETATM    1  F1  UNL     1      25.879   2.030  53.761  1.00  0.00    -0.243 F 
HETATM    2  C1  UNL     1      24.682   1.722  53.093  1.00  0.00     0.114 C 
HETATM    3  C2  UNL     1      23.498   1.077  52.908  1.00  0.00     0.151 C 
HETATM    4  C3  UNL     1      22.705   0.034  53.627  1.00  0.00     0.007 C 
HETATM    5  C4  UNL     1      21.665  -0.004  52.755  1.00  0.00     0.007 C 
HETATM    6  C5  UNL     1      21.741   0.892  51.608  1.00  0.00     0.061 C 
HETATM    7  C6  UNL     1      20.570   0.703  50.687  1.00  0.00     0.044 C 
HETATM    8  C7  UNL     1      19.291   1.017  51.328  1.00  0.00    -0.055 C 
HETATM    9  C8  UNL     1      18.419   2.019  51.364  1.00  0.00     0.007 C 
HETATM   10  C9  UNL     1      18.346   3.321  50.753  1.00  0.00    -0.003 C 
HETATM   11  C10 UNL     1      18.988   4.133  49.945  1.00  0.00    -0.025 C 
HETATM   12  C11 UNL     1      18.900   5.465  49.328  1.00  0.00     0.057 C 
HETATM   13  C12 UNL     1      20.067   6.359  49.708  1.00  0.00     0.276 C 
HETATM   14  N1  UNL     1      21.340   5.864  49.270  1.00  0.00     0.093 N 
HETATM   15  C13 UNL     1      21.891   6.790  48.291  1.00  0.00     0.298 C 
HETATM   16  C14 UNL     1      23.258   6.334  47.827  1.00  0.00     0.198 C 
HETATM   17  O1  UNL     1      23.664   5.195  48.528  1.00  0.00    -0.382 OA
HETATM   18  C15 UNL     1      23.641   5.594  49.888  1.00  0.00     0.157 C 
HETATM   19  C16 UNL     1      22.235   5.573  50.355  1.00  0.00     0.305 C 
HETATM   20  C17 UNL     1      24.607   4.738  50.682  1.00  0.00     0.043 C 
HETATM   21  C18 UNL     1      25.697   4.265  49.744  1.00  0.00    -0.019 C 
HETATM   22  C19 UNL     1      26.432   3.199  49.978  1.00  0.00    -0.003 C 
HETATM   23  C20 UNL     1      25.886   2.390  51.085  1.00  0.00     0.005 C 
HETATM   24  C21 UNL     1      24.794   2.563  51.863  1.00  0.00    -0.045 C 
HETATM   25  C22 UNL     1      23.877   3.590  51.299  1.00  0.00     0.048 C 
HETATM   26  C23 UNL     1      18.665   0.035  52.251  1.00  0.00     0.049 C 
HETATM   27  C24 UNL     1      19.294  -0.891  53.013  1.00  0.00     0.104 C 
HETATM   28 CL1  UNL     1      18.330  -2.091  53.832  1.00  0.00    -0.065 Cl
HETATM   29  N2  UNL     1      20.722  -0.966  53.222  1.00  0.00    -0.351 N 
HETATM   30  H28 UNL     1      21.155  -1.739  53.739  1.00  0.00     0.166 HD
ENDROOT
TORSDOF 0
ENDMDL
MODEL 7
REMARK VINA RESULT:      -9.2      3.946      8.182
REMARK  0 active torsions:
REMARK  status: ('A' for Active; 'I' for Inactive)
ROOT
HETATM    1  F1  UNL     1      20.051   7.629  50.120  1.00  0.00    -0.243 F 
HETATM    2  C1  UNL     1      21.037   6.661  49.869  1.00  0.00     0.114 C 
HETATM    3  C2  UNL     1      22.275   6.217  49.517  1.00  0.00     0.151 C 
HETATM    4  C3  UNL     1      23.570   6.830  49.093  1.00  0.00     0.007 C 
HETATM    5  C4  UNL     1      24.259   5.669  48.956  1.00  0.00     0.007 C 
HETATM    6  C5  UNL     1      23.533   4.439  49.251  1.00  0.00     0.061 C 
HETATM    7  C6  UNL     1      24.381   3.227  48.993  1.00  0.00     0.044 C 
HETATM    8  C7  UNL     1      25.570   3.178  49.847  1.00  0.00    -0.055 C 
HETATM    9  C8  UNL     1      25.971   2.565  50.955  1.00  0.00     0.007 C 
HETATM   10  C9  UNL     1      25.373   1.621  51.864  1.00  0.00    -0.003 C 
HETATM   11  C10 UNL     1      24.274   0.938  52.086  1.00  0.00    -0.025 C 
HETATM   12  C11 UNL     1      23.676  -0.026  53.022  1.00  0.00     0.057 C 
HETATM   13  C12 UNL     1      22.413   0.508  53.676  1.00  0.00     0.276 C 
HETATM   14  N1  UNL     1      21.354   0.784  52.749  1.00  0.00     0.093 N 
HETATM   15  C13 UNL     1      20.245  -0.117  53.024  1.00  0.00     0.298 C 
HETATM   16  C14 UNL     1      19.081   0.162  52.097  1.00  0.00     0.198 C 
HETATM   17  O1  UNL     1      19.349   1.269  51.287  1.00  0.00    -0.382 OA
HETATM   18  C15 UNL     1      19.598   2.322  52.202  1.00  0.00     0.157 C 
HETATM   19  C16 UNL     1      20.978   2.169  52.722  1.00  0.00     0.305 C 
HETATM   20  C17 UNL     1      19.290   3.651  51.541  1.00  0.00     0.043 C 
HETATM   21  C18 UNL     1      18.245   3.413  50.472  1.00  0.00    -0.019 C 
HETATM   22  C19 UNL     1      18.064   4.225  49.452  1.00  0.00    -0.003 C 
HETATM   23  C20 UNL     1      19.162   5.205  49.333  1.00  0.00     0.005 C 
HETATM   24  C21 UNL     1      20.277   5.391  50.073  1.00  0.00    -0.045 C 
HETATM   25  C22 UNL     1      20.541   4.231  50.967  1.00  0.00     0.048 C 
HETATM   26  C23 UNL     1      26.751   4.018  49.519  1.00  0.00     0.049 C 
HETATM   27  C24 UNL     1      26.759   5.204  48.865  1.00  0.00     0.104 C 
HETATM   28 CL1  UNL     1      28.292   5.882  48.387  1.00  0.00    -0.065 Cl
HETATM   29  N2  UNL     1      25.585   5.979  48.535  1.00  0.00    -0.351 N 
HETATM   30  H28 UNL     1      25.640   6.830  47.963  1.00  0.00     0.166 HD
ENDROOT
TORSDOF 0
ENDMDL
MODEL 8
REMARK VINA RESULT:      -9.2      3.036      6.140
REMARK  0 active torsions:
REMARK  status: ('A' for Active; 'I' for Inactive)
ROOT
HETATM    1  F1  UNL     1      27.160   1.667  50.778  1.00  0.00    -0.243 F 
HETATM    2  C1  UNL     1      26.048   2.486  51.031  1.00  0.00     0.114 C 
HETATM    3  C2  UNL     1      25.282   3.605  50.912  1.00  0.00     0.151 C 
HETATM    4  C3  UNL     1      25.365   4.906  50.182  1.00  0.00     0.007 C 
HETATM    5  C4  UNL     1      24.184   5.411  50.622  1.00  0.00     0.007 C 
HETATM    6  C5  UNL     1      23.408   4.568  51.522  1.00  0.00     0.061 C 
HETATM    7  C6  UNL     1      22.164   5.266  51.992  1.00  0.00     0.044 C 
HETATM    8  C7  UNL     1      21.250   5.591  50.894  1.00  0.00    -0.055 C 
HETATM    9  C8  UNL     1      20.134   5.108  50.357  1.00  0.00     0.007 C 
HETATM   10  C9  UNL     1      19.281   3.981  50.634  1.00  0.00    -0.003 C 
HETATM   11  C10 UNL     1      19.137   2.954  51.438  1.00  0.00    -0.025 C 
HETATM   12  C11 UNL     1      18.257   1.807  51.708  1.00  0.00     0.057 C 
HETATM   13  C12 UNL     1      18.983   0.478  51.594  1.00  0.00     0.276 C 
HETATM   14  N1  UNL     1      20.051   0.320  52.539  1.00  0.00     0.093 N 
HETATM   15  C13 UNL     1      19.715  -0.769  53.445  1.00  0.00     0.298 C 
HETATM   16  C14 UNL     1      20.831  -1.007  54.439  1.00  0.00     0.198 C 
HETATM   17  O1  UNL     1      21.923  -0.178  54.165  1.00  0.00    -0.382 OA
HETATM   18  C15 UNL     1      22.284  -0.501  52.834  1.00  0.00     0.157 C 
HETATM   19  C16 UNL     1      21.337   0.176  51.917  1.00  0.00     0.305 C 
HETATM   20  C17 UNL     1      23.749  -0.182  52.614  1.00  0.00     0.043 C 
HETATM   21  C18 UNL     1      24.456  -0.281  53.949  1.00  0.00    -0.019 C 
HETATM   22  C19 UNL     1      25.597   0.324  54.204  1.00  0.00    -0.003 C 
HETATM   23  C20 UNL     1      25.938   1.309  53.158  1.00  0.00     0.005 C 
HETATM   24  C21 UNL     1      25.291   1.673  52.029  1.00  0.00    -0.045 C 
HETATM   25  C22 UNL     1      23.886   1.182  52.021  1.00  0.00     0.048 C 
HETATM   26  C23 UNL     1      21.525   6.763  50.024  1.00  0.00     0.049 C 
HETATM   27  C24 UNL     1      22.733   7.301  49.730  1.00  0.00     0.104 C 
HETATM   28 CL1  UNL     1      22.783   8.822  48.879  1.00  0.00    -0.065 Cl
HETATM   29  N2  UNL     1      24.009   6.707  50.055  1.00  0.00    -0.351 N 
HETATM   30  H28 UNL     1      24.895   7.198  49.886  1.00  0.00     0.166 HD
ENDROOT
TORSDOF 0
ENDMDL
MODEL 9
REMARK VINA RESULT:      -8.9      3.660      7.486
REMARK  0 active torsions:
REMARK  status: ('A' for Active; 'I' for Inactive)
ROOT
HETATM    1  F1  UNL     1      21.696   6.642  51.426  1.00  0.00    -0.243 F 
HETATM    2  C1  UNL     1      21.706   5.238  51.444  1.00  0.00     0.114 C 
HETATM    3  C2  UNL     1      22.191   4.008  51.767  1.00  0.00     0.151 C 
HETATM    4  C3  UNL     1      23.360   3.464  52.523  1.00  0.00     0.007 C 
HETATM    5  C4  UNL     1      23.059   2.151  52.357  1.00  0.00     0.007 C 
HETATM    6  C5  UNL     1      21.853   1.847  51.598  1.00  0.00     0.061 C 
HETATM    7  C6  UNL     1      21.672   0.366  51.425  1.00  0.00     0.044 C 
HETATM    8  C7  UNL     1      21.504  -0.335  52.701  1.00  0.00    -0.055 C 
HETATM    9  C8  UNL     1      20.516  -0.839  53.433  1.00  0.00     0.007 C 
HETATM   10  C9  UNL     1      19.086  -0.920  53.286  1.00  0.00    -0.003 C 
HETATM   11  C10 UNL     1      18.098  -0.597  52.484  1.00  0.00    -0.025 C 
HETATM   12  C11 UNL     1      16.637  -0.686  52.348  1.00  0.00     0.057 C 
HETATM   13  C12 UNL     1      15.978   0.678  52.251  1.00  0.00     0.276 C 
HETATM   14  N1  UNL     1      16.382   1.435  51.101  1.00  0.00     0.093 N 
HETATM   15  C13 UNL     1      15.227   1.621  50.235  1.00  0.00     0.298 C 
HETATM   16  C14 UNL     1      15.590   2.452  49.023  1.00  0.00     0.198 C 
HETATM   17  O1  UNL     1      16.914   2.894  49.105  1.00  0.00    -0.382 OA
HETATM   18  C15 UNL     1      16.966   3.624  50.318  1.00  0.00     0.157 C 
HETATM   19  C16 UNL     1      17.052   2.658  51.439  1.00  0.00     0.305 C 
HETATM   20  C17 UNL     1      18.083   4.646  50.246  1.00  0.00     0.043 C 
HETATM   21  C18 UNL     1      18.297   5.007  48.792  1.00  0.00    -0.019 C 
HETATM   22  C19 UNL     1      19.423   5.514  48.336  1.00  0.00    -0.003 C 
HETATM   23  C20 UNL     1      20.508   5.419  49.333  1.00  0.00     0.005 C 
HETATM   24  C21 UNL     1      20.528   4.913  50.586  1.00  0.00    -0.045 C 
HETATM   25  C22 UNL     1      19.323   4.082  50.860  1.00  0.00     0.048 C 
HETATM   26  C23 UNL     1      22.690  -0.624  53.548  1.00  0.00     0.049 C 
HETATM   27  C24 UNL     1      23.845   0.081  53.612  1.00  0.00     0.104 C 
HETATM   28 CL1  UNL     1      25.184  -0.592  54.502  1.00  0.00    -0.065 Cl
HETATM   29  N2  UNL     1      24.064   1.374  53.006  1.00  0.00    -0.351 N 
HETATM   30  H28 UNL     1      24.985   1.827  53.012  1.00  0.00     0.166 HD
ENDROOT
TORSDOF 0
ENDMDL
