MODEL 1
REMARK VINA RESULT:      -7.4      0.000      0.000
REMARK  6 active torsions:
REMARK  status: ('A' for Active; 'I' for Inactive)
REMARK    1  A    between atoms: C2_2  and  C3_3 
REMARK    2  A    between atoms: C2_2  and  N1_6 
REMARK    3  A    between atoms: C3_3  and  C4_4 
REMARK    4  A    between atoms: C4_4  and  O1_5 
REMARK    5  A    between atoms: N1_6  and  C5_7 
REMARK    6  A    between atoms: N4_15  and  C11_16 
ROOT
HETATM    1  C5  UNL     1      25.277  -0.534  53.664  1.00  0.00     0.024 C 
HETATM    2  C6  UNL     1      24.544  -0.986  54.692  1.00  0.00     0.028 C 
HETATM    3  C7  UNL     1      23.182  -0.976  55.099  1.00  0.00     0.021 C 
HETATM    4  C8  UNL     1      21.930  -0.634  54.874  1.00  0.00     0.118 C 
HETATM    5  N2  UNL     1      20.700  -0.140  54.366  1.00  0.00    -0.257 NA
HETATM    6  C9  UNL     1      20.601   0.315  53.137  1.00  0.00     0.193 C 
HETATM    7  N3  UNL     1      21.755   0.238  52.518  1.00  0.00    -0.384 NA
HETATM    8  C10 UNL     1      22.795   0.231  52.024  1.00  0.00     0.424 C 
HETATM    9  N4  UNL     1      24.004   0.946  52.189  1.00  0.00    -0.349 N 
HETATM   10  C17 UNL     1      25.246   0.271  52.415  1.00  0.00     0.182 C 
ENDROOT
BRANCH   1  11
HETATM   11  N1  UNL     1      26.684  -0.883  53.817  1.00  0.00    -0.377 N 
HETATM   12  H6  UNL     1      26.751  -1.447  54.719  1.00  0.00     0.160 HD
BRANCH  11  13
HETATM   13  C2  UNL     1      27.935  -0.677  53.114  1.00  0.00     0.159 C 
HETATM   14  C1  UNL     1      28.843  -1.899  53.278  1.00  0.00     0.046 C 
BRANCH  13  15
HETATM   15  C3  UNL     1      28.635   0.444  53.727  1.00  0.00    -0.051 C 
BRANCH  15  16
HETATM   16  C4  UNL     1      29.214   1.391  54.266  1.00  0.00     0.053 C 
BRANCH  16  17
HETATM   17  O1  UNL     1      29.855   2.444  54.879  1.00  0.00    -0.314 OA
HETATM   18  H5  UNL     1      29.360   3.043  55.526  1.00  0.00     0.230 HD
ENDBRANCH  16  17
ENDBRANCH  15  16
ENDBRANCH  13  15
ENDBRANCH  11  13
ENDBRANCH   1  11
BRANCH   9  19
HETATM   19  C11 UNL     1      23.898   2.380  52.059  1.00  0.00     0.033 A 
HETATM   20  C12 UNL     1      23.760   3.286  53.066  1.00  0.00     0.029 A 
HETATM   21  C13 UNL     1      23.640   4.647  52.939  1.00  0.00     0.004 A 
HETATM   22  C14 UNL     1      23.662   5.161  51.635  1.00  0.00     0.019 A 
HETATM   23  C15 UNL     1      23.803   4.219  50.627  1.00  0.00     0.013 A 
HETATM   24 BR1  UNL     1      23.816   5.008  48.878  1.00  0.00    -0.051 Br
HETATM   25  C16 UNL     1      23.923   2.854  50.775  1.00  0.00     0.048 A 
ENDBRANCH   9  19
TORSDOF 6
ENDMDL
MODEL 2
REMARK VINA RESULT:      -7.3      3.350      4.500
REMARK  6 active torsions:
REMARK  status: ('A' for Active; 'I' for Inactive)
REMARK    1  A    between atoms: C2_2  and  C3_3 
REMARK    2  A    between atoms: C2_2  and  N1_6 
REMARK    3  A    between atoms: C3_3  and  C4_4 
REMARK    4  A    between atoms: C4_4  and  O1_5 
REMARK    5  A    between atoms: N1_6  and  C5_7 
REMARK    6  A    between atoms: N4_15  and  C11_16 
ROOT
HETATM    1  C5  UNL     1      26.165   2.186  51.864  1.00  0.00     0.024 C 
HETATM    2  C6  UNL     1      25.296   2.457  52.848  1.00  0.00     0.028 C 
HETATM    3  C7  UNL     1      24.065   3.149  53.006  1.00  0.00     0.021 C 
HETATM    4  C8  UNL     1      23.084   3.857  52.485  1.00  0.00     0.118 C 
HETATM    5  N2  UNL     1      22.191   4.584  51.655  1.00  0.00    -0.257 NA
HETATM    6  C9  UNL     1      22.312   4.575  50.346  1.00  0.00     0.193 C 
HETATM    7  N3  UNL     1      23.329   3.833  49.979  1.00  0.00    -0.384 NA
HETATM    8  C10 UNL     1      24.272   3.240  49.688  1.00  0.00     0.424 C 
HETATM    9  N4  UNL     1      25.669   3.424  49.814  1.00  0.00    -0.349 N 
HETATM   10  C17 UNL     1      26.498   2.439  50.438  1.00  0.00     0.182 C 
ENDROOT
BRANCH   1  11
HETATM   11  N1  UNL     1      27.285   1.386  52.345  1.00  0.00    -0.377 N 
HETATM   12  H6  UNL     1      27.956   1.294  51.522  1.00  0.00     0.160 HD
BRANCH  11  13
HETATM   13  C2  UNL     1      27.699   0.724  53.567  1.00  0.00     0.159 C 
HETATM   14  C1  UNL     1      29.045   1.281  54.042  1.00  0.00     0.046 C 
BRANCH  13  15
HETATM   15  C3  UNL     1      27.914  -0.688  53.281  1.00  0.00    -0.051 C 
BRANCH  15  16
HETATM   16  C4  UNL     1      28.099  -1.889  53.061  1.00  0.00     0.053 C 
BRANCH  16  17
HETATM   17  O1  UNL     1      28.292  -3.229  52.814  1.00  0.00    -0.314 OA
HETATM   18  H5  UNL     1      27.889  -3.929  53.424  1.00  0.00     0.230 HD
ENDBRANCH  16  17
ENDBRANCH  15  16
ENDBRANCH  13  15
ENDBRANCH  11  13
ENDBRANCH   1  11
BRANCH   9  19
HETATM   19  C11 UNL     1      26.189   4.635  49.225  1.00  0.00     0.033 A 
HETATM   20  C12 UNL     1      25.488   5.757  48.901  1.00  0.00     0.029 A 
HETATM   21  C13 UNL     1      25.982   6.900  48.324  1.00  0.00     0.004 A 
HETATM   22  C14 UNL     1      27.354   6.916  48.036  1.00  0.00     0.019 A 
HETATM   23  C15 UNL     1      28.047   5.763  48.374  1.00  0.00     0.013 A 
HETATM   24 BR1  UNL     1      29.911   5.870  47.939  1.00  0.00    -0.051 Br
HETATM   25  C16 UNL     1      27.532   4.624  48.954  1.00  0.00     0.048 A 
ENDBRANCH   9  19
TORSDOF 6
ENDMDL
MODEL 3
REMARK VINA RESULT:      -7.2      3.032      5.036
REMARK  6 active torsions:
REMARK  status: ('A' for Active; 'I' for Inactive)
REMARK    1  A    between atoms: C2_2  and  C3_3 
REMARK    2  A    between atoms: C2_2  and  N1_6 
REMARK    3  A    between atoms: C3_3  and  C4_4 
REMARK    4  A    between atoms: C4_4  and  O1_5 
REMARK    5  A    between atoms: N1_6  and  C5_7 
REMARK    6  A    between atoms: N4_15  and  C11_16 
ROOT
HETATM    1  C5  UNL     1      26.453   2.219  51.934  1.00  0.00     0.024 C 
HETATM    2  C6  UNL     1      26.817   2.850  50.808  1.00  0.00     0.028 C 
HETATM    3  C7  UNL     1      26.240   3.751  49.873  1.00  0.00     0.021 C 
HETATM    4  C8  UNL     1      25.214   4.475  49.475  1.00  0.00     0.118 C 
HETATM    5  N2  UNL     1      23.970   5.138  49.307  1.00  0.00    -0.257 NA
HETATM    6  C9  UNL     1      23.065   5.148  50.260  1.00  0.00     0.193 C 
HETATM    7  N3  UNL     1      23.488   4.483  51.308  1.00  0.00    -0.384 NA
HETATM    8  C10 UNL     1      23.850   3.830  52.185  1.00  0.00     0.424 C 
HETATM    9  N4  UNL     1      24.064   2.449  52.404  1.00  0.00    -0.349 N 
HETATM   10  C17 UNL     1      25.325   1.952  52.863  1.00  0.00     0.182 C 
ENDROOT
BRANCH   1  11
HETATM   11  N1  UNL     1      27.538   1.400  52.462  1.00  0.00    -0.377 N 
HETATM   12  H6  UNL     1      28.256   1.321  51.678  1.00  0.00     0.160 HD
BRANCH  11  13
HETATM   13  C2  UNL     1      27.875   0.709  53.691  1.00  0.00     0.159 C 
HETATM   14  C1  UNL     1      29.225   1.202  54.223  1.00  0.00     0.046 C 
BRANCH  13  15
HETATM   15  C3  UNL     1      28.040  -0.708  53.398  1.00  0.00    -0.051 C 
BRANCH  15  16
HETATM   16  C4  UNL     1      28.193  -1.903  53.131  1.00  0.00     0.053 C 
BRANCH  16  17
HETATM   17  O1  UNL     1      28.360  -3.234  52.820  1.00  0.00    -0.314 OA
HETATM   18  H5  UNL     1      29.146  -3.539  52.261  1.00  0.00     0.230 HD
ENDBRANCH  16  17
ENDBRANCH  15  16
ENDBRANCH  13  15
ENDBRANCH  11  13
ENDBRANCH   1  11
BRANCH   9  19
HETATM   19  C11 UNL     1      22.915   1.603  52.184  1.00  0.00     0.033 A 
HETATM   20  C12 UNL     1      22.060   1.638  51.125  1.00  0.00     0.029 A 
HETATM   21  C13 UNL     1      20.958   0.845  50.928  1.00  0.00     0.004 A 
HETATM   22  C14 UNL     1      20.679  -0.102  51.923  1.00  0.00     0.019 A 
HETATM   23  C15 UNL     1      21.563  -0.120  52.992  1.00  0.00     0.013 A 
HETATM   24 BR1  UNL     1      21.103  -1.438  54.307  1.00  0.00    -0.051 Br
HETATM   25  C16 UNL     1      22.666   0.686  53.171  1.00  0.00     0.048 A 
ENDBRANCH   9  19
TORSDOF 6
ENDMDL
MODEL 4
REMARK VINA RESULT:      -7.1      3.126      5.688
REMARK  6 active torsions:
REMARK  status: ('A' for Active; 'I' for Inactive)
REMARK    1  A    between atoms: C2_2  and  C3_3 
REMARK    2  A    between atoms: C2_2  and  N1_6 
REMARK    3  A    between atoms: C3_3  and  C4_4 
REMARK    4  A    between atoms: C4_4  and  O1_5 
REMARK    5  A    between atoms: N1_6  and  C5_7 
REMARK    6  A    between atoms: N4_15  and  C11_16 
ROOT
HETATM    1  C5  UNL     1      23.956   0.305  53.117  1.00  0.00     0.024 C 
HETATM    2  C6  UNL     1      24.834  -0.688  53.316  1.00  0.00     0.028 C 
HETATM    3  C7  UNL     1      26.236  -0.834  53.495  1.00  0.00     0.021 C 
HETATM    4  C8  UNL     1      27.433  -0.293  53.589  1.00  0.00     0.118 C 
HETATM    5  N2  UNL     1      28.565   0.563  53.649  1.00  0.00    -0.257 NA
HETATM    6  C9  UNL     1      28.432   1.867  53.732  1.00  0.00     0.193 C 
HETATM    7  N3  UNL     1      27.166   2.206  53.745  1.00  0.00    -0.384 NA
HETATM    8  C10 UNL     1      26.050   2.481  53.677  1.00  0.00     0.424 C 
HETATM    9  N4  UNL     1      25.053   2.446  52.674  1.00  0.00    -0.349 N 
HETATM   10  C17 UNL     1      23.811   1.765  52.879  1.00  0.00     0.182 C 
ENDROOT
BRANCH   1  11
HETATM   11  N1  UNL     1      22.592  -0.200  53.017  1.00  0.00    -0.377 N 
HETATM   12  H6  UNL     1      22.489  -0.578  52.026  1.00  0.00     0.160 HD
BRANCH  11  13
HETATM   13  C2  UNL     1      21.414  -0.313  53.855  1.00  0.00     0.159 C 
HETATM   14  C1  UNL     1      21.367  -1.693  54.518  1.00  0.00     0.046 C 
BRANCH  13  15
HETATM   15  C3  UNL     1      20.231  -0.221  53.010  1.00  0.00    -0.051 C 
BRANCH  15  16
HETATM   16  C4  UNL     1      19.240  -0.128  52.280  1.00  0.00     0.053 C 
BRANCH  16  17
HETATM   17  O1  UNL     1      18.127  -0.026  51.477  1.00  0.00    -0.314 OA
HETATM   18  H5  UNL     1      17.462   0.725  51.611  1.00  0.00     0.230 HD
ENDBRANCH  16  17
ENDBRANCH  15  16
ENDBRANCH  13  15
ENDBRANCH  11  13
ENDBRANCH   1  11
BRANCH   9  19
HETATM   19  C11 UNL     1      25.359   3.184  51.471  1.00  0.00     0.033 A 
HETATM   20  C12 UNL     1      26.390   2.959  50.610  1.00  0.00     0.029 A 
HETATM   21  C13 UNL     1      26.689   3.674  49.478  1.00  0.00     0.004 A 
HETATM   22  C14 UNL     1      25.846   4.751  49.174  1.00  0.00     0.019 A 
HETATM   23  C15 UNL     1      24.804   4.961  50.064  1.00  0.00     0.013 A 
HETATM   24 BR1  UNL     1      23.707   6.457  49.576  1.00  0.00    -0.051 Br
HETATM   25  C16 UNL     1      24.519   4.230  51.198  1.00  0.00     0.048 A 
ENDBRANCH   9  19
TORSDOF 6
ENDMDL
MODEL 5
REMARK VINA RESULT:      -7.0      3.398      4.941
REMARK  6 active torsions:
REMARK  status: ('A' for Active; 'I' for Inactive)
REMARK    1  A    between atoms: C2_2  and  C3_3 
REMARK    2  A    between atoms: C2_2  and  N1_6 
REMARK    3  A    between atoms: C3_3  and  C4_4 
REMARK    4  A    between atoms: C4_4  and  O1_5 
REMARK    5  A    between atoms: N1_6  and  C5_7 
REMARK    6  A    between atoms: N4_15  and  C11_16 
ROOT
HETATM    1  C5  UNL     1      24.842   3.126  51.635  1.00  0.00     0.024 C 
HETATM    2  C6  UNL     1      23.914   3.614  52.470  1.00  0.00     0.028 C 
HETATM    3  C7  UNL     1      22.825   4.525  52.418  1.00  0.00     0.021 C 
HETATM    4  C8  UNL     1      22.073   5.361  51.731  1.00  0.00     0.118 C 
HETATM    5  N2  UNL     1      21.453   6.179  50.750  1.00  0.00    -0.257 NA
HETATM    6  C9  UNL     1      21.746   6.060  49.475  1.00  0.00     0.193 C 
HETATM    7  N3  UNL     1      22.646   5.124  49.290  1.00  0.00    -0.384 NA
HETATM    8  C10 UNL     1      23.492   4.353  49.164  1.00  0.00     0.424 C 
HETATM    9  N4  UNL     1      24.868   4.292  49.484  1.00  0.00    -0.349 N 
HETATM   10  C17 UNL     1      25.406   3.218  50.263  1.00  0.00     0.182 C 
ENDROOT
BRANCH   1  11
HETATM   11  N1  UNL     1      25.717   2.172  52.306  1.00  0.00    -0.377 N 
HETATM   12  H6  UNL     1      25.297   2.018  53.273  1.00  0.00     0.160 HD
BRANCH  11  13
HETATM   13  C2  UNL     1      26.929   1.428  52.024  1.00  0.00     0.159 C 
HETATM   14  C1  UNL     1      26.677  -0.074  52.182  1.00  0.00     0.046 C 
BRANCH  13  15
HETATM   15  C3  UNL     1      27.935   1.784  53.016  1.00  0.00    -0.051 C 
BRANCH  15  16
HETATM   16  C4  UNL     1      28.798   2.098  53.840  1.00  0.00     0.053 C 
BRANCH  16  17
HETATM   17  O1  UNL     1      29.766   2.435  54.759  1.00  0.00    -0.314 OA
HETATM   18  H5  UNL     1      29.735   3.327  55.237  1.00  0.00     0.230 HD
ENDBRANCH  16  17
ENDBRANCH  15  16
ENDBRANCH  13  15
ENDBRANCH  11  13
ENDBRANCH   1  11
BRANCH   9  19
HETATM   19  C11 UNL     1      25.681   5.347  48.928  1.00  0.00     0.033 A 
HETATM   20  C12 UNL     1      25.254   6.554  48.463  1.00  0.00     0.029 A 
HETATM   21  C13 UNL     1      26.026   7.547  47.917  1.00  0.00     0.004 A 
HETATM   22  C14 UNL     1      27.402   7.296  47.826  1.00  0.00     0.019 A 
HETATM   23  C15 UNL     1      27.814   6.062  48.306  1.00  0.00     0.013 A 
HETATM   24 BR1  UNL     1      29.706   5.799  48.136  1.00  0.00    -0.051 Br
HETATM   25  C16 UNL     1      27.021   5.075  48.852  1.00  0.00     0.048 A 
ENDBRANCH   9  19
TORSDOF 6
ENDMDL
MODEL 6
REMARK VINA RESULT:      -6.9      3.528      6.103
REMARK  6 active torsions:
REMARK  status: ('A' for Active; 'I' for Inactive)
REMARK    1  A    between atoms: C2_2  and  C3_3 
REMARK    2  A    between atoms: C2_2  and  N1_6 
REMARK    3  A    between atoms: C3_3  and  C4_4 
REMARK    4  A    between atoms: C4_4  and  O1_5 
REMARK    5  A    between atoms: N1_6  and  C5_7 
REMARK    6  A    between atoms: N4_15  and  C11_16 
ROOT
HETATM    1  C5  UNL     1      24.352   4.282  50.260  1.00  0.00     0.024 C 
HETATM    2  C6  UNL     1      23.959   3.902  49.036  1.00  0.00     0.028 C 
HETATM    3  C7  UNL     1      23.084   2.940  48.461  1.00  0.00     0.021 C 
HETATM    4  C8  UNL     1      22.219   1.959  48.609  1.00  0.00     0.118 C 
HETATM    5  N2  UNL     1      21.338   0.949  49.078  1.00  0.00    -0.257 NA
HETATM    6  C9  UNL     1      21.019   0.855  50.350  1.00  0.00     0.193 C 
HETATM    7  N3  UNL     1      21.619   1.788  51.049  1.00  0.00    -0.384 NA
HETATM    8  C10 UNL     1      22.215   2.568  51.650  1.00  0.00     0.424 C 
HETATM    9  N4  UNL     1      23.572   2.757  52.006  1.00  0.00    -0.349 N 
HETATM   10  C17 UNL     1      24.258   3.978  51.711  1.00  0.00     0.182 C 
ENDROOT
BRANCH   1  11
HETATM   11  N1  UNL     1      25.304   5.384  50.197  1.00  0.00    -0.377 N 
HETATM   12  H6  UNL     1      25.600   5.575  51.203  1.00  0.00     0.160 HD
BRANCH  11  13
HETATM   13  C2  UNL     1      25.914   6.234  49.194  1.00  0.00     0.159 C 
HETATM   14  C1  UNL     1      27.189   5.582  48.650  1.00  0.00     0.046 C 
BRANCH  13  15
HETATM   15  C3  UNL     1      26.325   7.480  49.827  1.00  0.00    -0.051 C 
BRANCH  15  16
HETATM   16  C4  UNL     1      26.670   8.526  50.384  1.00  0.00     0.053 C 
BRANCH  16  17
HETATM   17  O1  UNL     1      27.064   9.687  51.011  1.00  0.00    -0.314 OA
HETATM   18  H5  UNL     1      27.452   9.661  51.945  1.00  0.00     0.230 HD
ENDBRANCH  16  17
ENDBRANCH  15  16
ENDBRANCH  13  15
ENDBRANCH  11  13
ENDBRANCH   1  11
BRANCH   9  19
HETATM   19  C11 UNL     1      24.181   1.663  52.725  1.00  0.00     0.033 A 
HETATM   20  C12 UNL     1      23.560   0.551  53.207  1.00  0.00     0.029 A 
HETATM   21  C13 UNL     1      24.139  -0.477  53.907  1.00  0.00     0.004 A 
HETATM   22  C14 UNL     1      25.515  -0.374  54.154  1.00  0.00     0.019 A 
HETATM   23  C15 UNL     1      26.125   0.766  53.654  1.00  0.00     0.013 A 
HETATM   24 BR1  UNL     1      28.002   0.829  54.044  1.00  0.00    -0.051 Br
HETATM   25  C16 UNL     1      25.526   1.790  52.952  1.00  0.00     0.048 A 
ENDBRANCH   9  19
TORSDOF 6
ENDMDL
MODEL 7
REMARK VINA RESULT:      -6.8      3.206      5.154
REMARK  6 active torsions:
REMARK  status: ('A' for Active; 'I' for Inactive)
REMARK    1  A    between atoms: C2_2  and  C3_3 
REMARK    2  A    between atoms: C2_2  and  N1_6 
REMARK    3  A    between atoms: C3_3  and  C4_4 
REMARK    4  A    between atoms: C4_4  and  O1_5 
REMARK    5  A    between atoms: N1_6  and  C5_7 
REMARK    6  A    between atoms: N4_15  and  C11_16 
ROOT
HETATM    1  C5  UNL     1      25.865   2.013  51.382  1.00  0.00     0.024 C 
HETATM    2  C6  UNL     1      26.636   2.680  50.512  1.00  0.00     0.028 C 
HETATM    3  C7  UNL     1      26.538   3.830  49.683  1.00  0.00     0.021 C 
HETATM    4  C8  UNL     1      25.840   4.855  49.239  1.00  0.00     0.118 C 
HETATM    5  N2  UNL     1      24.865   5.848  48.956  1.00  0.00    -0.257 NA
HETATM    6  C9  UNL     1      23.774   5.962  49.681  1.00  0.00     0.193 C 
HETATM    7  N3  UNL     1      23.753   5.061  50.634  1.00  0.00    -0.384 NA
HETATM    8  C10 UNL     1      23.722   4.214  51.412  1.00  0.00     0.424 C 
HETATM    9  N4  UNL     1      23.552   2.810  51.381  1.00  0.00    -0.349 N 
HETATM   10  C17 UNL     1      24.507   1.928  51.980  1.00  0.00     0.182 C 
ENDROOT
BRANCH   1  11
HETATM   11  N1  UNL     1      26.564   0.863  51.944  1.00  0.00    -0.377 N 
HETATM   12  H6  UNL     1      26.556   0.114  51.186  1.00  0.00     0.160 HD
BRANCH  11  13
HETATM   13  C2  UNL     1      27.222   0.493  53.182  1.00  0.00     0.159 C 
HETATM   14  C1  UNL     1      28.497   1.321  53.372  1.00  0.00     0.046 C 
BRANCH  13  15
HETATM   15  C3  UNL     1      27.644  -0.898  53.087  1.00  0.00    -0.051 C 
BRANCH  15  16
HETATM   16  C4  UNL     1      28.003  -2.074  52.983  1.00  0.00     0.053 C 
BRANCH  16  17
HETATM   17  O1  UNL     1      28.413  -3.382  52.858  1.00  0.00    -0.314 OA
HETATM   18  H5  UNL     1      28.415  -3.838  51.955  1.00  0.00     0.230 HD
ENDBRANCH  16  17
ENDBRANCH  15  16
ENDBRANCH  13  15
ENDBRANCH  11  13
ENDBRANCH   1  11
BRANCH   9  19
HETATM   19  C11 UNL     1      22.335   2.347  50.757  1.00  0.00     0.033 A 
HETATM   20  C12 UNL     1      22.228   1.542  49.664  1.00  0.00     0.029 A 
HETATM   21  C13 UNL     1      21.070   1.119  49.062  1.00  0.00     0.004 A 
HETATM   22  C14 UNL     1      19.868   1.564  49.630  1.00  0.00     0.019 A 
HETATM   23  C15 UNL     1      20.002   2.382  50.741  1.00  0.00     0.013 A 
HETATM   24 BR1  UNL     1      18.311   2.948  51.447  1.00  0.00    -0.051 Br
HETATM   25  C16 UNL     1      21.176   2.796  51.332  1.00  0.00     0.048 A 
ENDBRANCH   9  19
TORSDOF 6
ENDMDL
MODEL 8
REMARK VINA RESULT:      -6.7      2.400      3.257
REMARK  6 active torsions:
REMARK  status: ('A' for Active; 'I' for Inactive)
REMARK    1  A    between atoms: C2_2  and  C3_3 
REMARK    2  A    between atoms: C2_2  and  N1_6 
REMARK    3  A    between atoms: C3_3  and  C4_4 
REMARK    4  A    between atoms: C4_4  and  O1_5 
REMARK    5  A    between atoms: N1_6  and  C5_7 
REMARK    6  A    between atoms: N4_15  and  C11_16 
ROOT
HETATM    1  C5  UNL     1      24.681   1.636  52.082  1.00  0.00     0.024 C 
HETATM    2  C6  UNL     1      23.502   1.423  52.685  1.00  0.00     0.028 C 
HETATM    3  C7  UNL     1      22.144   1.799  52.504  1.00  0.00     0.021 C 
HETATM    4  C8  UNL     1      21.225   2.447  51.818  1.00  0.00     0.118 C 
HETATM    5  N2  UNL     1      20.480   3.226  50.894  1.00  0.00    -0.257 NA
HETATM    6  C9  UNL     1      21.013   3.651  49.771  1.00  0.00     0.193 C 
HETATM    7  N3  UNL     1      22.259   3.257  49.670  1.00  0.00    -0.384 NA
HETATM    8  C10 UNL     1      23.372   2.964  49.641  1.00  0.00     0.424 C 
HETATM    9  N4  UNL     1      24.542   3.346  50.338  1.00  0.00    -0.349 N 
HETATM   10  C17 UNL     1      25.369   2.379  50.995  1.00  0.00     0.182 C 
ENDROOT
BRANCH   1  11
HETATM   11  N1  UNL     1      25.764   0.939  52.765  1.00  0.00    -0.377 N 
HETATM   12  H6  UNL     1      25.436   0.798  53.769  1.00  0.00     0.160 HD
BRANCH  11  13
HETATM   13  C2  UNL     1      27.084   0.423  52.460  1.00  0.00     0.159 C 
HETATM   14  C1  UNL     1      27.185  -1.050  52.868  1.00  0.00     0.046 C 
BRANCH  13  15
HETATM   15  C3  UNL     1      28.062   1.142  53.264  1.00  0.00    -0.051 C 
BRANCH  15  16
HETATM   16  C4  UNL     1      28.880   1.745  53.965  1.00  0.00     0.053 C 
BRANCH  16  17
HETATM   17  O1  UNL     1      29.787   2.430  54.742  1.00  0.00    -0.314 OA
HETATM   18  H5  UNL     1      29.844   2.261  55.737  1.00  0.00     0.230 HD
ENDBRANCH  16  17
ENDBRANCH  15  16
ENDBRANCH  13  15
ENDBRANCH  11  13
ENDBRANCH   1  11
BRANCH   9  19
HETATM   19  C11 UNL     1      24.861   4.753  50.289  1.00  0.00     0.033 A 
HETATM   20  C12 UNL     1      24.230   5.760  50.953  1.00  0.00     0.029 A 
HETATM   21  C13 UNL     1      24.523   7.099  50.890  1.00  0.00     0.004 A 
HETATM   22  C14 UNL     1      25.583   7.472  50.052  1.00  0.00     0.019 A 
HETATM   23  C15 UNL     1      26.210   6.430  49.386  1.00  0.00     0.013 A 
HETATM   24 BR1  UNL     1      27.640   7.030  48.258  1.00  0.00    -0.051 Br
HETATM   25  C16 UNL     1      25.900   5.089  49.463  1.00  0.00     0.048 A 
ENDBRANCH   9  19
TORSDOF 6
ENDMDL
MODEL 9
REMARK VINA RESULT:      -6.6      3.149      5.085
REMARK  6 active torsions:
REMARK  status: ('A' for Active; 'I' for Inactive)
REMARK    1  A    between atoms: C2_2  and  C3_3 
REMARK    2  A    between atoms: C2_2  and  N1_6 
REMARK    3  A    between atoms: C3_3  and  C4_4 
REMARK    4  A    between atoms: C4_4  and  O1_5 
REMARK    5  A    between atoms: N1_6  and  C5_7 
REMARK    6  A    between atoms: N4_15  and  C11_16 
ROOT
HETATM    1  C5  UNL     1      25.643   2.093  52.726  1.00  0.00     0.024 C 
HETATM    2  C6  UNL     1      26.565   2.366  51.790  1.00  0.00     0.028 C 
HETATM    3  C7  UNL     1      26.665   3.146  50.607  1.00  0.00     0.021 C 
HETATM    4  C8  UNL     1      26.119   3.976  49.742  1.00  0.00     0.118 C 
HETATM    5  N2  UNL     1      25.277   4.846  49.000  1.00  0.00    -0.257 NA
HETATM    6  C9  UNL     1      24.129   5.265  49.484  1.00  0.00     0.193 C 
HETATM    7  N3  UNL     1      23.920   4.768  50.679  1.00  0.00    -0.384 NA
HETATM    8  C10 UNL     1      23.725   4.259  51.693  1.00  0.00     0.424 C 
HETATM    9  N4  UNL     1      23.429   2.946  52.132  1.00  0.00    -0.349 N 
HETATM   10  C17 UNL     1      24.226   2.294  53.125  1.00  0.00     0.182 C 
ENDROOT
BRANCH   1  11
HETATM   11  N1  UNL     1      26.166   1.189  53.743  1.00  0.00    -0.377 N 
HETATM   12  H6  UNL     1      26.482   1.807  54.552  1.00  0.00     0.160 HD
BRANCH  11  13
HETATM   13  C2  UNL     1      26.359  -0.235  53.932  1.00  0.00     0.159 C 
HETATM   14  C1  UNL     1      26.402  -0.948  52.577  1.00  0.00     0.046 C 
BRANCH  13  15
HETATM   15  C3  UNL     1      25.207  -0.771  54.643  1.00  0.00    -0.051 C 
BRANCH  15  16
HETATM   16  C4  UNL     1      24.245  -1.236  55.260  1.00  0.00     0.053 C 
BRANCH  16  17
HETATM   17  O1  UNL     1      23.179  -1.757  55.960  1.00  0.00    -0.314 OA
HETATM   18  H5  UNL     1      22.648  -1.178  56.596  1.00  0.00     0.230 HD
ENDBRANCH  16  17
ENDBRANCH  15  16
ENDBRANCH  13  15
ENDBRANCH  11  13
ENDBRANCH   1  11
BRANCH   9  19
HETATM   19  C11 UNL     1      22.250   2.350  51.550  1.00  0.00     0.033 A 
HETATM   20  C12 UNL     1      22.189   1.209  50.809  1.00  0.00     0.029 A 
HETATM   21  C13 UNL     1      21.069   0.655  50.241  1.00  0.00     0.004 A 
HETATM   22  C14 UNL     1      19.860   1.334  50.443  1.00  0.00     0.019 A 
HETATM   23  C15 UNL     1      19.947   2.492  51.200  1.00  0.00     0.013 A 
HETATM   24 BR1  UNL     1      18.250   3.359  51.420  1.00  0.00    -0.051 Br
HETATM   25  C16 UNL     1      21.083   3.033  51.763  1.00  0.00     0.048 A 
ENDBRANCH   9  19
TORSDOF 6
ENDMDL
