MODEL 1
REMARK VINA RESULT:      -6.7      0.000      0.000
REMARK  8 active torsions:
REMARK  status: ('A' for Active; 'I' for Inactive)
REMARK    1  A    between atoms: C6_7  and  N1_8 
REMARK    2  A    between atoms: N1_8  and  C7_9 
REMARK    3  A    between atoms: C7_9  and  C8_10 
REMARK    4  A    between atoms: C9_11  and  O2_12 
REMARK    5  A    between atoms: O2_12  and  C10_13 
REMARK    6  A    between atoms: C10_13  and  C11_14 
REMARK    7  A    between atoms: C12_15  and  O3_16 
REMARK    8  A    between atoms: C15_19  and  S1_20 
ROOT
HETATM    1  C8  UNL     1      24.175   1.578  52.168  1.00  0.00     0.027 C 
HETATM    2  C9  UNL     1      23.665   2.773  52.404  1.00  0.00     0.132 C 
ENDROOT
BRANCH   1   3
HETATM    3  C7  UNL     1      24.424   0.539  53.192  1.00  0.00     0.300 C 
BRANCH   3   4
HETATM    4  N1  UNL     1      25.704   0.661  53.822  1.00  0.00     0.098 N 
HETATM    5  H10 UNL     1      25.802   0.170  54.732  1.00  0.00     0.317 HD
BRANCH   4   6
HETATM    6  C6  UNL     1      26.758   0.348  52.868  1.00  0.00     0.289 C 
HETATM    7  C1  UNL     1      27.786   1.388  52.961  1.00  0.00     0.160 C 
HETATM    8  O1  UNL     1      27.816   2.412  52.264  1.00  0.00    -0.296 OA
HETATM    9  C2  UNL     1      28.884   1.259  53.930  1.00  0.00     0.080 C 
HETATM   10  C3  UNL     1      29.055  -0.158  54.432  1.00  0.00     0.007 C 
HETATM   11  C4  UNL     1      28.779  -1.081  53.260  1.00  0.00     0.003 C 
HETATM   12  C5  UNL     1      27.285  -1.046  53.034  1.00  0.00     0.043 C 
ENDBRANCH   4   6
ENDBRANCH   3   4
ENDBRANCH   1   3
BRANCH   2  13
HETATM   13  O2  UNL     1      23.498   3.627  51.323  1.00  0.00    -0.362 OA
BRANCH  13  14
HETATM   14  C10 UNL     1      24.406   3.367  50.226  1.00  0.00     0.199 C 
BRANCH  14  15
HETATM   15  C11 UNL     1      24.834   4.660  49.707  1.00  0.00     0.083 A 
HETATM   16  C12 UNL     1      26.369   4.204  49.333  1.00  0.00     0.130 A 
HETATM   17  C13 UNL     1      27.705   5.038  48.648  1.00  0.00     0.107 A 
HETATM   18  S1  UNL     1      26.005   5.342  49.124  1.00  0.00    -0.169 SA
HETATM   19  C14 UNL     1      28.060   6.439  48.124  1.00  0.00     0.051 A 
HETATM   20  C15 UNL     1      27.064   5.923  48.604  1.00  0.00    -0.035 A 
BRANCH  16  21
HETATM   21  O3  UNL     1      26.983   2.793  49.545  1.00  0.00    -0.377 OA
HETATM   22  H17 UNL     1      26.518   2.104  50.056  1.00  0.00     0.211 HD
ENDBRANCH  16  21
ENDBRANCH  14  15
ENDBRANCH  13  14
ENDBRANCH   2  13
TORSDOF 8
ENDMDL
MODEL 2
REMARK VINA RESULT:      -6.5      2.387      5.966
REMARK  8 active torsions:
REMARK  status: ('A' for Active; 'I' for Inactive)
REMARK    1  A    between atoms: C6_7  and  N1_8 
REMARK    2  A    between atoms: N1_8  and  C7_9 
REMARK    3  A    between atoms: C7_9  and  C8_10 
REMARK    4  A    between atoms: C9_11  and  O2_12 
REMARK    5  A    between atoms: O2_12  and  C10_13 
REMARK    6  A    between atoms: C10_13  and  C11_14 
REMARK    7  A    between atoms: C12_15  and  O3_16 
REMARK    8  A    between atoms: C15_19  and  S1_20 
ROOT
HETATM    1  C8  UNL     1      23.537   2.257  51.370  1.00  0.00     0.027 C 
HETATM    2  C9  UNL     1      23.257   1.110  51.959  1.00  0.00     0.132 C 
ENDROOT
BRANCH   1   3
HETATM    3  C7  UNL     1      23.121   2.638  50.001  1.00  0.00     0.300 C 
BRANCH   3   4
HETATM    4  N1  UNL     1      24.129   3.359  49.284  1.00  0.00     0.098 N 
HETATM    5  H10 UNL     1      23.794   3.892  48.458  1.00  0.00     0.317 HD
BRANCH   4   6
HETATM    6  C6  UNL     1      24.927   4.149  50.210  1.00  0.00     0.289 C 
HETATM    7  C1  UNL     1      26.333   3.772  50.042  1.00  0.00     0.160 C 
HETATM    8  O1  UNL     1      26.909   2.894  50.700  1.00  0.00    -0.296 OA
HETATM    9  C2  UNL     1      27.168   4.450  49.040  1.00  0.00     0.080 C 
HETATM   10  C3  UNL     1      26.577   5.766  48.583  1.00  0.00     0.007 C 
HETATM   11  C4  UNL     1      25.931   6.407  49.796  1.00  0.00     0.003 C 
HETATM   12  C5  UNL     1      24.671   5.620  50.075  1.00  0.00     0.043 C 
ENDBRANCH   4   6
ENDBRANCH   3   4
ENDBRANCH   1   3
BRANCH   2  13
HETATM   13  O2  UNL     1      23.728   0.917  53.251  1.00  0.00    -0.362 OA
BRANCH  13  14
HETATM   14  C10 UNL     1      25.079   1.393  53.458  1.00  0.00     0.199 C 
BRANCH  14  15
HETATM   15  C11 UNL     1      25.950   0.224  53.464  1.00  0.00     0.083 A 
HETATM   16  C12 UNL     1      27.354   1.050  53.693  1.00  0.00     0.130 A 
HETATM   17  C13 UNL     1      28.992   0.555  53.843  1.00  0.00     0.107 A 
HETATM   18  S1  UNL     1      27.368  -0.159  53.595  1.00  0.00    -0.169 SA
HETATM   19  C14 UNL     1      29.825  -0.736  53.832  1.00  0.00     0.051 A 
HETATM   20  C15 UNL     1      28.639  -0.472  53.716  1.00  0.00    -0.035 A 
BRANCH  16  21
HETATM   21  O3  UNL     1      27.499   2.590  53.832  1.00  0.00    -0.377 OA
HETATM   22  H17 UNL     1      27.411   3.184  53.063  1.00  0.00     0.211 HD
ENDBRANCH  16  21
ENDBRANCH  14  15
ENDBRANCH  13  14
ENDBRANCH   2  13
TORSDOF 8
ENDMDL
MODEL 3
REMARK VINA RESULT:      -6.5      3.066      5.372
REMARK  8 active torsions:
REMARK  status: ('A' for Active; 'I' for Inactive)
REMARK    1  A    between atoms: C6_7  and  N1_8 
REMARK    2  A    between atoms: N1_8  and  C7_9 
REMARK    3  A    between atoms: C7_9  and  C8_10 
REMARK    4  A    between atoms: C9_11  and  O2_12 
REMARK    5  A    between atoms: O2_12  and  C10_13 
REMARK    6  A    between atoms: C10_13  and  C11_14 
REMARK    7  A    between atoms: C12_15  and  O3_16 
REMARK    8  A    between atoms: C15_19  and  S1_20 
ROOT
HETATM    1  C8  UNL     1      26.798   2.293  51.836  1.00  0.00     0.027 C 
HETATM    2  C9  UNL     1      25.509   2.452  52.068  1.00  0.00     0.132 C 
ENDROOT
BRANCH   1   3
HETATM    3  C7  UNL     1      27.838   2.124  52.876  1.00  0.00     0.300 C 
BRANCH   3   4
HETATM    4  N1  UNL     1      27.301   1.827  54.170  1.00  0.00     0.098 N 
HETATM    5  H10 UNL     1      26.293   2.042  54.294  1.00  0.00     0.317 HD
BRANCH   4   6
HETATM    6  C6  UNL     1      27.666   0.473  54.559  1.00  0.00     0.289 C 
HETATM    7  C1  UNL     1      26.440  -0.322  54.664  1.00  0.00     0.160 C 
HETATM    8  O1  UNL     1      25.788  -0.474  55.707  1.00  0.00    -0.296 OA
HETATM    9  C2  UNL     1      25.899  -1.009  53.482  1.00  0.00     0.080 C 
HETATM   10  C3  UNL     1      26.921  -1.158  52.376  1.00  0.00     0.007 C 
HETATM   11  C4  UNL     1      28.257  -1.431  53.041  1.00  0.00     0.003 C 
HETATM   12  C5  UNL     1      28.702  -0.123  53.654  1.00  0.00     0.043 C 
ENDBRANCH   4   6
ENDBRANCH   3   4
ENDBRANCH   1   3
BRANCH   2  13
HETATM   13  O2  UNL     1      24.670   2.597  50.971  1.00  0.00    -0.362 OA
BRANCH  13  14
HETATM   14  C10 UNL     1      23.272   2.368  51.270  1.00  0.00     0.199 C 
BRANCH  14  15
HETATM   15  C11 UNL     1      23.209   1.778  52.602  1.00  0.00     0.083 A 
HETATM   16  C12 UNL     1      22.127   0.599  52.223  1.00  0.00     0.130 A 
HETATM   17  C13 UNL     1      21.392  -0.654  53.140  1.00  0.00     0.107 A 
HETATM   18  S1  UNL     1      22.555   0.691  53.354  1.00  0.00    -0.169 SA
HETATM   19  C14 UNL     1      21.392  -1.202  54.576  1.00  0.00     0.051 A 
HETATM   20  C15 UNL     1      21.958  -0.286  54.000  1.00  0.00    -0.035 A 
BRANCH  16  21
HETATM   21  O3  UNL     1      21.488   0.356  50.829  1.00  0.00    -0.377 OA
HETATM   22  H17 UNL     1      21.454   1.057  50.152  1.00  0.00     0.211 HD
ENDBRANCH  16  21
ENDBRANCH  14  15
ENDBRANCH  13  14
ENDBRANCH   2  13
TORSDOF 8
ENDMDL
MODEL 4
REMARK VINA RESULT:      -6.4      2.705      6.367
REMARK  8 active torsions:
REMARK  status: ('A' for Active; 'I' for Inactive)
REMARK    1  A    between atoms: C6_7  and  N1_8 
REMARK    2  A    between atoms: N1_8  and  C7_9 
REMARK    3  A    between atoms: C7_9  and  C8_10 
REMARK    4  A    between atoms: C9_11  and  O2_12 
REMARK    5  A    between atoms: O2_12  and  C10_13 
REMARK    6  A    between atoms: C10_13  and  C11_14 
REMARK    7  A    between atoms: C12_15  and  O3_16 
REMARK    8  A    between atoms: C15_19  and  S1_20 
ROOT
HETATM    1  C8  UNL     1      23.847   3.526  52.688  1.00  0.00     0.027 C 
HETATM    2  C9  UNL     1      23.594   2.476  51.930  1.00  0.00     0.132 C 
ENDROOT
BRANCH   1   3
HETATM    3  C7  UNL     1      23.229   4.861  52.532  1.00  0.00     0.300 C 
BRANCH   3   4
HETATM    4  N1  UNL     1      24.185   5.907  52.325  1.00  0.00     0.098 N 
HETATM    5  H10 UNL     1      25.173   5.651  52.514  1.00  0.00     0.317 HD
BRANCH   4   6
HETATM    6  C6  UNL     1      23.975   6.520  51.022  1.00  0.00     0.289 C 
HETATM    7  C1  UNL     1      25.274   6.638  50.355  1.00  0.00     0.160 C 
HETATM    8  O1  UNL     1      26.009   7.633  50.417  1.00  0.00    -0.296 OA
HETATM    9  C2  UNL     1      25.791   5.529  49.540  1.00  0.00     0.080 C 
HETATM   10  C3  UNL     1      24.713   4.546  49.140  1.00  0.00     0.007 C 
HETATM   11  C4  UNL     1      23.458   5.352  48.866  1.00  0.00     0.003 C 
HETATM   12  C5  UNL     1      22.937   5.802  50.212  1.00  0.00     0.043 C 
ENDBRANCH   4   6
ENDBRANCH   3   4
ENDBRANCH   1   3
BRANCH   2  13
HETATM   13  O2  UNL     1      24.266   1.296  52.216  1.00  0.00    -0.362 OA
BRANCH  13  14
HETATM   14  C10 UNL     1      25.199   1.407  53.317  1.00  0.00     0.199 C 
BRANCH  14  15
HETATM   15  C11 UNL     1      26.108   0.272  53.226  1.00  0.00     0.083 A 
HETATM   16  C12 UNL     1      27.473   1.105  53.613  1.00  0.00     0.130 A 
HETATM   17  C13 UNL     1      29.119   0.644  53.776  1.00  0.00     0.107 A 
HETATM   18  S1  UNL     1      27.532  -0.083  53.374  1.00  0.00    -0.169 SA
HETATM   19  C14 UNL     1      29.996  -0.613  53.652  1.00  0.00     0.051 A 
HETATM   20  C15 UNL     1      28.808  -0.371  53.515  1.00  0.00    -0.035 A 
BRANCH  16  21
HETATM   21  O3  UNL     1      27.560   2.621  53.937  1.00  0.00    -0.377 OA
HETATM   22  H17 UNL     1      26.763   3.183  53.976  1.00  0.00     0.211 HD
ENDBRANCH  16  21
ENDBRANCH  14  15
ENDBRANCH  13  14
ENDBRANCH   2  13
TORSDOF 8
ENDMDL
MODEL 5
REMARK VINA RESULT:      -6.4      1.472      1.941
REMARK  8 active torsions:
REMARK  status: ('A' for Active; 'I' for Inactive)
REMARK    1  A    between atoms: C6_7  and  N1_8 
REMARK    2  A    between atoms: N1_8  and  C7_9 
REMARK    3  A    between atoms: C7_9  and  C8_10 
REMARK    4  A    between atoms: C9_11  and  O2_12 
REMARK    5  A    between atoms: O2_12  and  C10_13 
REMARK    6  A    between atoms: C10_13  and  C11_14 
REMARK    7  A    between atoms: C12_15  and  O3_16 
REMARK    8  A    between atoms: C15_19  and  S1_20 
ROOT
HETATM    1  C8  UNL     1      23.581   1.685  52.848  1.00  0.00     0.027 C 
HETATM    2  C9  UNL     1      23.847   2.835  52.258  1.00  0.00     0.132 C 
ENDROOT
BRANCH   1   3
HETATM    3  C7  UNL     1      24.519   0.545  52.958  1.00  0.00     0.300 C 
BRANCH   3   4
HETATM    4  N1  UNL     1      25.719   0.867  53.671  1.00  0.00     0.098 N 
HETATM    5  H10 UNL     1      25.795   0.460  54.623  1.00  0.00     0.317 HD
BRANCH   4   6
HETATM    6  C6  UNL     1      26.879   0.614  52.829  1.00  0.00     0.289 C 
HETATM    7  C1  UNL     1      27.575   1.885  52.611  1.00  0.00     0.160 C 
HETATM    8  O1  UNL     1      27.368   2.645  51.654  1.00  0.00    -0.296 OA
HETATM    9  C2  UNL     1      28.599   2.341  53.562  1.00  0.00     0.080 C 
HETATM   10  C3  UNL     1      29.119   1.223  54.440  1.00  0.00     0.007 C 
HETATM   11  C4  UNL     1      29.183  -0.024  53.578  1.00  0.00     0.003 C 
HETATM   12  C5  UNL     1      27.755  -0.474  53.373  1.00  0.00     0.043 C 
ENDBRANCH   4   6
ENDBRANCH   3   4
ENDBRANCH   1   3
BRANCH   2  13
HETATM   13  O2  UNL     1      22.848   3.799  52.245  1.00  0.00    -0.362 OA
BRANCH  13  14
HETATM   14  C10 UNL     1      23.307   5.111  51.842  1.00  0.00     0.199 C 
BRANCH  14  15
HETATM   15  C11 UNL     1      24.253   4.918  50.750  1.00  0.00     0.083 A 
HETATM   16  C12 UNL     1      24.794   6.471  50.705  1.00  0.00     0.130 A 
HETATM   17  C13 UNL     1      25.953   7.280  49.729  1.00  0.00     0.107 A 
HETATM   18  S1  UNL     1      25.239   5.649  49.932  1.00  0.00    -0.169 SA
HETATM   19  C14 UNL     1      26.919   6.976  48.573  1.00  0.00     0.051 A 
HETATM   20  C15 UNL     1      26.113   6.326  49.220  1.00  0.00    -0.035 A 
BRANCH  16  21
HETATM   21  O3  UNL     1      24.318   7.633  51.620  1.00  0.00    -0.377 OA
HETATM   22  H17 UNL     1      24.605   8.553  51.469  1.00  0.00     0.211 HD
ENDBRANCH  16  21
ENDBRANCH  14  15
ENDBRANCH  13  14
ENDBRANCH   2  13
TORSDOF 8
ENDMDL
MODEL 6
REMARK VINA RESULT:      -6.3      2.910      3.471
REMARK  8 active torsions:
REMARK  status: ('A' for Active; 'I' for Inactive)
REMARK    1  A    between atoms: C6_7  and  N1_8 
REMARK    2  A    between atoms: N1_8  and  C7_9 
REMARK    3  A    between atoms: C7_9  and  C8_10 
REMARK    4  A    between atoms: C9_11  and  O2_12 
REMARK    5  A    between atoms: O2_12  and  C10_13 
REMARK    6  A    between atoms: C10_13  and  C11_14 
REMARK    7  A    between atoms: C12_15  and  O3_16 
REMARK    8  A    between atoms: C15_19  and  S1_20 
ROOT
HETATM    1  C8  UNL     1      24.733   2.988  52.087  1.00  0.00     0.027 C 
HETATM    2  C9  UNL     1      23.560   2.699  51.554  1.00  0.00     0.132 C 
ENDROOT
BRANCH   1   3
HETATM    3  C7  UNL     1      26.030   2.419  51.655  1.00  0.00     0.300 C 
BRANCH   3   4
HETATM    4  N1  UNL     1      27.014   2.401  52.696  1.00  0.00     0.098 N 
HETATM    5  H10 UNL     1      26.726   2.844  53.590  1.00  0.00     0.317 HD
BRANCH   4   6
HETATM    6  C6  UNL     1      27.547   1.056  52.850  1.00  0.00     0.289 C 
HETATM    7  C1  UNL     1      27.597   0.743  54.281  1.00  0.00     0.160 C 
HETATM    8  O1  UNL     1      28.580   0.938  55.010  1.00  0.00    -0.296 OA
HETATM    9  C2  UNL     1      26.429   0.154  54.951  1.00  0.00     0.080 C 
HETATM   10  C3  UNL     1      25.444  -0.457  53.978  1.00  0.00     0.007 C 
HETATM   11  C4  UNL     1      26.256  -1.092  52.865  1.00  0.00     0.003 C 
HETATM   12  C5  UNL     1      26.800   0.046  52.032  1.00  0.00     0.043 C 
ENDBRANCH   4   6
ENDBRANCH   3   4
ENDBRANCH   1   3
BRANCH   2  13
HETATM   13  O2  UNL     1      22.440   3.326  52.083  1.00  0.00    -0.362 OA
BRANCH  13  14
HETATM   14  C10 UNL     1      22.647   4.724  52.398  1.00  0.00     0.199 C 
BRANCH  14  15
HETATM   15  C11 UNL     1      22.047   5.500  51.320  1.00  0.00     0.083 A 
HETATM   16  C12 UNL     1      23.219   6.653  51.256  1.00  0.00     0.130 A 
HETATM   17  C13 UNL     1      23.434   8.050  50.282  1.00  0.00     0.107 A 
HETATM   18  S1  UNL     1      22.267   6.710  50.506  1.00  0.00    -0.169 SA
HETATM   19  C14 UNL     1      22.721   8.801  49.145  1.00  0.00     0.051 A 
HETATM   20  C15 UNL     1      22.491   7.793  49.794  1.00  0.00    -0.035 A 
BRANCH  16  21
HETATM   21  O3  UNL     1      24.488   6.719  52.149  1.00  0.00    -0.377 OA
HETATM   22  H17 UNL     1      24.944   7.563  52.328  1.00  0.00     0.211 HD
ENDBRANCH  16  21
ENDBRANCH  14  15
ENDBRANCH  13  14
ENDBRANCH   2  13
TORSDOF 8
ENDMDL
MODEL 7
REMARK VINA RESULT:      -6.1      4.409      6.813
REMARK  8 active torsions:
REMARK  status: ('A' for Active; 'I' for Inactive)
REMARK    1  A    between atoms: C6_7  and  N1_8 
REMARK    2  A    between atoms: N1_8  and  C7_9 
REMARK    3  A    between atoms: C7_9  and  C8_10 
REMARK    4  A    between atoms: C9_11  and  O2_12 
REMARK    5  A    between atoms: O2_12  and  C10_13 
REMARK    6  A    between atoms: C10_13  and  C11_14 
REMARK    7  A    between atoms: C12_15  and  O3_16 
REMARK    8  A    between atoms: C15_19  and  S1_20 
ROOT
HETATM    1  C8  UNL     1      24.343   1.857  51.598  1.00  0.00     0.027 C 
HETATM    2  C9  UNL     1      23.719   0.979  52.362  1.00  0.00     0.132 C 
ENDROOT
BRANCH   1   3
HETATM    3  C7  UNL     1      25.678   2.434  51.874  1.00  0.00     0.300 C 
BRANCH   3   4
HETATM    4  N1  UNL     1      26.680   1.443  52.127  1.00  0.00     0.098 N 
HETATM    5  H10 UNL     1      27.458   1.409  51.440  1.00  0.00     0.317 HD
BRANCH   4   6
HETATM    6  C6  UNL     1      27.122   1.527  53.512  1.00  0.00     0.289 C 
HETATM    7  C1  UNL     1      27.245   0.165  54.038  1.00  0.00     0.160 C 
HETATM    8  O1  UNL     1      26.344  -0.443  54.633  1.00  0.00    -0.296 OA
HETATM    9  C2  UNL     1      28.502  -0.580  53.879  1.00  0.00     0.080 C 
HETATM   10  C3  UNL     1      29.676   0.319  53.555  1.00  0.00     0.007 C 
HETATM   11  C4  UNL     1      29.484   1.600  54.344  1.00  0.00     0.003 C 
HETATM   12  C5  UNL     1      28.363   2.354  53.667  1.00  0.00     0.043 C 
ENDBRANCH   4   6
ENDBRANCH   3   4
ENDBRANCH   1   3
BRANCH   2  13
HETATM   13  O2  UNL     1      22.468   0.542  51.952  1.00  0.00    -0.362 OA
BRANCH  13  14
HETATM   14  C10 UNL     1      21.476   0.537  53.006  1.00  0.00     0.199 C 
BRANCH  14  15
HETATM   15  C11 UNL     1      20.168   0.503  52.365  1.00  0.00     0.083 A 
HETATM   16  C12 UNL     1      19.540  -0.694  53.304  1.00  0.00     0.130 A 
HETATM   17  C13 UNL     1      18.012  -1.475  53.337  1.00  0.00     0.107 A 
HETATM   18  S1  UNL     1      18.869  -0.194  52.425  1.00  0.00    -0.169 SA
HETATM   19  C14 UNL     1      16.666  -1.437  52.596  1.00  0.00     0.051 A 
HETATM   20  C15 UNL     1      17.722  -0.831  52.503  1.00  0.00    -0.035 A 
BRANCH  16  21
HETATM   21  O3  UNL     1      20.272  -1.431  54.458  1.00  0.00    -0.377 OA
HETATM   22  H17 UNL     1      21.090  -1.076  54.855  1.00  0.00     0.211 HD
ENDBRANCH  16  21
ENDBRANCH  14  15
ENDBRANCH  13  14
ENDBRANCH   2  13
TORSDOF 8
ENDMDL
MODEL 8
REMARK VINA RESULT:      -6.1      3.072      4.377
REMARK  8 active torsions:
REMARK  status: ('A' for Active; 'I' for Inactive)
REMARK    1  A    between atoms: C6_7  and  N1_8 
REMARK    2  A    between atoms: N1_8  and  C7_9 
REMARK    3  A    between atoms: C7_9  and  C8_10 
REMARK    4  A    between atoms: C9_11  and  O2_12 
REMARK    5  A    between atoms: O2_12  and  C10_13 
REMARK    6  A    between atoms: C10_13  and  C11_14 
REMARK    7  A    between atoms: C12_15  and  O3_16 
REMARK    8  A    between atoms: C15_19  and  S1_20 
ROOT
HETATM    1  C8  UNL     1      26.758   4.256  49.281  1.00  0.00     0.027 C 
HETATM    2  C9  UNL     1      25.971   5.285  49.027  1.00  0.00     0.132 C 
ENDROOT
BRANCH   1   3
HETATM    3  C7  UNL     1      26.384   3.074  50.090  1.00  0.00     0.300 C 
BRANCH   3   4
HETATM    4  N1  UNL     1      26.618   3.251  51.491  1.00  0.00     0.098 N 
HETATM    5  H10 UNL     1      25.805   3.589  52.041  1.00  0.00     0.317 HD
BRANCH   4   6
HETATM    6  C6  UNL     1      27.246   2.059  52.043  1.00  0.00     0.289 C 
HETATM    7  C1  UNL     1      27.194   2.147  53.505  1.00  0.00     0.160 C 
HETATM    8  O1  UNL     1      28.088   2.631  54.213  1.00  0.00    -0.296 OA
HETATM    9  C2  UNL     1      26.024   1.640  54.236  1.00  0.00     0.080 C 
HETATM   10  C3  UNL     1      25.184   0.692  53.407  1.00  0.00     0.007 C 
HETATM   11  C4  UNL     1      26.142  -0.129  52.566  1.00  0.00     0.003 C 
HETATM   12  C5  UNL     1      26.661   0.795  51.488  1.00  0.00     0.043 C 
ENDBRANCH   4   6
ENDBRANCH   3   4
ENDBRANCH   1   3
BRANCH   2  13
HETATM   13  O2  UNL     1      26.484   6.312  48.248  1.00  0.00    -0.362 OA
BRANCH  13  14
HETATM   14  C10 UNL     1      27.131   7.358  49.012  1.00  0.00     0.199 C 
BRANCH  14  15
HETATM   15  C11 UNL     1      28.261   7.831  48.222  1.00  0.00     0.083 A 
HETATM   16  C12 UNL     1      28.730   9.010  49.268  1.00  0.00     0.130 A 
HETATM   17  C13 UNL     1      30.003  10.161  49.241  1.00  0.00     0.107 A 
HETATM   18  S1  UNL     1      29.340   8.836  48.235  1.00  0.00    -0.169 SA
HETATM   19  C14 UNL     1      31.169  10.588  48.335  1.00  0.00     0.051 A 
HETATM   20  C15 UNL     1      30.293   9.741  48.274  1.00  0.00    -0.035 A 
BRANCH  16  21
HETATM   21  O3  UNL     1      28.050   9.356  50.622  1.00  0.00    -0.377 OA
HETATM   22  H17 UNL     1      28.435   9.078  51.474  1.00  0.00     0.211 HD
ENDBRANCH  16  21
ENDBRANCH  14  15
ENDBRANCH  13  14
ENDBRANCH   2  13
TORSDOF 8
ENDMDL
MODEL 9
REMARK VINA RESULT:      -6.1      3.075      6.144
REMARK  8 active torsions:
REMARK  status: ('A' for Active; 'I' for Inactive)
REMARK    1  A    between atoms: C6_7  and  N1_8 
REMARK    2  A    between atoms: N1_8  and  C7_9 
REMARK    3  A    between atoms: C7_9  and  C8_10 
REMARK    4  A    between atoms: C9_11  and  O2_12 
REMARK    5  A    between atoms: O2_12  and  C10_13 
REMARK    6  A    between atoms: C10_13  and  C11_14 
REMARK    7  A    between atoms: C12_15  and  O3_16 
REMARK    8  A    between atoms: C15_19  and  S1_20 
ROOT
HETATM    1  C8  UNL     1      23.573   2.111  51.294  1.00  0.00     0.027 C 
HETATM    2  C9  UNL     1      24.763   2.280  50.750  1.00  0.00     0.132 C 
ENDROOT
BRANCH   1   3
HETATM    3  C7  UNL     1      22.414   1.471  50.632  1.00  0.00     0.300 C 
BRANCH   3   4
HETATM    4  N1  UNL     1      21.917   0.330  51.340  1.00  0.00     0.098 N 
HETATM    5  H10 UNL     1      22.343  -0.580  51.075  1.00  0.00     0.317 HD
BRANCH   4   6
HETATM    6  C6  UNL     1      21.928   0.591  52.772  1.00  0.00     0.289 C 
HETATM    7  C1  UNL     1      20.557   0.887  53.196  1.00  0.00     0.160 C 
HETATM    8  O1  UNL     1      20.069   2.025  53.253  1.00  0.00    -0.296 OA
HETATM    9  C2  UNL     1      19.653  -0.202  53.592  1.00  0.00     0.080 C 
HETATM   10  C3  UNL     1      20.390  -1.482  53.921  1.00  0.00     0.007 C 
HETATM   11  C4  UNL     1      21.677  -1.085  54.617  1.00  0.00     0.003 C 
HETATM   12  C5  UNL     1      22.581  -0.512  53.549  1.00  0.00     0.043 C 
ENDBRANCH   4   6
ENDBRANCH   3   4
ENDBRANCH   1   3
BRANCH   2  13
HETATM   13  O2  UNL     1      25.740   2.901  51.516  1.00  0.00    -0.362 OA
BRANCH  13  14
HETATM   14  C10 UNL     1      25.882   2.345  52.845  1.00  0.00     0.199 C 
BRANCH  14  15
HETATM   15  C11 UNL     1      26.506   1.036  52.697  1.00  0.00     0.083 A 
HETATM   16  C12 UNL     1      27.877   1.396  53.533  1.00  0.00     0.130 A 
HETATM   17  C13 UNL     1      29.278   0.487  53.930  1.00  0.00     0.107 A 
HETATM   18  S1  UNL     1      27.727   0.290  53.057  1.00  0.00    -0.169 SA
HETATM   19  C14 UNL     1      29.853  -0.923  53.718  1.00  0.00     0.051 A 
HETATM   20  C15 UNL     1      28.825  -0.350  53.393  1.00  0.00    -0.035 A 
BRANCH  16  21
HETATM   21  O3  UNL     1      28.215   2.760  54.194  1.00  0.00    -0.377 OA
HETATM   22  H17 UNL     1      29.077   3.195  54.058  1.00  0.00     0.211 HD
ENDBRANCH  16  21
ENDBRANCH  14  15
ENDBRANCH  13  14
ENDBRANCH   2  13
TORSDOF 8
ENDMDL
