MODEL 1
REMARK VINA RESULT:      -7.7      0.000      0.000
REMARK  2 active torsions:
REMARK  status: ('A' for Active; 'I' for Inactive)
REMARK    1  A    between atoms: C3_4  and  O2_5 
REMARK    2  A    between atoms: N1_8  and  C6_9 
ROOT
HETATM    1  C1  UNL     1      25.638   7.516  49.339  1.00  0.00     0.000 C 
HETATM    2  O1  UNL     1      25.496   6.192  49.834  1.00  0.00     0.000 OA
HETATM    3  C2  UNL     1      24.303   5.796  50.479  1.00  0.00    -0.028 A 
HETATM    4  C3  UNL     1      25.187   4.783  50.149  1.00  0.00     0.138 A 
HETATM    5  C5  UNL     1      24.903   3.394  50.358  1.00  0.00     0.176 C 
HETATM    6  N1  UNL     1      25.435   2.537  51.335  1.00  0.00    -0.338 N 
HETATM    7  C13 UNL     1      24.242   2.911  52.087  1.00  0.00     0.211 C 
HETATM    8  N2  UNL     1      23.172   2.390  51.688  1.00  0.00    -0.237 NA
HETATM    9  C14 UNL     1      21.925   2.644  52.282  1.00  0.00     0.228 C 
HETATM   10  N3  UNL     1      21.832   3.936  52.075  1.00  0.00    -0.275 NA
HETATM   11  C15 UNL     1      22.884   4.621  51.404  1.00  0.00     0.144 C 
HETATM   12  C16 UNL     1      22.975   5.881  51.156  1.00  0.00     0.055 C 
ENDROOT
BRANCH   6  13
HETATM   13  C6  UNL     1      25.979   1.685  52.295  1.00  0.00     0.035 C 
HETATM   14  C7  UNL     1      27.182   2.218  52.523  1.00  0.00     0.031 C 
HETATM   15  C8  UNL     1      28.404   1.987  53.364  1.00  0.00     0.027 C 
HETATM   16  C9  UNL     1      28.791   0.734  53.697  1.00  0.00     0.146 C 
HETATM   17  O3  UNL     1      28.478  -0.633  53.562  1.00  0.00    -0.288 OA
HETATM   18  C10 UNL     1      27.241  -1.253  53.144  1.00  0.00     0.287 C 
HETATM   19  O4  UNL     1      27.349  -2.413  52.696  1.00  0.00    -0.260 OA
HETATM   20  C11 UNL     1      25.896  -0.696  53.183  1.00  0.00     0.085 C 
HETATM   21  C12 UNL     1      25.365   0.488  52.846  1.00  0.00     0.036 C 
ENDBRANCH   6  13
BRANCH   4  22
HETATM   22  O2  UNL     1      26.353   5.378  49.546  1.00  0.00    -0.375 OA
HETATM   23  C4  UNL     1      27.262   4.399  48.968  1.00  0.00     0.203 C 
ENDBRANCH   4  22
TORSDOF 2
ENDMDL
MODEL 2
REMARK VINA RESULT:      -7.7      2.956      4.755
REMARK  2 active torsions:
REMARK  status: ('A' for Active; 'I' for Inactive)
REMARK    1  A    between atoms: C3_4  and  O2_5 
REMARK    2  A    between atoms: N1_8  and  C6_9 
ROOT
HETATM    1  C1  UNL     1      19.329  -0.147  52.137  1.00  0.00     0.000 C 
HETATM    2  O1  UNL     1      20.636   0.408  52.189  1.00  0.00     0.000 OA
HETATM    3  C2  UNL     1      21.144   1.138  51.091  1.00  0.00    -0.028 A 
HETATM    4  C3  UNL     1      21.872   1.211  52.266  1.00  0.00     0.138 A 
HETATM    5  C5  UNL     1      23.032   2.038  52.421  1.00  0.00     0.176 C 
HETATM    6  N1  UNL     1      24.379   1.643  52.474  1.00  0.00    -0.338 N 
HETATM    7  C13 UNL     1      24.353   1.917  51.042  1.00  0.00     0.211 C 
HETATM    8  N2  UNL     1      24.343   3.133  50.729  1.00  0.00    -0.237 NA
HETATM    9  C14 UNL     1      24.306   3.585  49.400  1.00  0.00     0.228 C 
HETATM   10  N3  UNL     1      23.161   3.072  49.016  1.00  0.00    -0.275 NA
HETATM   11  C15 UNL     1      22.391   2.300  49.931  1.00  0.00     0.144 C 
HETATM   12  C16 UNL     1      21.276   1.696  49.712  1.00  0.00     0.055 C 
ENDROOT
BRANCH   6  13
HETATM   13  C6  UNL     1      25.713   1.244  52.547  1.00  0.00     0.035 C 
HETATM   14  C7  UNL     1      25.631  -0.087  52.505  1.00  0.00     0.031 C 
HETATM   15  C8  UNL     1      26.521  -1.298  52.525  1.00  0.00     0.027 C 
HETATM   16  C9  UNL     1      27.681  -1.294  53.220  1.00  0.00     0.146 C 
HETATM   17  O3  UNL     1      28.517  -0.519  54.048  1.00  0.00    -0.288 OA
HETATM   18  C10 UNL     1      28.522   0.912  54.261  1.00  0.00     0.287 C 
HETATM   19  O4  UNL     1      29.040   1.290  55.332  1.00  0.00    -0.260 OA
HETATM   20  C11 UNL     1      28.005   1.955  53.387  1.00  0.00     0.085 C 
HETATM   21  C12 UNL     1      26.873   2.109  52.684  1.00  0.00     0.036 C 
ENDBRANCH   6  13
BRANCH   4  22
HETATM   22  O2  UNL     1      21.231   0.374  53.249  1.00  0.00    -0.375 OA
HETATM   23  C4  UNL     1      22.158  -0.164  54.235  1.00  0.00     0.203 C 
ENDBRANCH   4  22
TORSDOF 2
ENDMDL
MODEL 3
REMARK VINA RESULT:      -7.6      1.580      6.255
REMARK  2 active torsions:
REMARK  status: ('A' for Active; 'I' for Inactive)
REMARK    1  A    between atoms: C3_4  and  O2_5 
REMARK    2  A    between atoms: N1_8  and  C6_9 
ROOT
HETATM    1  C1  UNL     1      29.678  -0.950  53.494  1.00  0.00     0.000 C 
HETATM    2  O1  UNL     1      28.571  -0.077  53.318  1.00  0.00     0.000 OA
HETATM    3  C2  UNL     1      27.257  -0.593  53.261  1.00  0.00    -0.028 A 
HETATM    4  C3  UNL     1      27.372   0.781  53.384  1.00  0.00     0.138 A 
HETATM    5  C5  UNL     1      26.244   1.653  53.533  1.00  0.00     0.176 C 
HETATM    6  N1  UNL     1      25.687   2.522  52.581  1.00  0.00    -0.338 N 
HETATM    7  C13 UNL     1      24.803   1.397  52.301  1.00  0.00     0.211 C 
HETATM    8  N2  UNL     1      23.915   1.186  53.164  1.00  0.00    -0.237 NA
HETATM    9  C14 UNL     1      22.983   0.139  53.069  1.00  0.00     0.228 C 
HETATM   10  N3  UNL     1      23.794  -0.892  53.081  1.00  0.00    -0.275 NA
HETATM   11  C15 UNL     1      25.200  -0.683  53.167  1.00  0.00     0.144 C 
HETATM   12  C16 UNL     1      26.133  -1.569  53.150  1.00  0.00     0.055 C 
ENDROOT
BRANCH   6  13
HETATM   13  C6  UNL     1      25.150   3.398  51.639  1.00  0.00     0.035 C 
HETATM   14  C7  UNL     1      26.075   3.411  50.677  1.00  0.00     0.031 C 
HETATM   15  C8  UNL     1      26.338   4.039  49.338  1.00  0.00     0.027 C 
HETATM   16  C9  UNL     1      25.890   5.284  49.056  1.00  0.00     0.146 C 
HETATM   17  O3  UNL     1      25.181   6.388  49.569  1.00  0.00    -0.288 OA
HETATM   18  C10 UNL     1      24.306   6.461  50.718  1.00  0.00     0.287 C 
HETATM   19  O4  UNL     1      24.160   7.601  51.206  1.00  0.00    -0.260 OA
HETATM   20  C11 UNL     1      23.580   5.379  51.368  1.00  0.00     0.085 C 
HETATM   21  C12 UNL     1      23.901   4.135  51.748  1.00  0.00     0.036 C 
ENDBRANCH   6  13
BRANCH   4  22
HETATM   22  O2  UNL     1      28.772   1.121  53.379  1.00  0.00    -0.375 OA
HETATM   23  C4  UNL     1      29.033   2.482  53.828  1.00  0.00     0.203 C 
ENDBRANCH   4  22
TORSDOF 2
ENDMDL
MODEL 4
REMARK VINA RESULT:      -7.6      2.627      4.549
REMARK  2 active torsions:
REMARK  status: ('A' for Active; 'I' for Inactive)
REMARK    1  A    between atoms: C3_4  and  O2_5 
REMARK    2  A    between atoms: N1_8  and  C6_9 
ROOT
HETATM    1  C1  UNL     1      23.717   6.131  48.238  1.00  0.00     0.000 C 
HETATM    2  O1  UNL     1      23.720   5.208  49.318  1.00  0.00     0.000 OA
HETATM    3  C2  UNL     1      24.913   4.549  49.689  1.00  0.00    -0.028 A 
HETATM    4  C3  UNL     1      23.849   4.433  50.567  1.00  0.00     0.138 A 
HETATM    5  C5  UNL     1      23.944   3.763  51.830  1.00  0.00     0.176 C 
HETATM    6  N1  UNL     1      23.422   2.508  52.188  1.00  0.00    -0.338 N 
HETATM    7  C13 UNL     1      24.747   2.026  51.814  1.00  0.00     0.211 C 
HETATM    8  N2  UNL     1      25.663   2.286  52.632  1.00  0.00    -0.237 NA
HETATM    9  C14 UNL     1      27.002   1.913  52.433  1.00  0.00     0.228 C 
HETATM   10  N3  UNL     1      27.262   2.573  51.330  1.00  0.00    -0.275 NA
HETATM   11  C15 UNL     1      26.247   3.368  50.727  1.00  0.00     0.144 C 
HETATM   12  C16 UNL     1      26.317   4.043  49.633  1.00  0.00     0.055 C 
ENDROOT
BRANCH   6  13
HETATM   13  C6  UNL     1      22.886   1.272  52.545  1.00  0.00     0.035 C 
HETATM   14  C7  UNL     1      21.579   1.526  52.638  1.00  0.00     0.031 C 
HETATM   15  C8  UNL     1      20.288   0.826  52.955  1.00  0.00     0.027 C 
HETATM   16  C9  UNL     1      20.251  -0.193  53.843  1.00  0.00     0.146 C 
HETATM   17  O3  UNL     1      21.030  -0.979  54.716  1.00  0.00    -0.288 OA
HETATM   18  C10 UNL     1      22.466  -1.144  54.765  1.00  0.00     0.287 C 
HETATM   19  O4  UNL     1      22.923  -1.524  55.863  1.00  0.00    -0.260 OA
HETATM   20  C11 UNL     1      23.435  -0.925  53.700  1.00  0.00     0.085 C 
HETATM   21  C12 UNL     1      23.622   0.043  52.792  1.00  0.00     0.036 C 
ENDBRANCH   6  13
BRANCH   4  22
HETATM   22  O2  UNL     1      22.718   5.124  50.002  1.00  0.00    -0.375 OA
HETATM   23  C4  UNL     1      21.563   5.152  50.888  1.00  0.00     0.203 C 
ENDBRANCH   4  22
TORSDOF 2
ENDMDL
MODEL 5
REMARK VINA RESULT:      -7.6      2.330      6.840
REMARK  2 active torsions:
REMARK  status: ('A' for Active; 'I' for Inactive)
REMARK    1  A    between atoms: C3_4  and  O2_5 
REMARK    2  A    between atoms: N1_8  and  C6_9 
ROOT
HETATM    1  C1  UNL     1      22.982  -1.771  55.323  1.00  0.00     0.000 C 
HETATM    2  O1  UNL     1      23.598  -0.872  54.412  1.00  0.00     0.000 OA
HETATM    3  C2  UNL     1      24.904  -0.392  54.658  1.00  0.00    -0.028 A 
HETATM    4  C3  UNL     1      24.384  -0.140  53.400  1.00  0.00     0.138 A 
HETATM    5  C5  UNL     1      25.131   0.493  52.354  1.00  0.00     0.176 C 
HETATM    6  N1  UNL     1      24.999   1.803  51.863  1.00  0.00    -0.338 N 
HETATM    7  C13 UNL     1      26.057   2.101  52.823  1.00  0.00     0.211 C 
HETATM    8  N2  UNL     1      27.203   1.703  52.497  1.00  0.00    -0.237 NA
HETATM    9  C14 UNL     1      28.339   1.889  53.302  1.00  0.00     0.228 C 
HETATM   10  N3  UNL     1      27.978   1.214  54.367  1.00  0.00    -0.275 NA
HETATM   11  C15 UNL     1      26.705   0.577  54.401  1.00  0.00     0.144 C 
HETATM   12  C16 UNL     1      26.180  -0.086  55.371  1.00  0.00     0.055 C 
ENDROOT
BRANCH   6  13
HETATM   13  C6  UNL     1      24.852   3.097  51.367  1.00  0.00     0.035 C 
HETATM   14  C7  UNL     1      23.993   3.652  52.224  1.00  0.00     0.031 C 
HETATM   15  C8  UNL     1      23.292   4.958  52.471  1.00  0.00     0.027 C 
HETATM   16  C9  UNL     1      22.927   5.755  51.440  1.00  0.00     0.146 C 
HETATM   17  O3  UNL     1      22.934   5.886  50.037  1.00  0.00    -0.288 OA
HETATM   18  C10 UNL     1      23.722   5.176  49.055  1.00  0.00     0.287 C 
HETATM   19  O4  UNL     1      23.246   5.156  47.901  1.00  0.00    -0.260 OA
HETATM   20  C11 UNL     1      24.992   4.489  49.244  1.00  0.00     0.085 C 
HETATM   21  C12 UNL     1      25.470   3.646  50.171  1.00  0.00     0.036 C 
ENDBRANCH   6  13
BRANCH   4  22
HETATM   22  O2  UNL     1      23.040  -0.659  53.353  1.00  0.00    -0.375 OA
HETATM   23  C4  UNL     1      22.214  -0.018  52.339  1.00  0.00     0.203 C 
ENDBRANCH   4  22
TORSDOF 2
ENDMDL
MODEL 6
REMARK VINA RESULT:      -7.2      1.723      2.422
REMARK  2 active torsions:
REMARK  status: ('A' for Active; 'I' for Inactive)
REMARK    1  A    between atoms: C3_4  and  O2_5 
REMARK    2  A    between atoms: N1_8  and  C6_9 
ROOT
HETATM    1  C1  UNL     1      22.096   5.802  50.522  1.00  0.00     0.000 C 
HETATM    2  O1  UNL     1      22.771   4.620  50.928  1.00  0.00     0.000 OA
HETATM    3  C2  UNL     1      22.073   3.599  51.610  1.00  0.00    -0.028 A 
HETATM    4  C3  UNL     1      23.342   3.279  51.158  1.00  0.00     0.138 A 
HETATM    5  C5  UNL     1      23.912   1.970  51.283  1.00  0.00     0.176 C 
HETATM    6  N1  UNL     1      24.918   1.542  52.166  1.00  0.00    -0.338 N 
HETATM    7  C13 UNL     1      23.794   1.151  53.008  1.00  0.00     0.211 C 
HETATM    8  N2  UNL     1      23.175   0.123  52.635  1.00  0.00    -0.237 NA
HETATM    9  C14 UNL     1      22.060  -0.393  53.314  1.00  0.00     0.228 C 
HETATM   10  N3  UNL     1      21.236   0.621  53.206  1.00  0.00    -0.275 NA
HETATM   11  C15 UNL     1      21.654   1.801  52.527  1.00  0.00     0.144 C 
HETATM   12  C16 UNL     1      20.994   2.894  52.365  1.00  0.00     0.055 C 
ENDROOT
BRANCH   6  13
HETATM   13  C6  UNL     1      25.930   1.126  53.029  1.00  0.00     0.035 C 
HETATM   14  C7  UNL     1      26.836   2.100  52.922  1.00  0.00     0.031 C 
HETATM   15  C8  UNL     1      28.184   2.485  53.461  1.00  0.00     0.027 C 
HETATM   16  C9  UNL     1      29.096   1.540  53.787  1.00  0.00     0.146 C 
HETATM   17  O3  UNL     1      29.340   0.153  53.836  1.00  0.00    -0.288 OA
HETATM   18  C10 UNL     1      28.400  -0.944  53.775  1.00  0.00     0.287 C 
HETATM   19  O4  UNL     1      28.878  -2.036  53.404  1.00  0.00    -0.260 OA
HETATM   20  C11 UNL     1      26.979  -0.932  54.091  1.00  0.00     0.085 C 
HETATM   21  C12 UNL     1      25.964  -0.106  53.801  1.00  0.00     0.036 C 
ENDBRANCH   6  13
BRANCH   4  22
HETATM   22  O2  UNL     1      23.910   4.447  50.535  1.00  0.00    -0.375 OA
HETATM   23  C4  UNL     1      25.293   4.261  50.122  1.00  0.00     0.203 C 
ENDBRANCH   4  22
TORSDOF 2
ENDMDL
MODEL 7
REMARK VINA RESULT:      -7.2      2.574      3.495
REMARK  2 active torsions:
REMARK  status: ('A' for Active; 'I' for Inactive)
REMARK    1  A    between atoms: C3_4  and  O2_5 
REMARK    2  A    between atoms: N1_8  and  C6_9 
ROOT
HETATM    1  C1  UNL     1      21.937   3.833  46.669  1.00  0.00     0.000 C 
HETATM    2  O1  UNL     1      22.316   3.378  47.960  1.00  0.00     0.000 OA
HETATM    3  C2  UNL     1      22.743   4.298  48.943  1.00  0.00    -0.028 A 
HETATM    4  C3  UNL     1      22.487   3.010  49.379  1.00  0.00     0.138 A 
HETATM    5  C5  UNL     1      22.558   2.618  50.756  1.00  0.00     0.176 C 
HETATM    6  N1  UNL     1      23.547   1.848  51.389  1.00  0.00    -0.338 N 
HETATM    7  C13 UNL     1      24.129   3.146  51.711  1.00  0.00     0.211 C 
HETATM    8  N2  UNL     1      23.537   3.791  52.611  1.00  0.00    -0.237 NA
HETATM    9  C14 UNL     1      23.947   5.063  53.043  1.00  0.00     0.228 C 
HETATM   10  N3  UNL     1      23.813   5.737  51.926  1.00  0.00    -0.275 NA
HETATM   11  C15 UNL     1      23.359   5.074  50.751  1.00  0.00     0.144 C 
HETATM   12  C16 UNL     1      23.211   5.569  49.572  1.00  0.00     0.055 C 
ENDROOT
BRANCH   6  13
HETATM   13  C6  UNL     1      24.521   1.067  52.009  1.00  0.00     0.035 C 
HETATM   14  C7  UNL     1      23.818   0.356  52.894  1.00  0.00     0.031 C 
HETATM   15  C8  UNL     1      24.019  -0.694  53.949  1.00  0.00     0.027 C 
HETATM   16  C9  UNL     1      25.160  -0.740  54.674  1.00  0.00     0.146 C 
HETATM   17  O3  UNL     1      26.412  -0.125  54.878  1.00  0.00    -0.288 OA
HETATM   18  C10 UNL     1      27.130   0.794  54.025  1.00  0.00     0.287 C 
HETATM   19  O4  UNL     1      27.972   1.513  54.602  1.00  0.00    -0.260 OA
HETATM   20  C11 UNL     1      26.996   0.982  52.587  1.00  0.00     0.085 C 
HETATM   21  C12 UNL     1      25.952   1.094  51.753  1.00  0.00     0.036 C 
ENDBRANCH   6  13
BRANCH   4  22
HETATM   22  O2  UNL     1      22.111   2.212  48.239  1.00  0.00    -0.375 OA
HETATM   23  C4  UNL     1      21.532   0.927  48.605  1.00  0.00     0.203 C 
ENDBRANCH   4  22
TORSDOF 2
ENDMDL
MODEL 8
REMARK VINA RESULT:      -7.1      3.530      6.732
REMARK  2 active torsions:
REMARK  status: ('A' for Active; 'I' for Inactive)
REMARK    1  A    between atoms: C3_4  and  O2_5 
REMARK    2  A    between atoms: N1_8  and  C6_9 
ROOT
HETATM    1  C1  UNL     1      27.835  -0.388  53.235  1.00  0.00     0.000 C 
HETATM    2  O1  UNL     1      26.519   0.055  52.932  1.00  0.00     0.000 OA
HETATM    3  C2  UNL     1      25.422  -0.387  53.704  1.00  0.00    -0.028 A 
HETATM    4  C3  UNL     1      25.176   0.658  52.830  1.00  0.00     0.138 A 
HETATM    5  C5  UNL     1      23.914   1.333  52.749  1.00  0.00     0.176 C 
HETATM    6  N1  UNL     1      22.939   1.232  51.743  1.00  0.00    -0.338 N 
HETATM    7  C13 UNL     1      22.362   0.222  52.623  1.00  0.00     0.211 C 
HETATM    8  N2  UNL     1      21.785   0.667  53.646  1.00  0.00    -0.237 NA
HETATM    9  C14 UNL     1      21.184  -0.157  54.611  1.00  0.00     0.228 C 
HETATM   10  N3  UNL     1      22.230  -0.837  55.015  1.00  0.00    -0.275 NA
HETATM   11  C15 UNL     1      23.504  -0.584  54.433  1.00  0.00     0.144 C 
HETATM   12  C16 UNL     1      24.618  -1.180  54.681  1.00  0.00     0.055 C 
ENDROOT
BRANCH   6  13
HETATM   13  C6  UNL     1      21.982   1.144  50.734  1.00  0.00     0.035 C 
HETATM   14  C7  UNL     1      22.537   1.831  49.733  1.00  0.00     0.031 C 
HETATM   15  C8  UNL     1      22.247   2.246  48.319  1.00  0.00     0.027 C 
HETATM   16  C9  UNL     1      20.980   2.496  47.916  1.00  0.00     0.146 C 
HETATM   17  O3  UNL     1      19.633   2.534  48.330  1.00  0.00    -0.288 OA
HETATM   18  C10 UNL     1      19.020   1.954  49.504  1.00  0.00     0.287 C 
HETATM   19  O4  UNL     1      17.947   2.482  49.863  1.00  0.00    -0.260 OA
HETATM   20  C11 UNL     1      19.494   0.838  50.310  1.00  0.00     0.085 C 
HETATM   21  C12 UNL     1      20.686   0.491  50.817  1.00  0.00     0.036 C 
ENDBRANCH   6  13
BRANCH   4  22
HETATM   22  O2  UNL     1      26.389   0.936  52.103  1.00  0.00    -0.375 OA
HETATM   23  C4  UNL     1      26.355   2.210  51.399  1.00  0.00     0.203 C 
ENDBRANCH   4  22
TORSDOF 2
ENDMDL
MODEL 9
REMARK VINA RESULT:      -7.1      3.215      6.282
REMARK  2 active torsions:
REMARK  status: ('A' for Active; 'I' for Inactive)
REMARK    1  A    between atoms: C3_4  and  O2_5 
REMARK    2  A    between atoms: N1_8  and  C6_9 
ROOT
HETATM    1  C1  UNL     1      29.487  -0.405  54.018  1.00  0.00     0.000 C 
HETATM    2  O1  UNL     1      28.150  -0.230  53.569  1.00  0.00     0.000 OA
HETATM    3  C2  UNL     1      27.762   0.973  52.939  1.00  0.00    -0.028 A 
HETATM    4  C3  UNL     1      26.862  -0.076  52.866  1.00  0.00     0.138 A 
HETATM    5  C5  UNL     1      25.634  -0.008  52.130  1.00  0.00     0.176 C 
HETATM    6  N1  UNL     1      24.327   0.112  52.630  1.00  0.00    -0.338 N 
HETATM    7  C13 UNL     1      24.548   1.539  52.427  1.00  0.00     0.211 C 
HETATM    8  N2  UNL     1      24.517   1.922  51.231  1.00  0.00    -0.237 NA
HETATM    9  C14 UNL     1      24.721   3.256  50.845  1.00  0.00     0.228 C 
HETATM   10  N3  UNL     1      25.945   3.437  51.282  1.00  0.00    -0.275 NA
HETATM   11  C15 UNL     1      26.623   2.372  51.942  1.00  0.00     0.144 C 
HETATM   12  C16 UNL     1      27.799   2.388  52.463  1.00  0.00     0.055 C 
ENDROOT
BRANCH   6  13
HETATM   13  C6  UNL     1      23.031   0.211  53.131  1.00  0.00     0.035 C 
HETATM   14  C7  UNL     1      22.847  -0.969  53.727  1.00  0.00     0.031 C 
HETATM   15  C8  UNL     1      21.801  -1.721  54.499  1.00  0.00     0.027 C 
HETATM   16  C9  UNL     1      20.485  -1.536  54.245  1.00  0.00     0.146 C 
HETATM   17  O3  UNL     1      19.561  -0.835  53.445  1.00  0.00    -0.288 OA
HETATM   18  C10 UNL     1      19.763   0.349  52.638  1.00  0.00     0.287 C 
HETATM   19  O4  UNL     1      18.941   0.510  51.712  1.00  0.00    -0.260 OA
HETATM   20  C11 UNL     1      20.794   1.367  52.774  1.00  0.00     0.085 C 
HETATM   21  C12 UNL     1      22.120   1.333  52.974  1.00  0.00     0.036 C 
ENDBRANCH   6  13
BRANCH   4  22
HETATM   22  O2  UNL     1      27.406  -1.192  53.598  1.00  0.00    -0.375 OA
HETATM   23  C4  UNL     1      27.347  -2.445  52.860  1.00  0.00     0.203 C 
ENDBRANCH   4  22
TORSDOF 2
ENDMDL
