MODEL 1
REMARK VINA RESULT:      -8.3      0.000      0.000
REMARK  5 active torsions:
REMARK  status: ('A' for Active; 'I' for Inactive)
REMARK    1  A    between atoms: O1_2  and  C2_3 
REMARK    2  A    between atoms: C4_5  and  O2_6 
REMARK    3  A    between atoms: C11_16  and  N3_17 
REMARK    4  A    between atoms: N3_17  and  C12_18 
REMARK    5  A    between atoms: C16_22  and  S1_23 
ROOT
HETATM    1  C2  UNL     1      17.215  -0.872  52.342  1.00  0.00     0.073 A 
HETATM    2  C3  UNL     1      17.525   0.002  51.320  1.00  0.00     0.074 A 
HETATM    3  C4  UNL     1      18.802   0.531  51.102  1.00  0.00     0.081 A 
HETATM    4  C6  UNL     1      19.827   0.150  51.973  1.00  0.00     0.027 A 
HETATM    5  C7  UNL     1      19.486  -0.725  52.984  1.00  0.00     0.091 A 
HETATM    6  C8  UNL     1      18.228  -1.248  53.201  1.00  0.00     0.074 A 
HETATM    7  O3  UNL     1      20.325  -1.255  53.979  1.00  0.00    -0.289 OA
HETATM    8  C9  UNL     1      21.695  -1.038  54.085  1.00  0.00     0.202 A 
HETATM    9  N1  UNL     1      22.120  -1.545  55.280  1.00  0.00    -0.215 NA
HETATM   10  C10 UNL     1      23.448  -1.436  55.584  1.00  0.00     0.238 A 
HETATM   11  N2  UNL     1      24.283  -0.843  54.721  1.00  0.00    -0.222 NA
HETATM   12  C11 UNL     1      23.940  -0.322  53.535  1.00  0.00     0.160 A 
HETATM   13  C18 UNL     1      22.602  -0.435  53.229  1.00  0.00     0.129 A 
HETATM   14  N4  UNL     1      22.283   0.116  51.955  1.00  0.00    -0.379 N 
HETATM   15  C19 UNL     1      21.068   0.808  51.572  1.00  0.00     0.164 C 
HETATM   16  H16 UNL     1      23.104  -0.069  51.299  1.00  0.00     0.160 HD
ENDROOT
BRANCH  12  17
HETATM   17  N3  UNL     1      24.860   0.299  52.660  1.00  0.00    -0.339 N 
HETATM   18  H10 UNL     1      24.737   0.645  51.694  1.00  0.00     0.167 HD
BRANCH  17  19
HETATM   19  C12 UNL     1      26.209   0.609  52.964  1.00  0.00     0.035 A 
HETATM   20  C13 UNL     1      26.563   1.917  53.187  1.00  0.00     0.029 A 
HETATM   21  C14 UNL     1      27.848   2.290  53.509  1.00  0.00     0.004 A 
HETATM   22  C15 UNL     1      28.865   1.365  53.625  1.00  0.00     0.018 A 
HETATM   23  C16 UNL     1      28.557   0.040  53.409  1.00  0.00    -0.001 A 
HETATM   24  C17 UNL     1      27.258  -0.278  53.091  1.00  0.00     0.047 A 
BRANCH  23  25
HETATM   25  S1  UNL     1      29.786  -1.278  53.527  1.00  0.00    -0.143 SA
HETATM   26  H14 UNL     1      30.992  -0.651  53.951  1.00  0.00     0.107 HD
ENDBRANCH  23  25
ENDBRANCH  17  19
ENDBRANCH  12  17
BRANCH   3  27
HETATM   27  O2  UNL     1      19.053   1.406  50.059  1.00  0.00    -0.355 OA
HETATM   28  C5  UNL     1      18.163   2.483  49.862  1.00  0.00     0.210 C 
ENDBRANCH   3  27
BRANCH   1  29
HETATM   29  O1  UNL     1      15.907  -1.327  52.453  1.00  0.00    -0.356 OA
HETATM   30  C1  UNL     1      14.888  -0.353  52.700  1.00  0.00     0.210 C 
ENDBRANCH   1  29
TORSDOF 5
ENDMDL
MODEL 2
REMARK VINA RESULT:      -8.2      5.332      7.686
REMARK  5 active torsions:
REMARK  status: ('A' for Active; 'I' for Inactive)
REMARK    1  A    between atoms: O1_2  and  C2_3 
REMARK    2  A    between atoms: C4_5  and  O2_6 
REMARK    3  A    between atoms: C11_16  and  N3_17 
REMARK    4  A    between atoms: N3_17  and  C12_18 
REMARK    5  A    between atoms: C16_22  and  S1_23 
ROOT
HETATM    1  C2  UNL     1      23.819  -0.522  54.050  1.00  0.00     0.073 A 
HETATM    2  C3  UNL     1      25.185  -0.687  54.154  1.00  0.00     0.074 A 
HETATM    3  C4  UNL     1      26.120   0.033  53.402  1.00  0.00     0.081 A 
HETATM    4  C6  UNL     1      25.641   0.977  52.489  1.00  0.00     0.027 A 
HETATM    5  C7  UNL     1      24.270   1.118  52.409  1.00  0.00     0.091 A 
HETATM    6  C8  UNL     1      23.346   0.410  53.149  1.00  0.00     0.074 A 
HETATM    7  O3  UNL     1      23.545   1.990  51.578  1.00  0.00    -0.289 OA
HETATM    8  C9  UNL     1      24.095   2.934  50.717  1.00  0.00     0.202 A 
HETATM    9  N1  UNL     1      23.093   3.442  49.939  1.00  0.00    -0.215 NA
HETATM   10  C10 UNL     1      23.423   4.395  49.016  1.00  0.00     0.238 A 
HETATM   11  N2  UNL     1      24.694   4.798  48.898  1.00  0.00    -0.222 NA
HETATM   12  C11 UNL     1      25.727   4.345  49.622  1.00  0.00     0.160 A 
HETATM   13  C18 UNL     1      25.394   3.387  50.553  1.00  0.00     0.129 A 
HETATM   14  N4  UNL     1      26.517   2.945  51.311  1.00  0.00    -0.379 N 
HETATM   15  C19 UNL     1      26.771   1.610  51.815  1.00  0.00     0.164 C 
HETATM   16  H16 UNL     1      27.164   3.781  51.460  1.00  0.00     0.160 HD
ENDROOT
BRANCH  12  17
HETATM   17  N3  UNL     1      27.055   4.799  49.455  1.00  0.00    -0.339 N 
HETATM   18  H10 UNL     1      27.937   4.461  49.874  1.00  0.00     0.167 HD
BRANCH  17  19
HETATM   19  C12 UNL     1      27.466   5.862  48.611  1.00  0.00     0.035 A 
HETATM   20  C13 UNL     1      28.758   5.889  48.146  1.00  0.00     0.029 A 
HETATM   21  C14 UNL     1      29.220   6.875  47.306  1.00  0.00     0.004 A 
HETATM   22  C15 UNL     1      28.408   7.905  46.879  1.00  0.00     0.018 A 
HETATM   23  C16 UNL     1      27.102   7.920  47.321  1.00  0.00    -0.001 A 
HETATM   24  C17 UNL     1      26.692   6.911  48.158  1.00  0.00     0.047 A 
BRANCH  23  25
HETATM   25  S1  UNL     1      25.928   9.206  46.843  1.00  0.00    -0.143 SA
HETATM   26  H14 UNL     1      26.427  10.418  47.398  1.00  0.00     0.107 HD
ENDBRANCH  23  25
ENDBRANCH  17  19
ENDBRANCH  12  17
BRANCH   3  27
HETATM   27  O2  UNL     1      27.481  -0.176  53.550  1.00  0.00    -0.355 OA
HETATM   28  C5  UNL     1      28.078   0.160  54.783  1.00  0.00     0.210 C 
ENDBRANCH   3  27
BRANCH   1  29
HETATM   29  O1  UNL     1      22.993  -1.299  54.854  1.00  0.00    -0.356 OA
HETATM   30  C1  UNL     1      21.585  -1.241  54.606  1.00  0.00     0.210 C 
ENDBRANCH   1  29
TORSDOF 5
ENDMDL
MODEL 3
REMARK VINA RESULT:      -8.2      4.978      6.934
REMARK  5 active torsions:
REMARK  status: ('A' for Active; 'I' for Inactive)
REMARK    1  A    between atoms: O1_2  and  C2_3 
REMARK    2  A    between atoms: C4_5  and  O2_6 
REMARK    3  A    between atoms: C11_16  and  N3_17 
REMARK    4  A    between atoms: N3_17  and  C12_18 
REMARK    5  A    between atoms: C16_22  and  S1_23 
ROOT
HETATM    1  C2  UNL     1      22.564  -0.566  53.728  1.00  0.00     0.073 A 
HETATM    2  C3  UNL     1      23.941  -0.515  53.805  1.00  0.00     0.074 A 
HETATM    3  C4  UNL     1      24.708   0.583  53.400  1.00  0.00     0.081 A 
HETATM    4  C6  UNL     1      24.038   1.696  52.884  1.00  0.00     0.027 A 
HETATM    5  C7  UNL     1      22.661   1.615  52.820  1.00  0.00     0.091 A 
HETATM    6  C8  UNL     1      21.903   0.533  53.219  1.00  0.00     0.074 A 
HETATM    7  O3  UNL     1      21.765   2.589  52.347  1.00  0.00    -0.289 OA
HETATM    8  C9  UNL     1      22.110   3.864  51.911  1.00  0.00     0.202 A 
HETATM    9  N1  UNL     1      21.007   4.438  51.345  1.00  0.00    -0.215 NA
HETATM   10  C10 UNL     1      21.131   5.706  50.849  1.00  0.00     0.238 A 
HETATM   11  N2  UNL     1      22.308   6.340  50.926  1.00  0.00    -0.222 NA
HETATM   12  C11 UNL     1      23.429   5.842  51.464  1.00  0.00     0.160 A 
HETATM   13  C18 UNL     1      23.303   4.566  51.965  1.00  0.00     0.129 A 
HETATM   14  N4  UNL     1      24.513   4.082  52.541  1.00  0.00    -0.379 N 
HETATM   15  C19 UNL     1      25.014   2.722  52.526  1.00  0.00     0.164 C 
HETATM   16  H16 UNL     1      25.010   4.903  53.007  1.00  0.00     0.160 HD
ENDROOT
BRANCH  12  17
HETATM   17  N3  UNL     1      24.651   6.552  51.516  1.00  0.00    -0.339 N 
HETATM   18  H10 UNL     1      25.128   7.007  52.312  1.00  0.00     0.167 HD
BRANCH  17  19
HETATM   19  C12 UNL     1      25.526   6.772  50.423  1.00  0.00     0.035 A 
HETATM   20  C13 UNL     1      25.863   5.718  49.610  1.00  0.00     0.029 A 
HETATM   21  C14 UNL     1      26.688   5.861  48.519  1.00  0.00     0.004 A 
HETATM   22  C15 UNL     1      27.232   7.081  48.174  1.00  0.00     0.018 A 
HETATM   23  C16 UNL     1      26.922   8.169  48.962  1.00  0.00    -0.001 A 
HETATM   24  C17 UNL     1      26.093   7.970  50.040  1.00  0.00     0.047 A 
BRANCH  23  25
HETATM   25  S1  UNL     1      27.561   9.825  48.630  1.00  0.00    -0.143 SA
HETATM   26  H14 UNL     1      26.562  10.482  47.857  1.00  0.00     0.107 HD
ENDBRANCH  23  25
ENDBRANCH  17  19
ENDBRANCH  12  17
BRANCH   3  27
HETATM   27  O2  UNL     1      26.089   0.577  53.501  1.00  0.00    -0.355 OA
HETATM   28  C5  UNL     1      26.794  -0.511  52.945  1.00  0.00     0.210 C 
ENDBRANCH   3  27
BRANCH   1  29
HETATM   29  O1  UNL     1      21.917  -1.716  54.163  1.00  0.00    -0.356 OA
HETATM   30  C1  UNL     1      20.488  -1.688  54.222  1.00  0.00     0.210 C 
ENDBRANCH   1  29
TORSDOF 5
ENDMDL
MODEL 4
REMARK VINA RESULT:      -7.8      5.379      8.919
REMARK  5 active torsions:
REMARK  status: ('A' for Active; 'I' for Inactive)
REMARK    1  A    between atoms: O1_2  and  C2_3 
REMARK    2  A    between atoms: C4_5  and  O2_6 
REMARK    3  A    between atoms: C11_16  and  N3_17 
REMARK    4  A    between atoms: N3_17  and  C12_18 
REMARK    5  A    between atoms: C16_22  and  S1_23 
ROOT
HETATM    1  C2  UNL     1      26.898  -0.474  53.213  1.00  0.00     0.073 A 
HETATM    2  C3  UNL     1      25.555  -0.631  53.488  1.00  0.00     0.074 A 
HETATM    3  C4  UNL     1      24.547   0.184  52.960  1.00  0.00     0.081 A 
HETATM    4  C6  UNL     1      24.925   1.222  52.102  1.00  0.00     0.027 A 
HETATM    5  C7  UNL     1      26.276   1.352  51.847  1.00  0.00     0.091 A 
HETATM    6  C8  UNL     1      27.270   0.550  52.367  1.00  0.00     0.074 A 
HETATM    7  O3  UNL     1      26.906   2.304  51.028  1.00  0.00    -0.289 OA
HETATM    8  C9  UNL     1      26.259   3.266  50.258  1.00  0.00     0.202 A 
HETATM    9  N1  UNL     1      27.200   4.126  49.764  1.00  0.00    -0.215 NA
HETATM   10  C10 UNL     1      26.771   5.154  48.973  1.00  0.00     0.238 A 
HETATM   11  N2  UNL     1      25.466   5.293  48.707  1.00  0.00    -0.222 NA
HETATM   12  C11 UNL     1      24.489   4.492  49.155  1.00  0.00     0.160 A 
HETATM   13  C18 UNL     1      24.922   3.455  49.950  1.00  0.00     0.129 A 
HETATM   14  N4  UNL     1      23.854   2.621  50.391  1.00  0.00    -0.379 N 
HETATM   15  C19 UNL     1      23.733   1.944  51.667  1.00  0.00     0.164 C 
HETATM   16  H16 UNL     1      23.133   2.564  49.606  1.00  0.00     0.160 HD
ENDROOT
BRANCH  12  17
HETATM   17  N3  UNL     1      23.122   4.684  48.850  1.00  0.00    -0.339 N 
HETATM   18  H10 UNL     1      22.300   4.752  49.471  1.00  0.00     0.167 HD
BRANCH  17  19
HETATM   19  C12 UNL     1      22.581   4.852  47.550  1.00  0.00     0.035 A 
HETATM   20  C13 UNL     1      22.131   3.750  46.864  1.00  0.00     0.029 A 
HETATM   21  C14 UNL     1      21.574   3.839  45.609  1.00  0.00     0.004 A 
HETATM   22  C15 UNL     1      21.434   5.048  44.960  1.00  0.00     0.018 A 
HETATM   23  C16 UNL     1      21.873   6.182  45.610  1.00  0.00    -0.001 A 
HETATM   24  C17 UNL     1      22.421   6.037  46.862  1.00  0.00     0.047 A 
BRANCH  23  25
HETATM   25  S1  UNL     1      21.754   7.830  44.882  1.00  0.00    -0.143 SA
HETATM   26  H14 UNL     1      22.072   7.672  43.503  1.00  0.00     0.107 HD
ENDBRANCH  23  25
ENDBRANCH  17  19
ENDBRANCH  12  17
BRANCH   3  27
HETATM   27  O2  UNL     1      23.214  -0.021  53.272  1.00  0.00    -0.355 OA
HETATM   28  C5  UNL     1      22.903  -0.926  54.309  1.00  0.00     0.210 C 
ENDBRANCH   3  27
BRANCH   1  29
HETATM   29  O1  UNL     1      27.802  -1.351  53.801  1.00  0.00    -0.356 OA
HETATM   30  C1  UNL     1      29.185  -1.191  53.472  1.00  0.00     0.210 C 
ENDBRANCH   1  29
TORSDOF 5
ENDMDL
MODEL 5
REMARK VINA RESULT:      -7.7      5.129      8.500
REMARK  5 active torsions:
REMARK  status: ('A' for Active; 'I' for Inactive)
REMARK    1  A    between atoms: O1_2  and  C2_3 
REMARK    2  A    between atoms: C4_5  and  O2_6 
REMARK    3  A    between atoms: C11_16  and  N3_17 
REMARK    4  A    between atoms: N3_17  and  C12_18 
REMARK    5  A    between atoms: C16_22  and  S1_23 
ROOT
HETATM    1  C2  UNL     1      27.343   5.948  48.411  1.00  0.00     0.073 A 
HETATM    2  C3  UNL     1      26.111   6.550  48.559  1.00  0.00     0.074 A 
HETATM    3  C4  UNL     1      25.059   6.007  49.306  1.00  0.00     0.081 A 
HETATM    4  C6  UNL     1      25.270   4.779  49.939  1.00  0.00     0.027 A 
HETATM    5  C7  UNL     1      26.513   4.202  49.772  1.00  0.00     0.091 A 
HETATM    6  C8  UNL     1      27.551   4.736  49.037  1.00  0.00     0.074 A 
HETATM    7  O3  UNL     1      26.971   2.984  50.301  1.00  0.00    -0.289 OA
HETATM    8  C9  UNL     1      26.259   2.154  51.160  1.00  0.00     0.202 A 
HETATM    9  N1  UNL     1      26.945   0.980  51.292  1.00  0.00    -0.215 NA
HETATM   10  C10 UNL     1      26.412   0.017  52.103  1.00  0.00     0.238 A 
HETATM   11  N2  UNL     1      25.253   0.242  52.735  1.00  0.00    -0.222 NA
HETATM   12  C11 UNL     1      24.526   1.365  52.653  1.00  0.00     0.160 A 
HETATM   13  C18 UNL     1      25.064   2.335  51.838  1.00  0.00     0.129 A 
HETATM   14  N4  UNL     1      24.268   3.516  51.792  1.00  0.00    -0.379 N 
HETATM   15  C19 UNL     1      24.058   4.395  50.659  1.00  0.00     0.164 C 
HETATM   16  H16 UNL     1      23.837   3.662  52.758  1.00  0.00     0.160 HD
ENDROOT
BRANCH  12  17
HETATM   17  N3  UNL     1      23.303   1.553  53.337  1.00  0.00    -0.339 N 
HETATM   18  H10 UNL     1      22.935   2.379  53.838  1.00  0.00     0.167 HD
BRANCH  17  19
HETATM   19  C12 UNL     1      22.268   0.592  53.459  1.00  0.00     0.035 A 
HETATM   20  C13 UNL     1      22.433  -0.466  54.319  1.00  0.00     0.029 A 
HETATM   21  C14 UNL     1      21.463  -1.424  54.505  1.00  0.00     0.004 A 
HETATM   22  C15 UNL     1      20.259  -1.379  53.834  1.00  0.00     0.018 A 
HETATM   23  C16 UNL     1      20.049  -0.335  52.959  1.00  0.00    -0.001 A 
HETATM   24  C17 UNL     1      21.050   0.595  52.811  1.00  0.00     0.047 A 
BRANCH  23  25
HETATM   25  S1  UNL     1      18.521  -0.149  52.014  1.00  0.00    -0.143 SA
HETATM   26  H14 UNL     1      18.886   0.513  50.808  1.00  0.00     0.107 HD
ENDBRANCH  23  25
ENDBRANCH  17  19
ENDBRANCH  12  17
BRANCH   3  27
HETATM   27  O2  UNL     1      23.842   6.658  49.419  1.00  0.00    -0.355 OA
HETATM   28  C5  UNL     1      23.822   7.936  50.017  1.00  0.00     0.210 C 
ENDBRANCH   3  27
BRANCH   1  29
HETATM   29  O1  UNL     1      28.307   6.589  47.642  1.00  0.00    -0.356 OA
HETATM   30  C1  UNL     1      29.667   6.494  48.075  1.00  0.00     0.210 C 
ENDBRANCH   1  29
TORSDOF 5
ENDMDL
MODEL 6
REMARK VINA RESULT:      -7.7      5.312      8.790
REMARK  5 active torsions:
REMARK  status: ('A' for Active; 'I' for Inactive)
REMARK    1  A    between atoms: O1_2  and  C2_3 
REMARK    2  A    between atoms: C4_5  and  O2_6 
REMARK    3  A    between atoms: C11_16  and  N3_17 
REMARK    4  A    between atoms: N3_17  and  C12_18 
REMARK    5  A    between atoms: C16_22  and  S1_23 
ROOT
HETATM    1  C2  UNL     1      27.084  -0.573  53.266  1.00  0.00     0.073 A 
HETATM    2  C3  UNL     1      25.756  -0.753  53.595  1.00  0.00     0.074 A 
HETATM    3  C4  UNL     1      24.713   0.043  53.109  1.00  0.00     0.081 A 
HETATM    4  C6  UNL     1      25.037   1.086  52.236  1.00  0.00     0.027 A 
HETATM    5  C7  UNL     1      26.373   1.240  51.925  1.00  0.00     0.091 A 
HETATM    6  C8  UNL     1      27.402   0.456  52.404  1.00  0.00     0.074 A 
HETATM    7  O3  UNL     1      26.952   2.202  51.080  1.00  0.00    -0.289 OA
HETATM    8  C9  UNL     1      26.257   3.151  50.336  1.00  0.00     0.202 A 
HETATM    9  N1  UNL     1      27.161   4.026  49.804  1.00  0.00    -0.215 NA
HETATM   10  C10 UNL     1      26.682   5.046  49.030  1.00  0.00     0.238 A 
HETATM   11  N2  UNL     1      25.364   5.161  48.818  1.00  0.00    -0.222 NA
HETATM   12  C11 UNL     1      24.422   4.343  49.306  1.00  0.00     0.160 A 
HETATM   13  C18 UNL     1      24.905   3.315  50.084  1.00  0.00     0.129 A 
HETATM   14  N4  UNL     1      23.872   2.462  50.568  1.00  0.00    -0.379 N 
HETATM   15  C19 UNL     1      23.815   1.785  51.849  1.00  0.00     0.164 C 
HETATM   16  H16 UNL     1      23.120   2.391  49.814  1.00  0.00     0.160 HD
ENDROOT
BRANCH  12  17
HETATM   17  N3  UNL     1      23.040   4.510  49.057  1.00  0.00    -0.339 N 
HETATM   18  H10 UNL     1      22.338   3.841  48.701  1.00  0.00     0.167 HD
BRANCH  17  19
HETATM   19  C12 UNL     1      22.297   5.697  49.280  1.00  0.00     0.035 A 
HETATM   20  C13 UNL     1      22.247   6.228  50.546  1.00  0.00     0.029 A 
HETATM   21  C14 UNL     1      21.565   7.388  50.834  1.00  0.00     0.004 A 
HETATM   22  C15 UNL     1      20.885   8.090  49.861  1.00  0.00     0.018 A 
HETATM   23  C16 UNL     1      20.906   7.594  48.575  1.00  0.00    -0.001 A 
HETATM   24  C17 UNL     1      21.602   6.433  48.343  1.00  0.00     0.047 A 
BRANCH  23  25
HETATM   25  S1  UNL     1      20.061   8.409  47.203  1.00  0.00    -0.143 SA
HETATM   26  H14 UNL     1      20.519   7.762  46.021  1.00  0.00     0.107 HD
ENDBRANCH  23  25
ENDBRANCH  17  19
ENDBRANCH  12  17
BRANCH   3  27
HETATM   27  O2  UNL     1      23.398  -0.186  53.475  1.00  0.00    -0.355 OA
HETATM   28  C5  UNL     1      23.152  -0.937  54.644  1.00  0.00     0.210 C 
ENDBRANCH   3  27
BRANCH   1  29
HETATM   29  O1  UNL     1      28.027  -1.432  53.817  1.00  0.00    -0.356 OA
HETATM   30  C1  UNL     1      29.398  -1.218  53.468  1.00  0.00     0.210 C 
ENDBRANCH   1  29
TORSDOF 5
ENDMDL
MODEL 7
REMARK VINA RESULT:      -7.7      3.916      8.290
REMARK  5 active torsions:
REMARK  status: ('A' for Active; 'I' for Inactive)
REMARK    1  A    between atoms: O1_2  and  C2_3 
REMARK    2  A    between atoms: C4_5  and  O2_6 
REMARK    3  A    between atoms: C11_16  and  N3_17 
REMARK    4  A    between atoms: N3_17  and  C12_18 
REMARK    5  A    between atoms: C16_22  and  S1_23 
ROOT
HETATM    1  C2  UNL     1      27.578   1.169  53.218  1.00  0.00     0.073 A 
HETATM    2  C3  UNL     1      27.244   2.089  52.244  1.00  0.00     0.074 A 
HETATM    3  C4  UNL     1      25.943   2.291  51.771  1.00  0.00     0.081 A 
HETATM    4  C6  UNL     1      24.918   1.514  52.318  1.00  0.00     0.027 A 
HETATM    5  C7  UNL     1      25.284   0.603  53.290  1.00  0.00     0.091 A 
HETATM    6  C8  UNL     1      26.566   0.403  53.757  1.00  0.00     0.074 A 
HETATM    7  O3  UNL     1      24.451  -0.287  53.988  1.00  0.00    -0.289 OA
HETATM    8  C9  UNL     1      23.067  -0.365  53.869  1.00  0.00     0.202 A 
HETATM    9  N1  UNL     1      22.638  -1.472  54.545  1.00  0.00    -0.215 NA
HETATM   10  C10 UNL     1      21.297  -1.735  54.555  1.00  0.00     0.238 A 
HETATM   11  N2  UNL     1      20.453  -0.918  53.912  1.00  0.00    -0.222 NA
HETATM   12  C11 UNL     1      20.799   0.182  53.229  1.00  0.00     0.160 A 
HETATM   13  C18 UNL     1      22.150   0.447  53.222  1.00  0.00     0.129 A 
HETATM   14  N4  UNL     1      22.472   1.632  52.499  1.00  0.00    -0.379 N 
HETATM   15  C19 UNL     1      23.651   1.880  51.693  1.00  0.00     0.164 C 
HETATM   16  H16 UNL     1      21.685   2.336  52.651  1.00  0.00     0.160 HD
ENDROOT
BRANCH  12  17
HETATM   17  N3  UNL     1      19.868   1.010  52.561  1.00  0.00    -0.339 N 
HETATM   18  H10 UNL     1      19.817   2.040  52.490  1.00  0.00     0.167 HD
BRANCH  17  19
HETATM   19  C12 UNL     1      18.765   0.561  51.791  1.00  0.00     0.035 A 
HETATM   20  C13 UNL     1      18.660   0.952  50.479  1.00  0.00     0.029 A 
HETATM   21  C14 UNL     1      17.631   0.538  49.665  1.00  0.00     0.004 A 
HETATM   22  C15 UNL     1      16.634  -0.299  50.123  1.00  0.00     0.018 A 
HETATM   23  C16 UNL     1      16.698  -0.717  51.435  1.00  0.00    -0.001 A 
HETATM   24  C17 UNL     1      17.748  -0.274  52.204  1.00  0.00     0.047 A 
BRANCH  23  25
HETATM   25  S1  UNL     1      15.465  -1.813  52.169  1.00  0.00    -0.143 SA
HETATM   26  H14 UNL     1      14.958  -1.124  53.307  1.00  0.00     0.107 HD
ENDBRANCH  23  25
ENDBRANCH  17  19
ENDBRANCH  12  17
BRANCH   3  27
HETATM   27  O2  UNL     1      25.668   3.230  50.791  1.00  0.00    -0.355 OA
HETATM   28  C5  UNL     1      26.499   3.267  49.651  1.00  0.00     0.210 C 
ENDBRANCH   3  27
BRANCH   1  29
HETATM   29  O1  UNL     1      28.909   1.064  53.602  1.00  0.00    -0.356 OA
HETATM   30  C1  UNL     1      29.390  -0.233  53.970  1.00  0.00     0.210 C 
ENDBRANCH   1  29
TORSDOF 5
ENDMDL
MODEL 8
REMARK VINA RESULT:      -7.4      4.151      8.427
REMARK  5 active torsions:
REMARK  status: ('A' for Active; 'I' for Inactive)
REMARK    1  A    between atoms: O1_2  and  C2_3 
REMARK    2  A    between atoms: C4_5  and  O2_6 
REMARK    3  A    between atoms: C11_16  and  N3_17 
REMARK    4  A    between atoms: N3_17  and  C12_18 
REMARK    5  A    between atoms: C16_22  and  S1_23 
ROOT
HETATM    1  C2  UNL     1      25.844  -0.101  54.192  1.00  0.00     0.073 A 
HETATM    2  C3  UNL     1      26.049   0.774  53.145  1.00  0.00     0.074 A 
HETATM    3  C4  UNL     1      25.040   1.212  52.281  1.00  0.00     0.081 A 
HETATM    4  C6  UNL     1      23.743   0.732  52.491  1.00  0.00     0.027 A 
HETATM    5  C7  UNL     1      23.571  -0.141  53.546  1.00  0.00     0.091 A 
HETATM    6  C8  UNL     1      24.565  -0.574  54.398  1.00  0.00     0.074 A 
HETATM    7  O3  UNL     1      22.379  -0.758  53.962  1.00  0.00    -0.289 OA
HETATM    8  C9  UNL     1      21.119  -0.542  53.413  1.00  0.00     0.202 A 
HETATM    9  N1  UNL     1      20.256  -1.460  53.940  1.00  0.00    -0.215 NA
HETATM   10  C10 UNL     1      18.953  -1.421  53.530  1.00  0.00     0.238 A 
HETATM   11  N2  UNL     1      18.562  -0.502  52.638  1.00  0.00    -0.222 NA
HETATM   12  C11 UNL     1      19.349   0.427  52.078  1.00  0.00     0.160 A 
HETATM   13  C18 UNL     1      20.661   0.387  52.493  1.00  0.00     0.129 A 
HETATM   14  N4  UNL     1      21.458   1.400  51.886  1.00  0.00    -0.379 N 
HETATM   15  C19 UNL     1      22.850   1.308  51.489  1.00  0.00     0.164 C 
HETATM   16  H16 UNL     1      20.853   2.271  51.768  1.00  0.00     0.160 HD
ENDROOT
BRANCH  12  17
HETATM   17  N3  UNL     1      18.889   1.373  51.134  1.00  0.00    -0.339 N 
HETATM   18  H10 UNL     1      19.298   1.676  50.235  1.00  0.00     0.167 HD
BRANCH  17  19
HETATM   19  C12 UNL     1      17.690   2.124  51.233  1.00  0.00     0.035 A 
HETATM   20  C13 UNL     1      17.754   3.446  51.601  1.00  0.00     0.029 A 
HETATM   21  C14 UNL     1      16.636   4.241  51.696  1.00  0.00     0.004 A 
HETATM   22  C15 UNL     1      15.373   3.754  51.427  1.00  0.00     0.018 A 
HETATM   23  C16 UNL     1      15.260   2.432  51.055  1.00  0.00    -0.001 A 
HETATM   24  C17 UNL     1      16.408   1.683  50.975  1.00  0.00     0.047 A 
BRANCH  23  25
HETATM   25  S1  UNL     1      13.672   1.661  50.674  1.00  0.00    -0.143 SA
HETATM   26  H14 UNL     1      12.744   2.190  51.616  1.00  0.00     0.107 HD
ENDBRANCH  23  25
ENDBRANCH  17  19
ENDBRANCH  12  17
BRANCH   3  27
HETATM   27  O2  UNL     1      25.305   2.093  51.246  1.00  0.00    -0.355 OA
HETATM   28  C5  UNL     1      26.612   2.613  51.132  1.00  0.00     0.210 C 
ENDBRANCH   3  27
BRANCH   1  29
HETATM   29  O1  UNL     1      26.932  -0.460  54.979  1.00  0.00    -0.356 OA
HETATM   30  C1  UNL     1      28.198   0.124  54.661  1.00  0.00     0.210 C 
ENDBRANCH   1  29
TORSDOF 5
ENDMDL
MODEL 9
REMARK VINA RESULT:      -7.4      5.706      7.736
REMARK  5 active torsions:
REMARK  status: ('A' for Active; 'I' for Inactive)
REMARK    1  A    between atoms: O1_2  and  C2_3 
REMARK    2  A    between atoms: C4_5  and  O2_6 
REMARK    3  A    between atoms: C11_16  and  N3_17 
REMARK    4  A    between atoms: N3_17  and  C12_18 
REMARK    5  A    between atoms: C16_22  and  S1_23 
ROOT
HETATM    1  C2  UNL     1      22.770   0.543  52.351  1.00  0.00     0.073 A 
HETATM    2  C3  UNL     1      24.069   0.247  52.707  1.00  0.00     0.074 A 
HETATM    3  C4  UNL     1      25.185   0.972  52.276  1.00  0.00     0.081 A 
HETATM    4  C6  UNL     1      24.969   2.066  51.431  1.00  0.00     0.027 A 
HETATM    5  C7  UNL     1      23.659   2.337  51.094  1.00  0.00     0.091 A 
HETATM    6  C8  UNL     1      22.558   1.622  51.518  1.00  0.00     0.074 A 
HETATM    7  O3  UNL     1      23.182   3.370  50.268  1.00  0.00    -0.289 OA
HETATM    8  C9  UNL     1      23.959   4.365  49.685  1.00  0.00     0.202 A 
HETATM    9  N1  UNL     1      23.179   5.057  48.801  1.00  0.00    -0.215 NA
HETATM   10  C10 UNL     1      23.754   6.089  48.114  1.00  0.00     0.238 A 
HETATM   11  N2  UNL     1      25.043   6.390  48.318  1.00  0.00    -0.222 NA
HETATM   12  C11 UNL     1      25.867   5.758  49.165  1.00  0.00     0.160 A 
HETATM   13  C18 UNL     1      25.287   4.720  49.858  1.00  0.00     0.129 A 
HETATM   14  N4  UNL     1      26.192   4.086  50.757  1.00  0.00    -0.379 N 
HETATM   15  C19 UNL     1      26.253   2.680  51.103  1.00  0.00     0.164 C 
HETATM   16  H16 UNL     1      26.840   4.834  51.156  1.00  0.00     0.160 HD
ENDROOT
BRANCH  12  17
HETATM   17  N3  UNL     1      27.225   6.111  49.342  1.00  0.00    -0.339 N 
HETATM   18  H10 UNL     1      27.828   6.056  50.179  1.00  0.00     0.167 HD
BRANCH  17  19
HETATM   19  C12 UNL     1      28.084   6.622  48.336  1.00  0.00     0.035 A 
HETATM   20  C13 UNL     1      27.626   7.616  47.505  1.00  0.00     0.029 A 
HETATM   21  C14 UNL     1      28.409   8.176  46.523  1.00  0.00     0.004 A 
HETATM   22  C15 UNL     1      29.710   7.768  46.310  1.00  0.00     0.018 A 
HETATM   23  C16 UNL     1      30.212   6.772  47.120  1.00  0.00    -0.001 A 
HETATM   24  C17 UNL     1      29.388   6.248  48.086  1.00  0.00     0.047 A 
BRANCH  23  25
HETATM   25  S1  UNL     1      31.896   6.140  46.956  1.00  0.00    -0.143 SA
HETATM   26  H14 UNL     1      32.715   7.000  47.741  1.00  0.00     0.107 HD
ENDBRANCH  23  25
ENDBRANCH  17  19
ENDBRANCH  12  17
BRANCH   3  27
HETATM   27  O2  UNL     1      26.468   0.627  52.667  1.00  0.00    -0.355 OA
HETATM   28  C5  UNL     1      26.836  -0.734  52.618  1.00  0.00     0.210 C 
ENDBRANCH   3  27
BRANCH   1  29
HETATM   29  O1  UNL     1      21.747  -0.256  52.847  1.00  0.00    -0.356 OA
HETATM   30  C1  UNL     1      20.883   0.314  53.835  1.00  0.00     0.210 C 
ENDBRANCH   1  29
TORSDOF 5
ENDMDL
