MODEL 1
REMARK VINA RESULT:      -8.7      0.000      0.000
REMARK  3 active torsions:
REMARK  status: ('A' for Active; 'I' for Inactive)
REMARK    1  A    between atoms: C3_4  and  N1_5 
REMARK    2  A    between atoms: N1_5  and  C4_6 
REMARK    3  A    between atoms: C10_14  and  C11_15 
ROOT
HETATM    1  F1  UNL     1      23.322   0.989  51.493  1.00  0.00    -0.205 F 
HETATM    2  C1  UNL     1      22.677   0.357  52.491  1.00  0.00     0.131 A 
HETATM    3  C2  UNL     1      21.309   0.391  52.594  1.00  0.00     0.072 A 
HETATM    4  C3  UNL     1      20.614  -0.256  53.621  1.00  0.00     0.036 A 
HETATM    5  C8  UNL     1      21.428  -0.923  54.507  1.00  0.00     0.030 A 
HETATM    6  C9  UNL     1      22.810  -0.995  54.457  1.00  0.00     0.020 A 
HETATM    7  C10 UNL     1      23.412  -0.333  53.420  1.00  0.00     0.038 A 
ENDROOT
BRANCH   7   8
HETATM    8  C11 UNL     1      24.899  -0.443  53.414  1.00  0.00     0.112 A 
HETATM    9  N4  UNL     1      25.761  -1.172  53.226  1.00  0.00    -0.239 NA
HETATM   10  C12 UNL     1      27.064  -0.976  53.302  1.00  0.00     0.075 A 
HETATM   11  C13 UNL     1      28.110  -1.842  53.080  1.00  0.00     0.033 A 
HETATM   12  C17 UNL     1      27.450   0.324  53.668  1.00  0.00     0.035 A 
HETATM   13  C14 UNL     1      29.393  -1.421  53.217  1.00  0.00     0.002 A 
HETATM   14  C15 UNL     1      29.793  -0.136  53.580  1.00  0.00     0.002 A 
HETATM   15  C16 UNL     1      28.778   0.762  53.812  1.00  0.00     0.021 A 
HETATM   16  S1  UNL     1      25.840   1.140  53.868  1.00  0.00    -0.067 SA
ENDBRANCH   7   8
BRANCH   4  17
HETATM   17  N1  UNL     1      19.218  -0.184  53.672  1.00  0.00    -0.341 N 
HETATM   18  H2  UNL     1      18.803   0.756  53.936  1.00  0.00     0.167 HD
BRANCH  17  19
HETATM   19  C4  UNL     1      18.271  -1.207  53.415  1.00  0.00     0.130 A 
HETATM   20  C5  UNL     1      17.154  -0.959  52.625  1.00  0.00     0.070 A 
HETATM   21  C6  UNL     1      16.193  -1.891  52.329  1.00  0.00     0.122 A 
HETATM   22  N2  UNL     1      16.350  -3.122  52.841  1.00  0.00    -0.254 NA
HETATM   23  C7  UNL     1      17.423  -3.421  53.620  1.00  0.00     0.234 A 
HETATM   24  N3  UNL     1      18.301  -2.456  53.853  1.00  0.00    -0.225 NA
ENDBRANCH  17  19
ENDBRANCH   4  17
TORSDOF 3
ENDMDL
MODEL 2
REMARK VINA RESULT:      -8.7      1.546      2.090
REMARK  3 active torsions:
REMARK  status: ('A' for Active; 'I' for Inactive)
REMARK    1  A    between atoms: C3_4  and  N1_5 
REMARK    2  A    between atoms: N1_5  and  C4_6 
REMARK    3  A    between atoms: C10_14  and  C11_15 
ROOT
HETATM    1  F1  UNL     1      23.714  -1.624  55.867  1.00  0.00    -0.205 F 
HETATM    2  C1  UNL     1      23.033  -1.084  54.841  1.00  0.00     0.131 A 
HETATM    3  C2  UNL     1      21.661  -1.066  54.822  1.00  0.00     0.072 A 
HETATM    4  C3  UNL     1      20.928  -0.512  53.767  1.00  0.00     0.036 A 
HETATM    5  C8  UNL     1      21.710   0.007  52.761  1.00  0.00     0.030 A 
HETATM    6  C9  UNL     1      23.095   0.020  52.721  1.00  0.00     0.020 A 
HETATM    7  C10 UNL     1      23.734  -0.544  53.794  1.00  0.00     0.038 A 
ENDROOT
BRANCH   7   8
HETATM    8  C11 UNL     1      25.222  -0.504  53.700  1.00  0.00     0.112 A 
HETATM    9  N4  UNL     1      26.146  -1.161  53.540  1.00  0.00    -0.239 NA
HETATM   10  C12 UNL     1      27.422  -0.827  53.505  1.00  0.00     0.075 A 
HETATM   11  C13 UNL     1      28.542  -1.604  53.313  1.00  0.00     0.033 A 
HETATM   12  C17 UNL     1      27.685   0.540  53.692  1.00  0.00     0.035 A 
HETATM   13  C14 UNL     1      29.778  -1.043  53.315  1.00  0.00     0.002 A 
HETATM   14  C15 UNL     1      30.056   0.310  53.499  1.00  0.00     0.002 A 
HETATM   15  C16 UNL     1      28.965   1.123  53.694  1.00  0.00     0.021 A 
HETATM   16  S1  UNL     1      26.010   1.208  53.904  1.00  0.00    -0.067 SA
ENDBRANCH   7   8
BRANCH   4  17
HETATM   17  N1  UNL     1      19.530  -0.524  53.807  1.00  0.00    -0.341 N 
HETATM   18  H2  UNL     1      19.085  -0.571  54.769  1.00  0.00     0.167 HD
BRANCH  17  19
HETATM   19  C4  UNL     1      18.616  -0.481  52.724  1.00  0.00     0.130 A 
HETATM   20  C5  UNL     1      17.376  -1.103  52.817  1.00  0.00     0.070 A 
HETATM   21  C6  UNL     1      16.436  -1.109  51.818  1.00  0.00     0.122 A 
HETATM   22  N2  UNL     1      16.744  -0.469  50.678  1.00  0.00    -0.254 NA
HETATM   23  C7  UNL     1      17.942   0.156  50.533  1.00  0.00     0.234 A 
HETATM   24  N3  UNL     1      18.788   0.109  51.551  1.00  0.00    -0.225 NA
ENDBRANCH  17  19
ENDBRANCH   4  17
TORSDOF 3
ENDMDL
MODEL 3
REMARK VINA RESULT:      -8.3      2.352      8.760
REMARK  3 active torsions:
REMARK  status: ('A' for Active; 'I' for Inactive)
REMARK    1  A    between atoms: C3_4  and  N1_5 
REMARK    2  A    between atoms: N1_5  and  C4_6 
REMARK    3  A    between atoms: C10_14  and  C11_15 
ROOT
HETATM    1  F1  UNL     1      23.552   1.134  51.530  1.00  0.00    -0.205 F 
HETATM    2  C1  UNL     1      23.659   0.432  52.672  1.00  0.00     0.131 A 
HETATM    3  C2  UNL     1      24.860   0.302  53.323  1.00  0.00     0.072 A 
HETATM    4  C3  UNL     1      25.000  -0.423  54.511  1.00  0.00     0.036 A 
HETATM    5  C8  UNL     1      23.828  -0.987  54.957  1.00  0.00     0.030 A 
HETATM    6  C9  UNL     1      22.587  -0.894  54.348  1.00  0.00     0.020 A 
HETATM    7  C10 UNL     1      22.539  -0.166  53.189  1.00  0.00     0.038 A 
ENDROOT
BRANCH   7   8
HETATM    8  C11 UNL     1      21.182  -0.097  52.575  1.00  0.00     0.112 A 
HETATM    9  N4  UNL     1      20.611   0.279  51.655  1.00  0.00    -0.239 NA
HETATM   10  C12 UNL     1      19.327   0.192  51.365  1.00  0.00     0.075 A 
HETATM   11  C13 UNL     1      18.629   0.639  50.267  1.00  0.00     0.033 A 
HETATM   12  C17 UNL     1      18.542  -0.461  52.330  1.00  0.00     0.035 A 
HETATM   13  C14 UNL     1      17.290   0.438  50.173  1.00  0.00     0.002 A 
HETATM   14  C15 UNL     1      16.497  -0.207  51.120  1.00  0.00     0.002 A 
HETATM   15  C16 UNL     1      17.155  -0.670  52.235  1.00  0.00     0.021 A 
HETATM   16  S1  UNL     1      19.784  -0.887  53.584  1.00  0.00    -0.067 SA
ENDBRANCH   7   8
BRANCH   4  17
HETATM   17  N1  UNL     1      26.253  -0.518  55.127  1.00  0.00    -0.341 N 
HETATM   18  H2  UNL     1      26.253  -0.748  56.162  1.00  0.00     0.167 HD
BRANCH  17  19
HETATM   19  C4  UNL     1      27.536  -0.347  54.549  1.00  0.00     0.130 A 
HETATM   20  C5  UNL     1      28.179   0.885  54.602  1.00  0.00     0.070 A 
HETATM   21  C6  UNL     1      29.418   1.134  54.069  1.00  0.00     0.122 A 
HETATM   22  N2  UNL     1      30.042   0.115  53.456  1.00  0.00    -0.254 NA
HETATM   23  C7  UNL     1      29.460  -1.111  53.376  1.00  0.00     0.234 A 
HETATM   24  N3  UNL     1      28.261  -1.259  53.919  1.00  0.00    -0.225 NA
ENDBRANCH  17  19
ENDBRANCH   4  17
TORSDOF 3
ENDMDL
MODEL 4
REMARK VINA RESULT:      -8.2      2.509      3.322
REMARK  3 active torsions:
REMARK  status: ('A' for Active; 'I' for Inactive)
REMARK    1  A    between atoms: C3_4  and  N1_5 
REMARK    2  A    between atoms: N1_5  and  C4_6 
REMARK    3  A    between atoms: C10_14  and  C11_15 
ROOT
HETATM    1  F1  UNL     1      23.251  -1.474  54.788  1.00  0.00    -0.205 F 
HETATM    2  C1  UNL     1      22.869  -0.500  53.942  1.00  0.00     0.131 A 
HETATM    3  C2  UNL     1      21.548  -0.156  53.797  1.00  0.00     0.072 A 
HETATM    4  C3  UNL     1      21.123   0.851  52.924  1.00  0.00     0.036 A 
HETATM    5  C8  UNL     1      22.148   1.455  52.233  1.00  0.00     0.030 A 
HETATM    6  C9  UNL     1      23.496   1.154  52.335  1.00  0.00     0.020 A 
HETATM    7  C10 UNL     1      23.826   0.156  53.212  1.00  0.00     0.038 A 
ENDROOT
BRANCH   7   8
HETATM    8  C11 UNL     1      25.288  -0.128  53.283  1.00  0.00     0.112 A 
HETATM    9  N4  UNL     1      26.070  -0.949  53.121  1.00  0.00    -0.239 NA
HETATM   10  C12 UNL     1      27.380  -0.909  53.273  1.00  0.00     0.075 A 
HETATM   11  C13 UNL     1      28.330  -1.887  53.082  1.00  0.00     0.033 A 
HETATM   12  C17 UNL     1      27.893   0.329  53.697  1.00  0.00     0.035 A 
HETATM   13  C14 UNL     1      29.643  -1.622  53.301  1.00  0.00     0.002 A 
HETATM   14  C15 UNL     1      30.168  -0.401  53.722  1.00  0.00     0.002 A 
HETATM   15  C16 UNL     1      29.252   0.604  53.924  1.00  0.00     0.021 A 
HETATM   16  S1  UNL     1      26.379   1.323  53.833  1.00  0.00    -0.067 SA
ENDBRANCH   7   8
BRANCH   4  17
HETATM   17  N1  UNL     1      19.762   1.156  52.820  1.00  0.00    -0.341 N 
HETATM   18  H2  UNL     1      19.127   0.740  53.562  1.00  0.00     0.167 HD
BRANCH  17  19
HETATM   19  C4  UNL     1      19.107   1.954  51.848  1.00  0.00     0.130 A 
HETATM   20  C5  UNL     1      18.756   1.422  50.613  1.00  0.00     0.070 A 
HETATM   21  C6  UNL     1      18.122   2.124  49.620  1.00  0.00     0.122 A 
HETATM   22  N2  UNL     1      17.828   3.411  49.866  1.00  0.00    -0.254 NA
HETATM   23  C7  UNL     1      18.148   3.982  51.057  1.00  0.00     0.234 A 
HETATM   24  N3  UNL     1      18.759   3.227  51.957  1.00  0.00    -0.225 NA
ENDBRANCH  17  19
ENDBRANCH   4  17
TORSDOF 3
ENDMDL
MODEL 5
REMARK VINA RESULT:      -7.9      6.071      9.760
REMARK  3 active torsions:
REMARK  status: ('A' for Active; 'I' for Inactive)
REMARK    1  A    between atoms: C3_4  and  N1_5 
REMARK    2  A    between atoms: N1_5  and  C4_6 
REMARK    3  A    between atoms: C10_14  and  C11_15 
ROOT
HETATM    1  F1  UNL     1      26.853   1.867  50.762  1.00  0.00    -0.205 F 
HETATM    2  C1  UNL     1      26.166   2.972  50.420  1.00  0.00     0.131 A 
HETATM    3  C2  UNL     1      26.716   3.935  49.612  1.00  0.00     0.072 A 
HETATM    4  C3  UNL     1      26.024   5.093  49.241  1.00  0.00     0.036 A 
HETATM    5  C8  UNL     1      24.753   5.171  49.762  1.00  0.00     0.030 A 
HETATM    6  C9  UNL     1      24.143   4.235  50.581  1.00  0.00     0.020 A 
HETATM    7  C10 UNL     1      24.890   3.131  50.896  1.00  0.00     0.038 A 
ENDROOT
BRANCH   7   8
HETATM    8  C11 UNL     1      24.187   2.157  51.779  1.00  0.00     0.112 A 
HETATM    9  N4  UNL     1      24.346   1.218  52.415  1.00  0.00    -0.239 NA
HETATM   10  C12 UNL     1      23.481   0.528  53.134  1.00  0.00     0.075 A 
HETATM   11  C13 UNL     1      23.658  -0.600  53.901  1.00  0.00     0.033 A 
HETATM   12  C17 UNL     1      22.166   1.022  53.116  1.00  0.00     0.035 A 
HETATM   13  C14 UNL     1      22.612  -1.151  54.568  1.00  0.00     0.002 A 
HETATM   14  C15 UNL     1      21.302  -0.674  54.561  1.00  0.00     0.002 A 
HETATM   15  C16 UNL     1      21.081   0.453  53.805  1.00  0.00     0.021 A 
HETATM   16  S1  UNL     1      22.333   2.468  52.030  1.00  0.00    -0.067 SA
ENDBRANCH   7   8
BRANCH   4  17
HETATM   17  N1  UNL     1      26.639   6.038  48.414  1.00  0.00    -0.341 N 
HETATM   18  H2  UNL     1      26.521   5.900  47.369  1.00  0.00     0.167 HD
BRANCH  17  19
HETATM   19  C4  UNL     1      27.409   7.169  48.786  1.00  0.00     0.130 A 
HETATM   20  C5  UNL     1      26.863   8.167  49.586  1.00  0.00     0.070 A 
HETATM   21  C6  UNL     1      27.537   9.290  49.991  1.00  0.00     0.122 A 
HETATM   22  N2  UNL     1      28.809   9.427  49.580  1.00  0.00    -0.254 NA
HETATM   23  C7  UNL     1      29.393   8.483  48.796  1.00  0.00     0.234 A 
HETATM   24  N3  UNL     1      28.664   7.430  48.455  1.00  0.00    -0.225 NA
ENDBRANCH  17  19
ENDBRANCH   4  17
TORSDOF 3
ENDMDL
MODEL 6
REMARK VINA RESULT:      -7.9      6.754     10.822
REMARK  3 active torsions:
REMARK  status: ('A' for Active; 'I' for Inactive)
REMARK    1  A    between atoms: C3_4  and  N1_5 
REMARK    2  A    between atoms: N1_5  and  C4_6 
REMARK    3  A    between atoms: C10_14  and  C11_15 
ROOT
HETATM    1  F1  UNL     1      24.186   5.835  50.639  1.00  0.00    -0.205 F 
HETATM    2  C1  UNL     1      25.305   5.476  49.984  1.00  0.00     0.131 A 
HETATM    3  C2  UNL     1      26.062   6.396  49.304  1.00  0.00     0.072 A 
HETATM    4  C3  UNL     1      27.230   6.050  48.614  1.00  0.00     0.036 A 
HETATM    5  C8  UNL     1      27.540   4.712  48.686  1.00  0.00     0.030 A 
HETATM    6  C9  UNL     1      26.819   3.736  49.355  1.00  0.00     0.020 A 
HETATM    7  C10 UNL     1      25.689   4.160  50.003  1.00  0.00     0.038 A 
ENDROOT
BRANCH   7   8
HETATM    8  C11 UNL     1      24.951   3.071  50.706  1.00  0.00     0.112 A 
HETATM    9  N4  UNL     1      23.923   2.576  50.800  1.00  0.00    -0.239 NA
HETATM   10  C12 UNL     1      23.540   1.563  51.554  1.00  0.00     0.075 A 
HETATM   11  C13 UNL     1      22.311   0.958  51.676  1.00  0.00     0.033 A 
HETATM   12  C17 UNL     1      24.547   1.009  52.363  1.00  0.00     0.035 A 
HETATM   13  C14 UNL     1      22.139  -0.087  52.526  1.00  0.00     0.002 A 
HETATM   14  C15 UNL     1      23.126  -0.647  53.335  1.00  0.00     0.002 A 
HETATM   15  C16 UNL     1      24.371  -0.072  53.244  1.00  0.00     0.021 A 
HETATM   16  S1  UNL     1      25.974   2.046  51.930  1.00  0.00    -0.067 SA
ENDBRANCH   7   8
BRANCH   4  17
HETATM   17  N1  UNL     1      27.958   7.035  47.939  1.00  0.00    -0.341 N 
HETATM   18  H2  UNL     1      27.528   7.411  47.045  1.00  0.00     0.167 HD
BRANCH  17  19
HETATM   19  C4  UNL     1      29.208   7.604  48.290  1.00  0.00     0.130 A 
HETATM   20  C5  UNL     1      30.398   7.015  47.877  1.00  0.00     0.070 A 
HETATM   21  C6  UNL     1      31.645   7.501  48.173  1.00  0.00     0.122 A 
HETATM   22  N2  UNL     1      31.712   8.620  48.912  1.00  0.00    -0.254 NA
HETATM   23  C7  UNL     1      30.581   9.238  49.342  1.00  0.00     0.234 A 
HETATM   24  N3  UNL     1      29.419   8.697  49.008  1.00  0.00    -0.225 NA
ENDBRANCH  17  19
ENDBRANCH   4  17
TORSDOF 3
ENDMDL
MODEL 7
REMARK VINA RESULT:      -7.5      7.016     10.390
REMARK  3 active torsions:
REMARK  status: ('A' for Active; 'I' for Inactive)
REMARK    1  A    between atoms: C3_4  and  N1_5 
REMARK    2  A    between atoms: N1_5  and  C4_6 
REMARK    3  A    between atoms: C10_14  and  C11_15 
ROOT
HETATM    1  F1  UNL     1      24.001   5.663  50.902  1.00  0.00    -0.205 F 
HETATM    2  C1  UNL     1      25.099   5.342  50.195  1.00  0.00     0.131 A 
HETATM    3  C2  UNL     1      25.794   6.286  49.482  1.00  0.00     0.072 A 
HETATM    4  C3  UNL     1      26.937   5.979  48.738  1.00  0.00     0.036 A 
HETATM    5  C8  UNL     1      27.294   4.652  48.790  1.00  0.00     0.030 A 
HETATM    6  C9  UNL     1      26.636   3.652  49.490  1.00  0.00     0.020 A 
HETATM    7  C10 UNL     1      25.526   4.039  50.191  1.00  0.00     0.038 A 
ENDROOT
BRANCH   7   8
HETATM    8  C11 UNL     1      24.857   2.926  50.925  1.00  0.00     0.112 A 
HETATM    9  N4  UNL     1      23.867   2.357  51.021  1.00  0.00    -0.239 NA
HETATM   10  C12 UNL     1      23.546   1.349  51.809  1.00  0.00     0.075 A 
HETATM   11  C13 UNL     1      22.363   0.658  51.934  1.00  0.00     0.033 A 
HETATM   12  C17 UNL     1      24.574   0.906  52.658  1.00  0.00     0.035 A 
HETATM   13  C14 UNL     1      22.252  -0.362  52.823  1.00  0.00     0.002 A 
HETATM   14  C15 UNL     1      23.261  -0.813  53.672  1.00  0.00     0.002 A 
HETATM   15  C16 UNL     1      24.461  -0.149  53.580  1.00  0.00     0.021 A 
HETATM   16  S1  UNL     1      25.927   2.031  52.209  1.00  0.00    -0.067 SA
ENDBRANCH   7   8
BRANCH   4  17
HETATM   17  N1  UNL     1      27.602   6.987  48.031  1.00  0.00    -0.341 N 
HETATM   18  H2  UNL     1      28.078   6.697  47.129  1.00  0.00     0.167 HD
BRANCH  17  19
HETATM   19  C4  UNL     1      27.727   8.361  48.361  1.00  0.00     0.130 A 
HETATM   20  C5  UNL     1      28.844   8.827  49.045  1.00  0.00     0.070 A 
HETATM   21  C6  UNL     1      29.042  10.136  49.402  1.00  0.00     0.122 A 
HETATM   22  N2  UNL     1      28.088  11.018  49.064  1.00  0.00    -0.254 NA
HETATM   23  C7  UNL     1      26.975  10.618  48.395  1.00  0.00     0.234 A 
HETATM   24  N3  UNL     1      26.869   9.332  48.092  1.00  0.00    -0.225 NA
ENDBRANCH  17  19
ENDBRANCH   4  17
TORSDOF 3
ENDMDL
MODEL 8
REMARK VINA RESULT:      -7.5      7.602     11.461
REMARK  3 active torsions:
REMARK  status: ('A' for Active; 'I' for Inactive)
REMARK    1  A    between atoms: C3_4  and  N1_5 
REMARK    2  A    between atoms: N1_5  and  C4_6 
REMARK    3  A    between atoms: C10_14  and  C11_15 
ROOT
HETATM    1  F1  UNL     1      24.620   6.534  49.886  1.00  0.00    -0.205 F 
HETATM    2  C1  UNL     1      25.783   6.084  49.382  1.00  0.00     0.131 A 
HETATM    3  C2  UNL     1      26.653   6.922  48.730  1.00  0.00     0.072 A 
HETATM    4  C3  UNL     1      27.868   6.480  48.196  1.00  0.00     0.036 A 
HETATM    5  C8  UNL     1      28.103   5.138  48.387  1.00  0.00     0.030 A 
HETATM    6  C9  UNL     1      27.267   4.243  49.035  1.00  0.00     0.020 A 
HETATM    7  C10 UNL     1      26.098   4.757  49.527  1.00  0.00     0.038 A 
ENDROOT
BRANCH   7   8
HETATM    8  C11 UNL     1      25.237   3.752  50.214  1.00  0.00     0.112 A 
HETATM    9  N4  UNL     1      25.145   3.126  51.169  1.00  0.00    -0.239 NA
HETATM   10  C12 UNL     1      24.212   2.264  51.526  1.00  0.00     0.075 A 
HETATM   11  C13 UNL     1      24.089   1.506  52.668  1.00  0.00     0.033 A 
HETATM   12  C17 UNL     1      23.174   2.090  50.594  1.00  0.00     0.035 A 
HETATM   13  C14 UNL     1      23.030   0.672  52.830  1.00  0.00     0.002 A 
HETATM   14  C15 UNL     1      21.994   0.487  51.916  1.00  0.00     0.002 A 
HETATM   15  C16 UNL     1      22.078   1.226  50.760  1.00  0.00     0.021 A 
HETATM   16  S1  UNL     1      23.681   3.223  49.268  1.00  0.00    -0.067 SA
ENDBRANCH   7   8
BRANCH   4  17
HETATM   17  N1  UNL     1      28.712   7.383  47.542  1.00  0.00    -0.341 N 
HETATM   18  H2  UNL     1      29.008   7.124  46.557  1.00  0.00     0.167 HD
BRANCH  17  19
HETATM   19  C4  UNL     1      29.232   8.612  48.022  1.00  0.00     0.130 A 
HETATM   20  C5  UNL     1      30.150   8.634  49.066  1.00  0.00     0.070 A 
HETATM   21  C6  UNL     1      30.699   9.777  49.589  1.00  0.00     0.122 A 
HETATM   22  N2  UNL     1      30.319  10.947  49.049  1.00  0.00    -0.254 NA
HETATM   23  C7  UNL     1      29.425  10.983  48.026  1.00  0.00     0.234 A 
HETATM   24  N3  UNL     1      28.946   9.829  47.586  1.00  0.00    -0.225 NA
ENDBRANCH  17  19
ENDBRANCH   4  17
TORSDOF 3
ENDMDL
MODEL 9
REMARK VINA RESULT:      -7.5      2.069      2.794
REMARK  3 active torsions:
REMARK  status: ('A' for Active; 'I' for Inactive)
REMARK    1  A    between atoms: C3_4  and  N1_5 
REMARK    2  A    between atoms: N1_5  and  C4_6 
REMARK    3  A    between atoms: C10_14  and  C11_15 
ROOT
HETATM    1  F1  UNL     1      23.250   2.858  52.561  1.00  0.00    -0.205 F 
HETATM    2  C1  UNL     1      22.677   1.661  52.780  1.00  0.00     0.131 A 
HETATM    3  C2  UNL     1      21.320   1.485  52.671  1.00  0.00     0.072 A 
HETATM    4  C3  UNL     1      20.698   0.252  52.894  1.00  0.00     0.036 A 
HETATM    5  C8  UNL     1      21.572  -0.756  53.230  1.00  0.00     0.030 A 
HETATM    6  C9  UNL     1      22.947  -0.644  53.355  1.00  0.00     0.020 A 
HETATM    7  C10 UNL     1      23.474   0.598  53.120  1.00  0.00     0.038 A 
ENDROOT
BRANCH   7   8
HETATM    8  C11 UNL     1      24.956   0.664  53.269  1.00  0.00     0.112 A 
HETATM    9  N4  UNL     1      25.826   1.386  53.453  1.00  0.00    -0.239 NA
HETATM   10  C12 UNL     1      27.120   1.143  53.539  1.00  0.00     0.075 A 
HETATM   11  C13 UNL     1      28.175   1.999  53.759  1.00  0.00     0.033 A 
HETATM   12  C17 UNL     1      27.485  -0.205  53.384  1.00  0.00     0.035 A 
HETATM   13  C14 UNL     1      29.446   1.526  53.812  1.00  0.00     0.002 A 
HETATM   14  C15 UNL     1      29.824   0.194  53.659  1.00  0.00     0.002 A 
HETATM   15  C16 UNL     1      28.800  -0.696  53.437  1.00  0.00     0.021 A 
HETATM   16  S1  UNL     1      25.869  -0.991  53.121  1.00  0.00    -0.067 SA
ENDBRANCH   7   8
BRANCH   4  17
HETATM   17  N1  UNL     1      19.310   0.138  52.767  1.00  0.00    -0.341 N 
HETATM   18  H2  UNL     1      18.810  -0.405  53.529  1.00  0.00     0.167 HD
BRANCH  17  19
HETATM   19  C4  UNL     1      18.471   0.654  51.748  1.00  0.00     0.130 A 
HETATM   20  C5  UNL     1      17.812  -0.200  50.871  1.00  0.00     0.070 A 
HETATM   21  C6  UNL     1      16.985   0.217  49.860  1.00  0.00     0.122 A 
HETATM   22  N2  UNL     1      16.807   1.540  49.714  1.00  0.00    -0.254 NA
HETATM   23  C7  UNL     1      17.427   2.421  50.544  1.00  0.00     0.234 A 
HETATM   24  N3  UNL     1      18.208   1.926  51.493  1.00  0.00    -0.225 NA
ENDBRANCH  17  19
ENDBRANCH   4  17
TORSDOF 3
ENDMDL
