MODEL 1
REMARK VINA RESULT:      -7.4      0.000      0.000
REMARK  6 active torsions:
REMARK  status: ('A' for Active; 'I' for Inactive)
REMARK    1  A    between atoms: C1_2  and  N1_3 
REMARK    2  A    between atoms: N1_3  and  C2_4 
REMARK    3  A    between atoms: C2_4  and  C3_5 
REMARK    4  A    between atoms: C3_5  and  C4_6 
REMARK    5  A    between atoms: C4_6  and  O2_7 
REMARK    6  A    between atoms: O2_7  and  C5_8 
ROOT
HETATM    1  C5  UNL     1      26.440   2.328  52.289  1.00  0.00     0.098 A 
HETATM    2  C6  UNL     1      25.803   2.755  51.210  1.00  0.00     0.101 A 
HETATM    3  N2  UNL     1      26.786   2.976  50.196  1.00  0.00    -0.240 NA
HETATM    4  C7  UNL     1      26.843   4.120  49.575  1.00  0.00     0.209 C 
HETATM    5  N3  UNL     1      25.935   5.213  49.861  1.00  0.00    -0.335 N 
HETATM    6  C8  UNL     1      24.639   5.709  49.463  1.00  0.00     0.130 A 
HETATM    7  C9  UNL     1      24.803   7.022  49.432  1.00  0.00     0.078 A 
HETATM    8 CL1  UNL     1      26.419   7.562  49.860  1.00  0.00    -0.080 Cl
HETATM    9  C10 UNL     1      23.848   8.090  49.096  1.00  0.00     0.028 A 
HETATM   10  C11 UNL     1      22.615   7.857  48.746  1.00  0.00     0.003 A 
HETATM   11  C12 UNL     1      21.830   6.656  48.580  1.00  0.00     0.017 A 
HETATM   12  C13 UNL     1      22.195   5.418  48.763  1.00  0.00     0.093 A 
HETATM   13  N4  UNL     1      23.450   4.935  49.169  1.00  0.00    -0.338 N 
HETATM   14  C14 UNL     1      23.743   3.539  49.357  1.00  0.00     0.158 C 
HETATM   15  C15 UNL     1      23.417   3.167  50.755  1.00  0.00     0.007 C 
HETATM   16  C16 UNL     1      24.392   2.809  51.573  1.00  0.00    -0.007 A 
HETATM   17  C17 UNL     1      24.366   2.362  52.958  1.00  0.00     0.016 A 
HETATM   18  C18 UNL     1      25.561   2.060  53.438  1.00  0.00     0.040 A 
HETATM   19  H10 UNL     1      26.464   5.747  50.583  1.00  0.00     0.168 HD
ENDROOT
BRANCH   1  20
HETATM   20  O2  UNL     1      27.833   2.137  52.374  1.00  0.00    -0.349 OA
BRANCH  20  21
HETATM   21  C4  UNL     1      28.525   2.313  53.602  1.00  0.00     0.177 C 
BRANCH  21  22
HETATM   22  C3  UNL     1      29.278   1.030  53.852  1.00  0.00     0.046 C 
BRANCH  22  23
HETATM   23  C2  UNL     1      28.595   0.111  54.800  1.00  0.00     0.124 C 
BRANCH  23  24
HETATM   24  N1  UNL     1      27.513  -0.634  54.202  1.00  0.00    -0.368 N 
HETATM   25  H2  UNL     1      26.547  -0.656  54.610  1.00  0.00     0.161 HD
BRANCH  24  26
HETATM   26  C1  UNL     1      27.738  -1.378  53.012  1.00  0.00     0.348 C 
HETATM   27  O1  UNL     1      27.915  -2.616  53.021  1.00  0.00    -0.284 OA
ENDBRANCH  24  26
ENDBRANCH  23  24
ENDBRANCH  22  23
ENDBRANCH  21  22
ENDBRANCH  20  21
ENDBRANCH   1  20
TORSDOF 6
ENDMDL
MODEL 2
REMARK VINA RESULT:      -7.3      3.944      7.122
REMARK  6 active torsions:
REMARK  status: ('A' for Active; 'I' for Inactive)
REMARK    1  A    between atoms: C1_2  and  N1_3 
REMARK    2  A    between atoms: N1_3  and  C2_4 
REMARK    3  A    between atoms: C2_4  and  C3_5 
REMARK    4  A    between atoms: C3_5  and  C4_6 
REMARK    5  A    between atoms: C4_6  and  O2_7 
REMARK    6  A    between atoms: O2_7  and  C5_8 
ROOT
HETATM    1  C5  UNL     1      24.159   3.889  49.861  1.00  0.00     0.098 A 
HETATM    2  C6  UNL     1      23.353   3.538  50.851  1.00  0.00     0.101 A 
HETATM    3  N2  UNL     1      23.961   3.976  52.069  1.00  0.00    -0.240 NA
HETATM    4  C7  UNL     1      24.139   3.139  53.052  1.00  0.00     0.209 C 
HETATM    5  N3  UNL     1      23.741   1.748  52.978  1.00  0.00    -0.335 N 
HETATM    6  C8  UNL     1      22.591   0.910  53.227  1.00  0.00     0.130 A 
HETATM    7  C9  UNL     1      23.112  -0.184  53.758  1.00  0.00     0.078 A 
HETATM    8 CL1  UNL     1      24.861  -0.152  53.921  1.00  0.00    -0.080 Cl
HETATM    9  C10 UNL     1      22.457  -1.414  54.231  1.00  0.00     0.028 A 
HETATM   10  C11 UNL     1      21.167  -1.593  54.192  1.00  0.00     0.003 A 
HETATM   11  C12 UNL     1      20.057  -0.786  53.742  1.00  0.00     0.017 A 
HETATM   12  C13 UNL     1      20.083   0.408  53.217  1.00  0.00     0.093 A 
HETATM   13  N4  UNL     1      21.202   1.216  52.956  1.00  0.00    -0.338 N 
HETATM   14  C14 UNL     1      21.118   2.520  52.355  1.00  0.00     0.158 C 
HETATM   15  C15 UNL     1      21.184   2.371  50.881  1.00  0.00     0.007 C 
HETATM   16  C16 UNL     1      22.225   2.857  50.227  1.00  0.00    -0.007 A 
HETATM   17  C17 UNL     1      22.534   2.892  48.805  1.00  0.00     0.016 A 
HETATM   18  C18 UNL     1      23.677   3.498  48.527  1.00  0.00     0.040 A 
HETATM   19  H10 UNL     1      24.611   1.294  52.630  1.00  0.00     0.168 HD
ENDROOT
BRANCH   1  20
HETATM   20  O2  UNL     1      25.380   4.572  50.026  1.00  0.00    -0.349 OA
BRANCH  20  21
HETATM   21  C4  UNL     1      26.601   4.016  49.560  1.00  0.00     0.177 C 
BRANCH  21  22
HETATM   22  C3  UNL     1      27.246   5.074  48.698  1.00  0.00     0.046 C 
BRANCH  22  23
HETATM   23  C2  UNL     1      26.534   6.378  48.718  1.00  0.00     0.124 C 
BRANCH  23  24
HETATM   24  N1  UNL     1      26.814   7.170  49.892  1.00  0.00    -0.368 N 
HETATM   25  H2  UNL     1      27.156   6.751  50.790  1.00  0.00     0.161 HD
BRANCH  24  26
HETATM   26  C1  UNL     1      26.628   8.579  49.857  1.00  0.00     0.348 C 
HETATM   27  O1  UNL     1      27.272   9.356  50.596  1.00  0.00    -0.284 OA
ENDBRANCH  24  26
ENDBRANCH  23  24
ENDBRANCH  22  23
ENDBRANCH  21  22
ENDBRANCH  20  21
ENDBRANCH   1  20
TORSDOF 6
ENDMDL
MODEL 3
REMARK VINA RESULT:      -7.1      2.923      3.869
REMARK  6 active torsions:
REMARK  status: ('A' for Active; 'I' for Inactive)
REMARK    1  A    between atoms: C1_2  and  N1_3 
REMARK    2  A    between atoms: N1_3  and  C2_4 
REMARK    3  A    between atoms: C2_4  and  C3_5 
REMARK    4  A    between atoms: C3_5  and  C4_6 
REMARK    5  A    between atoms: C4_6  and  O2_7 
REMARK    6  A    between atoms: O2_7  and  C5_8 
ROOT
HETATM    1  C5  UNL     1      23.493   0.239  53.294  1.00  0.00     0.098 A 
HETATM    2  C6  UNL     1      23.120   0.699  52.109  1.00  0.00     0.101 A 
HETATM    3  N2  UNL     1      24.219   1.444  51.578  1.00  0.00    -0.240 NA
HETATM    4  C7  UNL     1      24.044   2.665  51.160  1.00  0.00     0.209 C 
HETATM    5  N3  UNL     1      22.758   3.330  51.201  1.00  0.00    -0.335 N 
HETATM    6  C8  UNL     1      21.568   3.492  50.399  1.00  0.00     0.130 A 
HETATM    7  C9  UNL     1      21.238   4.760  50.582  1.00  0.00     0.078 A 
HETATM    8 CL1  UNL     1      22.315   5.645  51.652  1.00  0.00    -0.080 Cl
HETATM    9  C10 UNL     1      20.116   5.538  50.032  1.00  0.00     0.028 A 
HETATM   10  C11 UNL     1      19.235   5.034  49.215  1.00  0.00     0.003 A 
HETATM   11  C12 UNL     1      19.044   3.729  48.628  1.00  0.00     0.017 A 
HETATM   12  C13 UNL     1      19.762   2.653  48.793  1.00  0.00     0.093 A 
HETATM   13  N4  UNL     1      20.908   2.489  49.589  1.00  0.00    -0.338 N 
HETATM   14  C14 UNL     1      21.618   1.244  49.713  1.00  0.00     0.158 C 
HETATM   15  C15 UNL     1      21.028   0.468  50.830  1.00  0.00     0.007 C 
HETATM   16  C16 UNL     1      21.752   0.236  51.911  1.00  0.00    -0.007 A 
HETATM   17  C17 UNL     1      21.455  -0.516  53.122  1.00  0.00     0.016 A 
HETATM   18  C18 UNL     1      22.459  -0.549  53.983  1.00  0.00     0.040 A 
HETATM   19  H10 UNL     1      22.794   3.810  52.126  1.00  0.00     0.168 HD
ENDROOT
BRANCH   1  20
HETATM   20  O2  UNL     1      24.754   0.463  53.880  1.00  0.00    -0.349 OA
BRANCH  20  21
HETATM   21  C4  UNL     1      25.567  -0.619  54.309  1.00  0.00     0.177 C 
BRANCH  21  22
HETATM   22  C3  UNL     1      26.295  -1.114  53.082  1.00  0.00     0.046 C 
BRANCH  22  23
HETATM   23  C2  UNL     1      27.509  -0.324  52.748  1.00  0.00     0.124 C 
BRANCH  23  24
HETATM   24  N1  UNL     1      27.224   1.042  52.380  1.00  0.00    -0.368 N 
HETATM   25  H2  UNL     1      26.530   1.296  51.636  1.00  0.00     0.161 HD
BRANCH  24  26
HETATM   26  C1  UNL     1      27.899   2.108  53.035  1.00  0.00     0.348 C 
HETATM   27  O1  UNL     1      27.630   2.449  54.207  1.00  0.00    -0.284 OA
ENDBRANCH  24  26
ENDBRANCH  23  24
ENDBRANCH  22  23
ENDBRANCH  21  22
ENDBRANCH  20  21
ENDBRANCH   1  20
TORSDOF 6
ENDMDL
MODEL 4
REMARK VINA RESULT:      -7.0      1.937      2.743
REMARK  6 active torsions:
REMARK  status: ('A' for Active; 'I' for Inactive)
REMARK    1  A    between atoms: C1_2  and  N1_3 
REMARK    2  A    between atoms: N1_3  and  C2_4 
REMARK    3  A    between atoms: C2_4  and  C3_5 
REMARK    4  A    between atoms: C3_5  and  C4_6 
REMARK    5  A    between atoms: C4_6  and  O2_7 
REMARK    6  A    between atoms: O2_7  and  C5_8 
ROOT
HETATM    1  C5  UNL     1      23.722   0.881  52.599  1.00  0.00     0.098 A 
HETATM    2  C6  UNL     1      23.796   1.511  51.436  1.00  0.00     0.101 A 
HETATM    3  N2  UNL     1      25.130   2.009  51.308  1.00  0.00    -0.240 NA
HETATM    4  C7  UNL     1      25.338   3.267  51.036  1.00  0.00     0.209 C 
HETATM    5  N3  UNL     1      24.260   4.216  50.849  1.00  0.00    -0.335 N 
HETATM    6  C8  UNL     1      23.400   4.724  49.806  1.00  0.00     0.130 A 
HETATM    7  C9  UNL     1      23.307   6.015  50.079  1.00  0.00     0.078 A 
HETATM    8 CL1  UNL     1      24.208   6.525  51.498  1.00  0.00    -0.080 Cl
HETATM    9  C10 UNL     1      22.570   7.082  49.381  1.00  0.00     0.028 A 
HETATM   10  C11 UNL     1      21.864   6.872  48.307  1.00  0.00     0.003 A 
HETATM   11  C12 UNL     1      21.572   5.703  47.512  1.00  0.00     0.017 A 
HETATM   12  C13 UNL     1      21.973   4.476  47.697  1.00  0.00     0.093 A 
HETATM   13  N4  UNL     1      22.793   3.978  48.723  1.00  0.00    -0.338 N 
HETATM   14  C14 UNL     1      23.163   2.593  48.843  1.00  0.00     0.158 C 
HETATM   15  C15 UNL     1      22.138   1.894  49.655  1.00  0.00     0.007 C 
HETATM   16  C16 UNL     1      22.470   1.408  50.839  1.00  0.00    -0.007 A 
HETATM   17  C17 UNL     1      21.699   0.655  51.818  1.00  0.00     0.016 A 
HETATM   18  C18 UNL     1      22.396   0.313  52.889  1.00  0.00     0.040 A 
HETATM   19  H10 UNL     1      24.141   4.597  51.811  1.00  0.00     0.168 HD
ENDROOT
BRANCH   1  20
HETATM   20  O2  UNL     1      24.790   0.748  53.507  1.00  0.00    -0.349 OA
BRANCH  20  21
HETATM   21  C4  UNL     1      25.234  -0.532  53.935  1.00  0.00     0.177 C 
BRANCH  21  22
HETATM   22  C3  UNL     1      26.153  -1.044  52.853  1.00  0.00     0.046 C 
BRANCH  22  23
HETATM   23  C2  UNL     1      27.526  -0.478  52.917  1.00  0.00     0.124 C 
BRANCH  23  24
HETATM   24  N1  UNL     1      27.555   0.965  52.893  1.00  0.00    -0.368 N 
HETATM   25  H2  UNL     1      26.814   1.539  52.423  1.00  0.00     0.161 HD
BRANCH  24  26
HETATM   26  C1  UNL     1      28.621   1.663  53.523  1.00  0.00     0.348 C 
HETATM   27  O1  UNL     1      28.436   2.707  54.186  1.00  0.00    -0.284 OA
ENDBRANCH  24  26
ENDBRANCH  23  24
ENDBRANCH  22  23
ENDBRANCH  21  22
ENDBRANCH  20  21
ENDBRANCH   1  20
TORSDOF 6
ENDMDL
MODEL 5
REMARK VINA RESULT:      -6.8      2.521      3.056
REMARK  6 active torsions:
REMARK  status: ('A' for Active; 'I' for Inactive)
REMARK    1  A    between atoms: C1_2  and  N1_3 
REMARK    2  A    between atoms: N1_3  and  C2_4 
REMARK    3  A    between atoms: C2_4  and  C3_5 
REMARK    4  A    between atoms: C3_5  and  C4_6 
REMARK    5  A    between atoms: C4_6  and  O2_7 
REMARK    6  A    between atoms: O2_7  and  C5_8 
ROOT
HETATM    1  C5  UNL     1      24.557  -0.057  53.444  1.00  0.00     0.098 A 
HETATM    2  C6  UNL     1      24.004   0.491  52.372  1.00  0.00     0.101 A 
HETATM    3  N2  UNL     1      25.058   1.080  51.606  1.00  0.00    -0.240 NA
HETATM    4  C7  UNL     1      24.982   2.326  51.234  1.00  0.00     0.209 C 
HETATM    5  N3  UNL     1      23.854   3.174  51.563  1.00  0.00    -0.335 N 
HETATM    6  C8  UNL     1      22.554   3.537  51.048  1.00  0.00     0.130 A 
HETATM    7  C9  UNL     1      22.470   4.834  51.298  1.00  0.00     0.078 A 
HETATM    8 CL1  UNL     1      23.881   5.513  52.095  1.00  0.00    -0.080 Cl
HETATM    9  C10 UNL     1      21.386   5.787  51.012  1.00  0.00     0.028 A 
HETATM   10  C11 UNL     1      20.279   5.446  50.415  1.00  0.00     0.003 A 
HETATM   11  C12 UNL     1      19.765   4.204  49.890  1.00  0.00     0.017 A 
HETATM   12  C13 UNL     1      20.329   3.028  49.892  1.00  0.00     0.093 A 
HETATM   13  N4  UNL     1      21.585   2.670  50.410  1.00  0.00    -0.338 N 
HETATM   14  C14 UNL     1      22.107   1.330  50.375  1.00  0.00     0.158 C 
HETATM   15  C15 UNL     1      21.669   0.615  51.598  1.00  0.00     0.007 C 
HETATM   16  C16 UNL     1      22.572   0.243  52.489  1.00  0.00    -0.007 A 
HETATM   17  C17 UNL     1      22.442  -0.494  53.738  1.00  0.00     0.016 A 
HETATM   18  C18 UNL     1      23.595  -0.703  54.351  1.00  0.00     0.040 A 
HETATM   19  H10 UNL     1      24.168   3.613  52.453  1.00  0.00     0.168 HD
ENDROOT
BRANCH   1  20
HETATM   20  O2  UNL     1      25.936  -0.042  53.731  1.00  0.00    -0.349 OA
BRANCH  20  21
HETATM   21  C4  UNL     1      26.488   0.906  54.633  1.00  0.00     0.177 C 
BRANCH  21  22
HETATM   22  C3  UNL     1      27.689   1.500  53.940  1.00  0.00     0.046 C 
BRANCH  22  23
HETATM   23  C2  UNL     1      28.972   0.836  54.292  1.00  0.00     0.124 C 
BRANCH  23  24
HETATM   24  N1  UNL     1      28.852  -0.592  54.466  1.00  0.00    -0.368 N 
HETATM   25  H2  UNL     1      28.427  -1.025  55.321  1.00  0.00     0.161 HD
BRANCH  24  26
HETATM   26  C1  UNL     1      29.323  -1.471  53.453  1.00  0.00     0.348 C 
HETATM   27  O1  UNL     1      28.954  -2.664  53.380  1.00  0.00    -0.284 OA
ENDBRANCH  24  26
ENDBRANCH  23  24
ENDBRANCH  22  23
ENDBRANCH  21  22
ENDBRANCH  20  21
ENDBRANCH   1  20
TORSDOF 6
ENDMDL
MODEL 6
REMARK VINA RESULT:      -6.7      5.000      6.034
REMARK  6 active torsions:
REMARK  status: ('A' for Active; 'I' for Inactive)
REMARK    1  A    between atoms: C1_2  and  N1_3 
REMARK    2  A    between atoms: N1_3  and  C2_4 
REMARK    3  A    between atoms: C2_4  and  C3_5 
REMARK    4  A    between atoms: C3_5  and  C4_6 
REMARK    5  A    between atoms: C4_6  and  O2_7 
REMARK    6  A    between atoms: O2_7  and  C5_8 
ROOT
HETATM    1  C5  UNL     1      22.561  -0.185  53.124  1.00  0.00     0.098 A 
HETATM    2  C6  UNL     1      21.433  -0.122  52.434  1.00  0.00     0.101 A 
HETATM    3  N2  UNL     1      21.767   0.299  51.109  1.00  0.00    -0.240 NA
HETATM    4  C7  UNL     1      21.158   1.316  50.570  1.00  0.00     0.209 C 
HETATM    5  N3  UNL     1      20.127   2.067  51.258  1.00  0.00    -0.335 N 
HETATM    6  C8  UNL     1      18.698   2.051  51.467  1.00  0.00     0.130 A 
HETATM    7  C9  UNL     1      18.362   3.330  51.423  1.00  0.00     0.078 A 
HETATM    8 CL1  UNL     1      19.708   4.426  51.148  1.00  0.00    -0.080 Cl
HETATM    9  C10 UNL     1      17.045   3.971  51.566  1.00  0.00     0.028 A 
HETATM   10  C11 UNL     1      15.946   3.299  51.762  1.00  0.00     0.003 A 
HETATM   11  C12 UNL     1      15.640   1.895  51.895  1.00  0.00     0.017 A 
HETATM   12  C13 UNL     1      16.457   0.880  51.855  1.00  0.00     0.093 A 
HETATM   13  N4  UNL     1      17.850   0.895  51.672  1.00  0.00    -0.338 N 
HETATM   14  C14 UNL     1      18.664  -0.291  51.660  1.00  0.00     0.158 C 
HETATM   15  C15 UNL     1      19.093  -0.588  53.048  1.00  0.00     0.007 C 
HETATM   16  C16 UNL     1      20.375  -0.503  53.362  1.00  0.00    -0.007 A 
HETATM   17  C17 UNL     1      21.077  -0.771  54.608  1.00  0.00     0.016 A 
HETATM   18  C18 UNL     1      22.386  -0.598  54.525  1.00  0.00     0.040 A 
HETATM   19  H10 UNL     1      20.680   2.826  51.709  1.00  0.00     0.168 HD
ENDROOT
BRANCH   1  20
HETATM   20  O2  UNL     1      23.836   0.113  52.603  1.00  0.00    -0.349 OA
BRANCH  20  21
HETATM   21  C4  UNL     1      24.984   0.130  53.438  1.00  0.00     0.177 C 
BRANCH  21  22
HETATM   22  C3  UNL     1      26.173  -0.061  52.528  1.00  0.00     0.046 C 
BRANCH  22  23
HETATM   23  C2  UNL     1      27.103  -1.131  52.976  1.00  0.00     0.124 C 
BRANCH  23  24
HETATM   24  N1  UNL     1      28.367  -0.630  53.459  1.00  0.00    -0.368 N 
HETATM   25  H2  UNL     1      29.262  -0.739  52.923  1.00  0.00     0.161 HD
BRANCH  24  26
HETATM   26  C1  UNL     1      28.432   0.042  54.710  1.00  0.00     0.348 C 
HETATM   27  O1  UNL     1      28.542   1.285  54.796  1.00  0.00    -0.284 OA
ENDBRANCH  24  26
ENDBRANCH  23  24
ENDBRANCH  22  23
ENDBRANCH  21  22
ENDBRANCH  20  21
ENDBRANCH   1  20
TORSDOF 6
ENDMDL
MODEL 7
REMARK VINA RESULT:      -6.6      4.336      6.586
REMARK  6 active torsions:
REMARK  status: ('A' for Active; 'I' for Inactive)
REMARK    1  A    between atoms: C1_2  and  N1_3 
REMARK    2  A    between atoms: N1_3  and  C2_4 
REMARK    3  A    between atoms: C2_4  and  C3_5 
REMARK    4  A    between atoms: C3_5  and  C4_6 
REMARK    5  A    between atoms: C4_6  and  O2_7 
REMARK    6  A    between atoms: O2_7  and  C5_8 
ROOT
HETATM    1  C5  UNL     1      23.555   7.362  49.419  1.00  0.00     0.098 A 
HETATM    2  C6  UNL     1      23.605   6.233  50.109  1.00  0.00     0.101 A 
HETATM    3  N2  UNL     1      24.759   5.515  49.664  1.00  0.00    -0.240 NA
HETATM    4  C7  UNL     1      24.652   4.276  49.273  1.00  0.00     0.209 C 
HETATM    5  N3  UNL     1      23.390   3.564  49.267  1.00  0.00    -0.335 N 
HETATM    6  C8  UNL     1      22.567   2.761  50.140  1.00  0.00     0.130 A 
HETATM    7  C9  UNL     1      22.092   1.818  49.342  1.00  0.00     0.078 A 
HETATM    8 CL1  UNL     1      22.629   1.940  47.674  1.00  0.00    -0.080 Cl
HETATM    9  C10 UNL     1      21.191   0.692  49.635  1.00  0.00     0.028 A 
HETATM   10  C11 UNL     1      20.714   0.454  50.824  1.00  0.00     0.003 A 
HETATM   11  C12 UNL     1      20.856   1.098  52.108  1.00  0.00     0.017 A 
HETATM   12  C13 UNL     1      21.547   2.162  52.409  1.00  0.00     0.093 A 
HETATM   13  N4  UNL     1      22.332   2.956  51.556  1.00  0.00    -0.338 N 
HETATM   14  C14 UNL     1      23.045   4.127  51.992  1.00  0.00     0.158 C 
HETATM   15  C15 UNL     1      22.152   5.303  51.867  1.00  0.00     0.007 C 
HETATM   16  C16 UNL     1      22.447   6.251  50.994  1.00  0.00    -0.007 A 
HETATM   17  C17 UNL     1      21.789   7.513  50.688  1.00  0.00     0.016 A 
HETATM   18  C18 UNL     1      22.407   8.219  49.756  1.00  0.00     0.040 A 
HETATM   19  H10 UNL     1      23.047   3.743  48.299  1.00  0.00     0.168 HD
ENDROOT
BRANCH   1  20
HETATM   20  O2  UNL     1      24.491   7.745  48.440  1.00  0.00    -0.349 OA
BRANCH  20  21
HETATM   21  C4  UNL     1      25.118   9.019  48.482  1.00  0.00     0.177 C 
BRANCH  21  22
HETATM   22  C3  UNL     1      26.145   8.950  49.585  1.00  0.00     0.046 C 
BRANCH  22  23
HETATM   23  C2  UNL     1      27.417   8.297  49.178  1.00  0.00     0.124 C 
BRANCH  23  24
HETATM   24  N1  UNL     1      27.390   6.859  49.296  1.00  0.00    -0.368 N 
HETATM   25  H2  UNL     1      26.890   6.363  50.073  1.00  0.00     0.161 HD
BRANCH  24  26
HETATM   26  C1  UNL     1      28.060   6.056  48.333  1.00  0.00     0.348 C 
HETATM   27  O1  UNL     1      28.271   4.836  48.510  1.00  0.00    -0.284 OA
ENDBRANCH  24  26
ENDBRANCH  23  24
ENDBRANCH  22  23
ENDBRANCH  21  22
ENDBRANCH  20  21
ENDBRANCH   1  20
TORSDOF 6
ENDMDL
MODEL 8
REMARK VINA RESULT:      -6.6      3.007      4.251
REMARK  6 active torsions:
REMARK  status: ('A' for Active; 'I' for Inactive)
REMARK    1  A    between atoms: C1_2  and  N1_3 
REMARK    2  A    between atoms: N1_3  and  C2_4 
REMARK    3  A    between atoms: C2_4  and  C3_5 
REMARK    4  A    between atoms: C3_5  and  C4_6 
REMARK    5  A    between atoms: C4_6  and  O2_7 
REMARK    6  A    between atoms: O2_7  and  C5_8 
ROOT
HETATM    1  C5  UNL     1      25.935   2.850  51.178  1.00  0.00     0.098 A 
HETATM    2  C6  UNL     1      24.725   3.372  51.309  1.00  0.00     0.101 A 
HETATM    3  N2  UNL     1      24.198   2.914  52.557  1.00  0.00    -0.240 NA
HETATM    4  C7  UNL     1      23.028   2.342  52.605  1.00  0.00     0.209 C 
HETATM    5  N3  UNL     1      22.206   2.140  51.429  1.00  0.00    -0.335 N 
HETATM    6  C8  UNL     1      21.204   2.826  50.647  1.00  0.00     0.130 A 
HETATM    7  C9  UNL     1      20.351   1.868  50.323  1.00  0.00     0.078 A 
HETATM    8 CL1  UNL     1      20.774   0.278  50.941  1.00  0.00    -0.080 Cl
HETATM    9  C10 UNL     1      19.112   1.929  49.532  1.00  0.00     0.028 A 
HETATM   10  C11 UNL     1      18.652   3.032  49.014  1.00  0.00     0.003 A 
HETATM   11  C12 UNL     1      19.106   4.403  49.012  1.00  0.00     0.017 A 
HETATM   12  C13 UNL     1      20.175   4.904  49.567  1.00  0.00     0.093 A 
HETATM   13  N4  UNL     1      21.161   4.234  50.310  1.00  0.00    -0.338 N 
HETATM   14  C14 UNL     1      22.316   4.886  50.868  1.00  0.00     0.158 C 
HETATM   15  C15 UNL     1      23.405   4.866  49.863  1.00  0.00     0.007 C 
HETATM   16  C16 UNL     1      24.498   4.162  50.105  1.00  0.00    -0.007 A 
HETATM   17  C17 UNL     1      25.722   3.994  49.335  1.00  0.00     0.016 A 
HETATM   18  C18 UNL     1      26.617   3.221  49.928  1.00  0.00     0.040 A 
HETATM   19  H10 UNL     1      22.495   1.186  51.127  1.00  0.00     0.168 HD
ENDROOT
BRANCH   1  20
HETATM   20  O2  UNL     1      26.551   2.007  52.125  1.00  0.00    -0.349 OA
BRANCH  20  21
HETATM   21  C4  UNL     1      26.716   0.619  51.874  1.00  0.00     0.177 C 
BRANCH  21  22
HETATM   22  C3  UNL     1      25.957  -0.101  52.961  1.00  0.00     0.046 C 
BRANCH  22  23
HETATM   23  C2  UNL     1      26.291   0.364  54.332  1.00  0.00     0.124 C 
BRANCH  23  24
HETATM   24  N1  UNL     1      27.416  -0.325  54.917  1.00  0.00    -0.368 N 
HETATM   25  H2  UNL     1      27.326  -1.258  55.388  1.00  0.00     0.161 HD
BRANCH  24  26
HETATM   26  C1  UNL     1      28.710   0.261  54.868  1.00  0.00     0.348 C 
HETATM   27  O1  UNL     1      28.880   1.495  54.757  1.00  0.00    -0.284 OA
ENDBRANCH  24  26
ENDBRANCH  23  24
ENDBRANCH  22  23
ENDBRANCH  21  22
ENDBRANCH  20  21
ENDBRANCH   1  20
TORSDOF 6
ENDMDL
MODEL 9
REMARK VINA RESULT:      -6.5      3.277      7.255
REMARK  6 active torsions:
REMARK  status: ('A' for Active; 'I' for Inactive)
REMARK    1  A    between atoms: C1_2  and  N1_3 
REMARK    2  A    between atoms: N1_3  and  C2_4 
REMARK    3  A    between atoms: C2_4  and  C3_5 
REMARK    4  A    between atoms: C3_5  and  C4_6 
REMARK    5  A    between atoms: C4_6  and  O2_7 
REMARK    6  A    between atoms: O2_7  and  C5_8 
ROOT
HETATM    1  C5  UNL     1      22.689   3.371  48.579  1.00  0.00     0.098 A 
HETATM    2  C6  UNL     1      22.497   3.042  49.848  1.00  0.00     0.101 A 
HETATM    3  N2  UNL     1      22.965   4.134  50.644  1.00  0.00    -0.240 NA
HETATM    4  C7  UNL     1      23.819   3.926  51.606  1.00  0.00     0.209 C 
HETATM    5  N3  UNL     1      24.336   2.611  51.923  1.00  0.00    -0.335 N 
HETATM    6  C8  UNL     1      24.013   1.460  52.734  1.00  0.00     0.130 A 
HETATM    7  C9  UNL     1      25.188   1.063  53.195  1.00  0.00     0.078 A 
HETATM    8 CL1  UNL     1      26.547   2.040  52.660  1.00  0.00    -0.080 Cl
HETATM    9  C10 UNL     1      25.530  -0.061  54.082  1.00  0.00     0.028 A 
HETATM   10  C11 UNL     1      24.638  -0.873  54.575  1.00  0.00     0.003 A 
HETATM   11  C12 UNL     1      23.203  -0.972  54.463  1.00  0.00     0.017 A 
HETATM   12  C13 UNL     1      22.388  -0.217  53.779  1.00  0.00     0.093 A 
HETATM   13  N4  UNL     1      22.703   0.891  52.974  1.00  0.00    -0.338 N 
HETATM   14  C14 UNL     1      21.722   1.649  52.246  1.00  0.00     0.158 C 
HETATM   15  C15 UNL     1      21.542   1.034  50.908  1.00  0.00     0.007 C 
HETATM   16  C16 UNL     1      21.907   1.709  49.831  1.00  0.00    -0.007 A 
HETATM   17  C17 UNL     1      21.813   1.381  48.416  1.00  0.00     0.016 A 
HETATM   18  C18 UNL     1      22.264   2.338  47.621  1.00  0.00     0.040 A 
HETATM   19  H10 UNL     1      25.203   2.576  51.346  1.00  0.00     0.168 HD
ENDROOT
BRANCH   1  20
HETATM   20  O2  UNL     1      23.250   4.587  48.143  1.00  0.00    -0.349 OA
BRANCH  20  21
HETATM   21  C4  UNL     1      22.435   5.626  47.621  1.00  0.00     0.177 C 
BRANCH  21  22
HETATM   22  C3  UNL     1      23.374   6.724  47.187  1.00  0.00     0.046 C 
BRANCH  22  23
HETATM   23  C2  UNL     1      23.820   7.604  48.300  1.00  0.00     0.124 C 
BRANCH  23  24
HETATM   24  N1  UNL     1      24.144   6.885  49.509  1.00  0.00    -0.368 N 
HETATM   25  H2  UNL     1      23.412   6.466  50.132  1.00  0.00     0.161 HD
BRANCH  24  26
HETATM   26  C1  UNL     1      25.502   6.724  49.895  1.00  0.00     0.348 C 
HETATM   27  O1  UNL     1      26.143   5.675  49.663  1.00  0.00    -0.284 OA
ENDBRANCH  24  26
ENDBRANCH  23  24
ENDBRANCH  22  23
ENDBRANCH  21  22
ENDBRANCH  20  21
ENDBRANCH   1  20
TORSDOF 6
ENDMDL
