MODEL 1
REMARK VINA RESULT:      -9.0      0.000      0.000
REMARK  2 active torsions:
REMARK  status: ('A' for Active; 'I' for Inactive)
REMARK    1  A    between atoms: C3_3  and  C4_4 
REMARK    2  A    between atoms: C5_5  and  C6_6 
ROOT
HETATM    1  C6  UNL     1      25.240   0.046  53.247  1.00  0.00    -0.028 A 
HETATM    2  C7  UNL     1      23.990  -0.315  52.711  1.00  0.00     0.012 A 
HETATM    3  C8  UNL     1      23.038   0.668  52.381  1.00  0.00     0.011 A 
HETATM    4  C9  UNL     1      23.288   2.042  52.577  1.00  0.00    -0.012 A 
HETATM    5  C10 UNL     1      24.474   2.435  53.100  1.00  0.00     0.048 A 
HETATM    6  C11 UNL     1      25.326   1.398  53.370  1.00  0.00    -0.021 A 
HETATM    7  C12 UNL     1      26.672   2.109  53.428  1.00  0.00     0.042 C 
HETATM    8  C13 UNL     1      27.168   2.083  51.958  1.00  0.00     0.008 C 
HETATM    9  C14 UNL     1      26.162   2.255  50.922  1.00  0.00     0.027 C 
HETATM   10  C15 UNL     1      25.519   3.411  50.360  1.00  0.00    -0.027 C 
HETATM   11  C16 UNL     1      24.561   4.307  50.038  1.00  0.00    -0.008 C 
HETATM   12  C17 UNL     1      23.150   4.512  50.293  1.00  0.00     0.001 C 
HETATM   13  C18 UNL     1      21.849   4.752  50.489  1.00  0.00     0.005 C 
HETATM   14  C19 UNL     1      21.313   3.711  51.521  1.00  0.00     0.018 C 
HETATM   15  C20 UNL     1      22.154   2.829  52.116  1.00  0.00     0.081 A 
HETATM   16  C21 UNL     1      23.100   4.000  52.605  1.00  0.00     0.171 A 
HETATM   17  O1  UNL     1      23.044   5.343  52.686  1.00  0.00    -0.176 OA
HETATM   18  N1  UNL     1      24.447   3.845  53.182  1.00  0.00    -0.336 N 
HETATM   19  H21 UNL     1      25.193   4.445  53.555  1.00  0.00     0.168 HD
ENDROOT
BRANCH   1  20
HETATM   20  C5  UNL     1      26.321  -0.803  53.629  1.00  0.00     0.012 C 
HETATM   21  C4  UNL     1      27.089  -1.381  52.723  1.00  0.00     0.001 C 
BRANCH  21  22
HETATM   22  C3  UNL     1      28.198  -2.254  53.083  1.00  0.00    -0.004 C 
HETATM   23  C2  UNL     1      29.413  -1.856  53.409  1.00  0.00    -0.031 C 
HETATM   24  C1  UNL     1      29.837  -0.453  53.459  1.00  0.00     0.036 C 
ENDBRANCH  21  22
ENDBRANCH   1  20
TORSDOF 2
ENDMDL
MODEL 2
REMARK VINA RESULT:      -8.8      2.308      3.076
REMARK  2 active torsions:
REMARK  status: ('A' for Active; 'I' for Inactive)
REMARK    1  A    between atoms: C3_3  and  C4_4 
REMARK    2  A    between atoms: C5_5  and  C6_6 
ROOT
HETATM    1  C6  UNL     1      24.672   0.763  53.357  1.00  0.00    -0.028 A 
HETATM    2  C7  UNL     1      24.030  -0.490  53.361  1.00  0.00     0.012 A 
HETATM    3  C8  UNL     1      22.647  -0.590  53.123  1.00  0.00     0.011 A 
HETATM    4  C9  UNL     1      21.848   0.547  52.881  1.00  0.00    -0.012 A 
HETATM    5  C10 UNL     1      22.421   1.774  52.878  1.00  0.00     0.048 A 
HETATM    6  C11 UNL     1      23.771   1.751  53.106  1.00  0.00    -0.021 A 
HETATM    7  C12 UNL     1      24.203   3.101  52.548  1.00  0.00     0.042 C 
HETATM    8  C13 UNL     1      24.490   2.807  51.052  1.00  0.00     0.008 C 
HETATM    9  C14 UNL     1      23.612   1.858  50.389  1.00  0.00     0.027 C 
HETATM   10  C15 UNL     1      22.309   1.974  49.796  1.00  0.00    -0.027 C 
HETATM   11  C16 UNL     1      20.983   1.817  49.589  1.00  0.00    -0.008 C 
HETATM   12  C17 UNL     1      19.866   1.150  50.227  1.00  0.00     0.001 C 
HETATM   13  C18 UNL     1      18.798   0.553  50.767  1.00  0.00     0.005 C 
HETATM   14  C19 UNL     1      19.223  -0.054  52.141  1.00  0.00     0.018 C 
HETATM   15  C20 UNL     1      20.471   0.148  52.631  1.00  0.00     0.081 A 
HETATM   16  C21 UNL     1      20.318   1.717  52.481  1.00  0.00     0.171 A 
HETATM   17  O1  UNL     1      19.323   2.591  52.241  1.00  0.00    -0.176 OA
HETATM   18  N1  UNL     1      21.398   2.711  52.612  1.00  0.00    -0.336 N 
HETATM   19  H21 UNL     1      21.509   3.731  52.563  1.00  0.00     0.168 HD
ENDROOT
BRANCH   1  20
HETATM   20  C5  UNL     1      26.052   1.054  53.567  1.00  0.00     0.012 C 
HETATM   21  C4  UNL     1      26.818   0.254  54.285  1.00  0.00     0.001 C 
BRANCH  21  22
HETATM   22  C3  UNL     1      28.230   0.527  54.518  1.00  0.00    -0.004 C 
HETATM   23  C2  UNL     1      29.235  -0.213  54.091  1.00  0.00    -0.031 C 
HETATM   24  C1  UNL     1      29.081  -1.443  53.306  1.00  0.00     0.036 C 
ENDBRANCH  21  22
ENDBRANCH   1  20
TORSDOF 2
ENDMDL
MODEL 3
REMARK VINA RESULT:      -8.5      2.790      4.899
REMARK  2 active torsions:
REMARK  status: ('A' for Active; 'I' for Inactive)
REMARK    1  A    between atoms: C3_3  and  C4_4 
REMARK    2  A    between atoms: C5_5  and  C6_6 
ROOT
HETATM    1  C6  UNL     1      23.202   2.818  49.949  1.00  0.00    -0.028 A 
HETATM    2  C7  UNL     1      22.731   3.347  48.732  1.00  0.00     0.012 A 
HETATM    3  C8  UNL     1      23.142   4.620  48.295  1.00  0.00     0.011 A 
HETATM    4  C9  UNL     1      24.027   5.418  49.049  1.00  0.00    -0.012 A 
HETATM    5  C10 UNL     1      24.498   4.953  50.231  1.00  0.00     0.048 A 
HETATM    6  C11 UNL     1      24.045   3.702  50.550  1.00  0.00    -0.021 A 
HETATM    7  C12 UNL     1      25.079   3.248  51.573  1.00  0.00     0.042 C 
HETATM    8  C13 UNL     1      26.185   2.585  50.710  1.00  0.00     0.008 C 
HETATM    9  C14 UNL     1      26.476   3.202  49.427  1.00  0.00     0.027 C 
HETATM   10  C15 UNL     1      27.280   4.328  49.039  1.00  0.00    -0.027 C 
HETATM   11  C16 UNL     1      27.627   5.549  48.574  1.00  0.00    -0.008 C 
HETATM   12  C17 UNL     1      26.966   6.734  48.067  1.00  0.00     0.001 C 
HETATM   13  C18 UNL     1      26.414   7.854  47.588  1.00  0.00     0.005 C 
HETATM   14  C19 UNL     1      24.865   7.732  47.730  1.00  0.00     0.018 C 
HETATM   15  C20 UNL     1      24.308   6.659  48.344  1.00  0.00     0.081 A 
HETATM   16  C21 UNL     1      25.197   6.887  49.634  1.00  0.00     0.171 A 
HETATM   17  O1  UNL     1      25.994   7.855  50.123  1.00  0.00    -0.176 OA
HETATM   18  N1  UNL     1      25.351   5.947  50.760  1.00  0.00    -0.336 N 
HETATM   19  H21 UNL     1      25.850   5.904  51.656  1.00  0.00     0.168 HD
ENDROOT
BRANCH   1  20
HETATM   20  C5  UNL     1      22.906   1.556  50.543  1.00  0.00     0.012 C 
HETATM   21  C4  UNL     1      22.229   1.474  51.674  1.00  0.00     0.001 C 
BRANCH  21  22
HETATM   22  C3  UNL     1      21.914   0.200  52.304  1.00  0.00    -0.004 C 
HETATM   23  C2  UNL     1      22.716  -0.482  53.099  1.00  0.00    -0.031 C 
HETATM   24  C1  UNL     1      24.068  -0.054  53.474  1.00  0.00     0.036 C 
ENDBRANCH  21  22
ENDBRANCH   1  20
TORSDOF 2
ENDMDL
MODEL 4
REMARK VINA RESULT:      -8.5      2.654      4.639
REMARK  2 active torsions:
REMARK  status: ('A' for Active; 'I' for Inactive)
REMARK    1  A    between atoms: C3_3  and  C4_4 
REMARK    2  A    between atoms: C5_5  and  C6_6 
ROOT
HETATM    1  C6  UNL     1      24.519   1.318  51.642  1.00  0.00    -0.028 A 
HETATM    2  C7  UNL     1      25.897   1.601  51.595  1.00  0.00     0.012 A 
HETATM    3  C8  UNL     1      26.383   2.683  50.838  1.00  0.00     0.011 A 
HETATM    4  C9  UNL     1      25.523   3.519  50.096  1.00  0.00    -0.012 A 
HETATM    5  C10 UNL     1      24.190   3.278  50.105  1.00  0.00     0.048 A 
HETATM    6  C11 UNL     1      23.829   2.212  50.883  1.00  0.00    -0.021 A 
HETATM    7  C12 UNL     1      22.351   2.488  51.122  1.00  0.00     0.042 C 
HETATM    8  C13 UNL     1      22.342   3.371  52.398  1.00  0.00     0.008 C 
HETATM    9  C14 UNL     1      23.418   4.339  52.534  1.00  0.00     0.027 C 
HETATM   10  C15 UNL     1      23.629   5.655  51.998  1.00  0.00    -0.027 C 
HETATM   11  C16 UNL     1      24.155   6.671  51.279  1.00  0.00    -0.008 C 
HETATM   12  C17 UNL     1      25.210   6.865  50.304  1.00  0.00     0.001 C 
HETATM   13  C18 UNL     1      26.171   7.108  49.407  1.00  0.00     0.005 C 
HETATM   14  C19 UNL     1      26.794   5.742  48.981  1.00  0.00     0.018 C 
HETATM   15  C20 UNL     1      26.287   4.573  49.446  1.00  0.00     0.081 A 
HETATM   16  C21 UNL     1      24.834   4.961  48.948  1.00  0.00     0.171 A 
HETATM   17  O1  UNL     1      24.282   5.896  48.153  1.00  0.00    -0.176 OA
HETATM   18  N1  UNL     1      23.584   4.258  49.287  1.00  0.00    -0.336 N 
HETATM   19  H21 UNL     1      22.582   4.335  49.076  1.00  0.00     0.168 HD
ENDROOT
BRANCH   1  20
HETATM   20  C5  UNL     1      23.850   0.279  52.355  1.00  0.00     0.012 C 
HETATM   21  C4  UNL     1      23.870   0.233  53.675  1.00  0.00     0.001 C 
BRANCH  21  22
HETATM   22  C3  UNL     1      23.198  -0.816  54.429  1.00  0.00    -0.004 C 
HETATM   23  C2  UNL     1      21.924  -0.817  54.775  1.00  0.00    -0.031 C 
HETATM   24  C1  UNL     1      20.979   0.256  54.448  1.00  0.00     0.036 C 
ENDBRANCH  21  22
ENDBRANCH   1  20
TORSDOF 2
ENDMDL
MODEL 5
REMARK VINA RESULT:      -8.4      2.776      5.463
REMARK  2 active torsions:
REMARK  status: ('A' for Active; 'I' for Inactive)
REMARK    1  A    between atoms: C3_3  and  C4_4 
REMARK    2  A    between atoms: C5_5  and  C6_6 
ROOT
HETATM    1  C6  UNL     1      25.763   4.198  49.830  1.00  0.00    -0.028 A 
HETATM    2  C7  UNL     1      26.372   3.041  50.353  1.00  0.00     0.012 A 
HETATM    3  C8  UNL     1      25.659   2.174  51.200  1.00  0.00     0.011 A 
HETATM    4  C9  UNL     1      24.319   2.423  51.566  1.00  0.00    -0.012 A 
HETATM    5  C10 UNL     1      23.696   3.529  51.094  1.00  0.00     0.048 A 
HETATM    6  C11 UNL     1      24.479   4.292  50.270  1.00  0.00    -0.021 A 
HETATM    7  C12 UNL     1      23.436   5.106  49.515  1.00  0.00     0.042 C 
HETATM    8  C13 UNL     1      23.087   4.215  48.293  1.00  0.00     0.008 C 
HETATM    9  C14 UNL     1      23.043   2.779  48.518  1.00  0.00     0.027 C 
HETATM   10  C15 UNL     1      22.041   1.900  49.055  1.00  0.00    -0.027 C 
HETATM   11  C16 UNL     1      21.412   1.038  49.883  1.00  0.00    -0.008 C 
HETATM   12  C17 UNL     1      21.658   0.401  51.162  1.00  0.00     0.001 C 
HETATM   13  C18 UNL     1      21.830  -0.219  52.334  1.00  0.00     0.005 C 
HETATM   14  C19 UNL     1      23.131   0.338  52.992  1.00  0.00     0.018 C 
HETATM   15  C20 UNL     1      23.822   1.349  52.413  1.00  0.00     0.081 A 
HETATM   16  C21 UNL     1      22.525   2.255  52.353  1.00  0.00     0.171 A 
HETATM   17  O1  UNL     1      21.284   2.233  52.874  1.00  0.00    -0.176 OA
HETATM   18  N1  UNL     1      22.383   3.523  51.614  1.00  0.00    -0.336 N 
HETATM   19  H21 UNL     1      21.665   4.239  51.456  1.00  0.00     0.168 HD
ENDROOT
BRANCH   1  20
HETATM   20  C5  UNL     1      26.322   5.178  48.958  1.00  0.00     0.012 C 
HETATM   21  C4  UNL     1      27.622   5.231  48.732  1.00  0.00     0.001 C 
BRANCH  21  22
HETATM   22  C3  UNL     1      28.221   6.222  47.848  1.00  0.00    -0.004 C 
HETATM   23  C2  UNL     1      29.507   6.506  47.774  1.00  0.00    -0.031 C 
HETATM   24  C1  UNL     1      30.545   5.857  48.583  1.00  0.00     0.036 C 
ENDBRANCH  21  22
ENDBRANCH   1  20
TORSDOF 2
ENDMDL
MODEL 6
REMARK VINA RESULT:      -8.3      2.111      6.577
REMARK  2 active torsions:
REMARK  status: ('A' for Active; 'I' for Inactive)
REMARK    1  A    between atoms: C3_3  and  C4_4 
REMARK    2  A    between atoms: C5_5  and  C6_6 
ROOT
HETATM    1  C6  UNL     1      24.519   4.093  49.914  1.00  0.00    -0.028 A 
HETATM    2  C7  UNL     1      25.631   3.402  49.397  1.00  0.00     0.012 A 
HETATM    3  C8  UNL     1      26.449   2.625  50.238  1.00  0.00     0.011 A 
HETATM    4  C9  UNL     1      26.200   2.510  51.622  1.00  0.00    -0.012 A 
HETATM    5  C10 UNL     1      25.146   3.165  52.164  1.00  0.00     0.048 A 
HETATM    6  C11 UNL     1      24.414   3.878  51.254  1.00  0.00    -0.021 A 
HETATM    7  C12 UNL     1      23.090   4.051  51.987  1.00  0.00     0.042 C 
HETATM    8  C13 UNL     1      22.281   2.787  51.590  1.00  0.00     0.008 C 
HETATM    9  C14 UNL     1      23.024   1.544  51.463  1.00  0.00     0.027 C 
HETATM   10  C15 UNL     1      23.483   0.573  52.418  1.00  0.00    -0.027 C 
HETATM   11  C16 UNL     1      24.312  -0.176  53.178  1.00  0.00    -0.008 C 
HETATM   12  C17 UNL     1      25.737  -0.306  53.408  1.00  0.00     0.001 C 
HETATM   13  C18 UNL     1      27.039  -0.475  53.660  1.00  0.00     0.005 C 
HETATM   14  C19 UNL     1      27.828   0.644  52.911  1.00  0.00     0.018 C 
HETATM   15  C20 UNL     1      27.174   1.619  52.234  1.00  0.00     0.081 A 
HETATM   16  C21 UNL     1      26.318   1.987  53.514  1.00  0.00     0.171 A 
HETATM   17  O1  UNL     1      26.342   1.704  54.830  1.00  0.00    -0.176 OA
HETATM   18  N1  UNL     1      25.139   2.872  53.546  1.00  0.00    -0.336 N 
HETATM   19  H21 UNL     1      24.474   3.234  54.239  1.00  0.00     0.168 HD
ENDROOT
BRANCH   1  20
HETATM   20  C5  UNL     1      23.582   4.914  49.219  1.00  0.00     0.012 C 
HETATM   21  C4  UNL     1      22.879   4.441  48.206  1.00  0.00     0.001 C 
BRANCH  21  22
HETATM   22  C3  UNL     1      21.917   5.255  47.477  1.00  0.00    -0.004 C 
HETATM   23  C2  UNL     1      21.459   5.001  46.266  1.00  0.00    -0.031 C 
HETATM   24  C1  UNL     1      21.856   3.843  45.458  1.00  0.00     0.036 C 
ENDBRANCH  21  22
ENDBRANCH   1  20
TORSDOF 2
ENDMDL
MODEL 7
REMARK VINA RESULT:      -8.1      2.983      6.357
REMARK  2 active torsions:
REMARK  status: ('A' for Active; 'I' for Inactive)
REMARK    1  A    between atoms: C3_3  and  C4_4 
REMARK    2  A    between atoms: C5_5  and  C6_6 
ROOT
HETATM    1  C6  UNL     1      20.585   1.339  51.433  1.00  0.00    -0.028 A 
HETATM    2  C7  UNL     1      21.283   1.399  50.213  1.00  0.00     0.012 A 
HETATM    3  C8  UNL     1      22.658   1.698  50.185  1.00  0.00     0.011 A 
HETATM    4  C9  UNL     1      23.389   1.956  51.364  1.00  0.00    -0.012 A 
HETATM    5  C10 UNL     1      22.755   1.919  52.560  1.00  0.00     0.048 A 
HETATM    6  C11 UNL     1      21.426   1.606  52.469  1.00  0.00    -0.021 A 
HETATM    7  C12 UNL     1      21.119   1.137  53.886  1.00  0.00     0.042 C 
HETATM    8  C13 UNL     1      21.439  -0.381  53.849  1.00  0.00     0.008 C 
HETATM    9  C14 UNL     1      22.579  -0.793  53.048  1.00  0.00     0.027 C 
HETATM   10  C15 UNL     1      23.995  -0.815  53.294  1.00  0.00    -0.027 C 
HETATM   11  C16 UNL     1      25.310  -0.519  53.203  1.00  0.00    -0.008 C 
HETATM   12  C17 UNL     1      26.160   0.389  52.460  1.00  0.00     0.001 C 
HETATM   13  C18 UNL     1      26.995   1.200  51.802  1.00  0.00     0.005 C 
HETATM   14  C19 UNL     1      26.141   2.197  50.958  1.00  0.00     0.018 C 
HETATM   15  C20 UNL     1      24.788   2.195  51.045  1.00  0.00     0.081 A 
HETATM   16  C21 UNL     1      24.850   2.355  52.619  1.00  0.00     0.171 A 
HETATM   17  O1  UNL     1      25.783   2.651  53.543  1.00  0.00    -0.176 OA
HETATM   18  N1  UNL     1      23.718   2.211  53.552  1.00  0.00    -0.336 N 
HETATM   19  H21 UNL     1      23.547   2.278  54.562  1.00  0.00     0.168 HD
ENDROOT
BRANCH   1  20
HETATM   20  C5  UNL     1      19.206   1.045  51.654  1.00  0.00     0.012 C 
HETATM   21  C4  UNL     1      18.709  -0.146  51.377  1.00  0.00     0.001 C 
BRANCH  21  22
HETATM   22  C3  UNL     1      17.306  -0.474  51.590  1.00  0.00    -0.004 C 
HETATM   23  C2  UNL     1      16.845  -1.328  52.484  1.00  0.00    -0.031 C 
HETATM   24  C1  UNL     1      17.688  -2.087  53.413  1.00  0.00     0.036 C 
ENDBRANCH  21  22
ENDBRANCH   1  20
TORSDOF 2
ENDMDL
MODEL 8
REMARK VINA RESULT:      -8.0      1.839      3.441
REMARK  2 active torsions:
REMARK  status: ('A' for Active; 'I' for Inactive)
REMARK    1  A    between atoms: C3_3  and  C4_4 
REMARK    2  A    between atoms: C5_5  and  C6_6 
ROOT
HETATM    1  C6  UNL     1      26.029   1.887  51.247  1.00  0.00    -0.028 A 
HETATM    2  C7  UNL     1      26.782   2.938  50.691  1.00  0.00     0.012 A 
HETATM    3  C8  UNL     1      26.162   3.930  49.909  1.00  0.00     0.011 A 
HETATM    4  C9  UNL     1      24.776   3.914  49.644  1.00  0.00    -0.012 A 
HETATM    5  C10 UNL     1      24.015   2.916  50.151  1.00  0.00     0.048 A 
HETATM    6  C11 UNL     1      24.718   2.016  50.905  1.00  0.00    -0.021 A 
HETATM    7  C12 UNL     1      23.612   1.369  51.729  1.00  0.00     0.042 C 
HETATM    8  C13 UNL     1      23.506   2.277  52.982  1.00  0.00     0.008 C 
HETATM    9  C14 UNL     1      23.686   3.705  52.776  1.00  0.00     0.027 C 
HETATM   10  C15 UNL     1      22.808   4.750  52.326  1.00  0.00    -0.027 C 
HETATM   11  C16 UNL     1      22.272   5.722  51.556  1.00  0.00    -0.008 C 
HETATM   12  C17 UNL     1      22.526   6.338  50.269  1.00  0.00     0.001 C 
HETATM   13  C18 UNL     1      22.712   6.948  49.094  1.00  0.00     0.005 C 
HETATM   14  C19 UNL     1      23.850   6.199  48.332  1.00  0.00     0.018 C 
HETATM   15  C20 UNL     1      24.404   5.074  48.848  1.00  0.00     0.081 A 
HETATM   16  C21 UNL     1      22.982   4.394  48.997  1.00  0.00     0.171 A 
HETATM   17  O1  UNL     1      21.727   4.632  48.572  1.00  0.00    -0.176 OA
HETATM   18  N1  UNL     1      22.686   3.151  49.731  1.00  0.00    -0.336 N 
HETATM   19  H21 UNL     1      21.872   2.560  49.937  1.00  0.00     0.168 HD
ENDROOT
BRANCH   1  20
HETATM   20  C5  UNL     1      26.479   0.808  52.064  1.00  0.00     0.012 C 
HETATM   21  C4  UNL     1      27.037   1.029  53.241  1.00  0.00     0.001 C 
BRANCH  21  22
HETATM   22  C3  UNL     1      27.507  -0.052  54.096  1.00  0.00    -0.004 C 
HETATM   23  C2  UNL     1      28.758  -0.461  54.198  1.00  0.00    -0.031 C 
HETATM   24  C1  UNL     1      29.880   0.120  53.453  1.00  0.00     0.036 C 
ENDBRANCH  21  22
ENDBRANCH   1  20
TORSDOF 2
ENDMDL
MODEL 9
REMARK VINA RESULT:      -7.8      3.044      5.596
REMARK  2 active torsions:
REMARK  status: ('A' for Active; 'I' for Inactive)
REMARK    1  A    between atoms: C3_3  and  C4_4 
REMARK    2  A    between atoms: C5_5  and  C6_6 
ROOT
HETATM    1  C6  UNL     1      24.349   2.940  50.350  1.00  0.00    -0.028 A 
HETATM    2  C7  UNL     1      25.754   2.933  50.445  1.00  0.00     0.012 A 
HETATM    3  C8  UNL     1      26.520   3.947  49.842  1.00  0.00     0.011 A 
HETATM    4  C9  UNL     1      25.924   5.001  49.117  1.00  0.00    -0.012 A 
HETATM    5  C10 UNL     1      24.577   5.043  48.991  1.00  0.00     0.048 A 
HETATM    6  C11 UNL     1      23.933   4.016  49.628  1.00  0.00    -0.021 A 
HETATM    7  C12 UNL     1      22.523   4.574  49.770  1.00  0.00     0.042 C 
HETATM    8  C13 UNL     1      22.562   5.335  51.122  1.00  0.00     0.008 C 
HETATM    9  C14 UNL     1      23.790   6.043  51.441  1.00  0.00     0.027 C 
HETATM   10  C15 UNL     1      24.313   7.326  51.057  1.00  0.00    -0.027 C 
HETATM   11  C16 UNL     1      25.101   8.263  50.488  1.00  0.00    -0.008 C 
HETATM   12  C17 UNL     1      26.267   8.311  49.628  1.00  0.00     0.001 C 
HETATM   13  C18 UNL     1      27.343   8.419  48.841  1.00  0.00     0.005 C 
HETATM   14  C19 UNL     1      27.721   6.991  48.336  1.00  0.00     0.018 C 
HETATM   15  C20 UNL     1      26.946   5.921  48.640  1.00  0.00     0.081 A 
HETATM   16  C21 UNL     1      25.658   6.641  48.064  1.00  0.00     0.171 A 
HETATM   17  O1  UNL     1      25.388   7.731  47.322  1.00  0.00    -0.176 OA
HETATM   18  N1  UNL     1      24.264   6.189  48.227  1.00  0.00    -0.336 N 
HETATM   19  H21 UNL     1      23.325   6.490  47.942  1.00  0.00     0.168 HD
ENDROOT
BRANCH   1  20
HETATM   20  C5  UNL     1      23.417   2.010  50.899  1.00  0.00     0.012 C 
HETATM   21  C4  UNL     1      23.281   1.869  52.205  1.00  0.00     0.001 C 
BRANCH  21  22
HETATM   22  C3  UNL     1      22.339   0.927  52.793  1.00  0.00    -0.004 C 
HETATM   23  C2  UNL     1      22.662  -0.158  53.472  1.00  0.00    -0.031 C 
HETATM   24  C1  UNL     1      24.040  -0.586  53.739  1.00  0.00     0.036 C 
ENDBRANCH  21  22
ENDBRANCH   1  20
TORSDOF 2
ENDMDL
