MODEL 1
REMARK VINA RESULT:      -7.9      0.000      0.000
REMARK  9 active torsions:
REMARK  status: ('A' for Active; 'I' for Inactive)
REMARK    1  A    between atoms: C2_2  and  O1_3 
REMARK    2  A    between atoms: O1_3  and  C3_4 
REMARK    3  A    between atoms: C3_4  and  C4_5 
REMARK    4  A    between atoms: C4_5  and  C5_6 
REMARK    5  A    between atoms: C5_6  and  P1_7 
REMARK    6  A    between atoms: C6_9  and  C7_10 
REMARK    7  A    between atoms: C7_10  and  C8_11 
REMARK    8  A    between atoms: C13_17  and  N2_19 
REMARK    9  A    between atoms: N2_19  and  C14_20 
ROOT
HETATM    1  P1  UNL     1      25.316   2.426  51.947  1.00  0.00     0.070 P 
HETATM    2  N1  UNL     1      25.019   2.662  51.352  1.00  0.00    -0.300 N 
HETATM    3  C6  UNL     1      23.555   2.538  51.777  1.00  0.00     0.177 A 
HETATM    4  C13 UNL     1      26.411   2.844  50.806  1.00  0.00     0.269 A 
HETATM    5  O2  UNL     1      27.335   2.528  51.562  1.00  0.00    -0.252 OA
HETATM    6  H10 UNL     1      24.423   3.209  49.973  1.00  0.00     0.092 HD
ENDROOT
BRANCH   4   7
HETATM    7  N2  UNL     1      26.491   3.358  49.495  1.00  0.00    -0.313 N 
HETATM    8  H20 UNL     1      26.379   2.954  48.551  1.00  0.00     0.170 HD
BRANCH   7   9
HETATM    9  C14 UNL     1      26.765   4.649  48.999  1.00  0.00     0.036 A 
HETATM   10  C15 UNL     1      25.749   5.604  48.952  1.00  0.00     0.029 A 
HETATM   11  C16 UNL     1      25.998   6.895  48.474  1.00  0.00     0.002 A 
HETATM   12  C17 UNL     1      27.299   7.097  48.074  1.00  0.00     0.000 A 
HETATM   13  C18 UNL     1      28.370   6.230  48.078  1.00  0.00     0.002 A 
HETATM   14  C19 UNL     1      28.059   4.960  48.567  1.00  0.00     0.029 A 
ENDBRANCH   7   9
ENDBRANCH   4   7
BRANCH   1  15
HETATM   15  C5  UNL     1      25.857   1.982  53.087  1.00  0.00    -0.131 C 
BRANCH  15  16
HETATM   16  C4  UNL     1      26.408   1.498  54.273  1.00  0.00     0.112 C 
BRANCH  16  17
HETATM   17  C3  UNL     1      26.584  -0.014  53.984  1.00  0.00     0.179 C 
BRANCH  17  18
HETATM   18  O1  UNL     1      27.589  -0.578  54.718  1.00  0.00    -0.391 OA
BRANCH  18  19
HETATM   19  C2  UNL     1      28.803   0.061  54.673  1.00  0.00     0.163 C 
HETATM   20  C1  UNL     1      29.718  -0.536  53.616  1.00  0.00     0.033 C 
ENDBRANCH  18  19
ENDBRANCH  17  18
ENDBRANCH  16  17
ENDBRANCH  15  16
ENDBRANCH   1  15
BRANCH   3  21
HETATM   21  C7  UNL     1      22.989   1.233  51.314  1.00  0.00     0.060 C 
BRANCH  21  22
HETATM   22  C8  UNL     1      22.246   0.444  52.288  1.00  0.00    -0.069 C 
HETATM   23  C9  UNL     1      22.904  -0.269  53.158  1.00  0.00     0.004 C 
HETATM   24  C10 UNL     1      22.375  -1.107  54.194  1.00  0.00     0.007 C 
HETATM   25  C11 UNL     1      21.079  -1.210  54.339  1.00  0.00     0.045 C 
HETATM   26  S1  UNL     1      19.862  -0.379  53.337  1.00  0.00    -0.137 SA
HETATM   27  C12 UNL     1      20.770   0.526  52.058  1.00  0.00     0.112 C 
ENDBRANCH  21  22
ENDBRANCH   3  21
TORSDOF 9
ENDMDL
MODEL 2
REMARK VINA RESULT:      -7.4      2.984      7.183
REMARK  9 active torsions:
REMARK  status: ('A' for Active; 'I' for Inactive)
REMARK    1  A    between atoms: C2_2  and  O1_3 
REMARK    2  A    between atoms: O1_3  and  C3_4 
REMARK    3  A    between atoms: C3_4  and  C4_5 
REMARK    4  A    between atoms: C4_5  and  C5_6 
REMARK    5  A    between atoms: C5_6  and  P1_7 
REMARK    6  A    between atoms: C6_9  and  C7_10 
REMARK    7  A    between atoms: C7_10  and  C8_11 
REMARK    8  A    between atoms: C13_17  and  N2_19 
REMARK    9  A    between atoms: N2_19  and  C14_20 
ROOT
HETATM    1  P1  UNL     1      24.126   1.948  51.748  1.00  0.00     0.070 P 
HETATM    2  N1  UNL     1      24.729   2.234  51.978  1.00  0.00    -0.300 N 
HETATM    3  C6  UNL     1      24.654   3.550  51.201  1.00  0.00     0.177 A 
HETATM    4  C13 UNL     1      24.926   0.992  52.807  1.00  0.00     0.269 A 
HETATM    5  O2  UNL     1      24.045   0.132  52.712  1.00  0.00    -0.252 OA
HETATM    6  H10 UNL     1      26.105   2.815  52.548  1.00  0.00     0.092 HD
ENDROOT
BRANCH   4   7
HETATM    7  N2  UNL     1      26.097   0.962  53.594  1.00  0.00    -0.313 N 
HETATM    8  H20 UNL     1      26.415   1.465  54.438  1.00  0.00     0.170 HD
BRANCH   7   9
HETATM    9  C14 UNL     1      27.284   0.207  53.496  1.00  0.00     0.036 A 
HETATM   10  C15 UNL     1      27.228  -1.121  53.076  1.00  0.00     0.029 A 
HETATM   11  C16 UNL     1      28.393  -1.888  52.962  1.00  0.00     0.002 A 
HETATM   12  C17 UNL     1      29.541  -1.206  53.298  1.00  0.00     0.000 A 
HETATM   13  C18 UNL     1      29.704   0.095  53.721  1.00  0.00     0.002 A 
HETATM   14  C19 UNL     1      28.507   0.807  53.814  1.00  0.00     0.029 A 
ENDBRANCH   7   9
ENDBRANCH   4   7
BRANCH   1  15
HETATM   15  C5  UNL     1      22.976   1.429  51.303  1.00  0.00    -0.131 C 
BRANCH  15  16
HETATM   16  C4  UNL     1      21.788   0.886  50.817  1.00  0.00     0.112 C 
BRANCH  16  17
HETATM   17  C3  UNL     1      20.799   1.101  51.992  1.00  0.00     0.179 C 
BRANCH  17  18
HETATM   18  O1  UNL     1      20.711   0.013  52.813  1.00  0.00    -0.391 OA
BRANCH  18  19
HETATM   19  C2  UNL     1      20.723   0.271  54.161  1.00  0.00     0.163 C 
HETATM   20  C1  UNL     1      21.607  -0.710  54.917  1.00  0.00     0.033 C 
ENDBRANCH  18  19
ENDBRANCH  17  18
ENDBRANCH  16  17
ENDBRANCH  15  16
ENDBRANCH   1  15
BRANCH   3  21
HETATM   21  C7  UNL     1      25.420   3.441  49.921  1.00  0.00     0.060 C 
BRANCH  21  22
HETATM   22  C8  UNL     1      26.153   4.620  49.479  1.00  0.00    -0.069 C 
HETATM   23  C9  UNL     1      27.294   4.463  48.869  1.00  0.00     0.004 C 
HETATM   24  C10 UNL     1      28.167   5.477  48.355  1.00  0.00     0.007 C 
HETATM   25  C11 UNL     1      27.833   6.735  48.478  1.00  0.00     0.045 C 
HETATM   26  S1  UNL     1      26.343   7.335  49.250  1.00  0.00    -0.137 SA
HETATM   27  C12 UNL     1      25.471   5.885  49.895  1.00  0.00     0.112 C 
ENDBRANCH  21  22
ENDBRANCH   3  21
TORSDOF 9
ENDMDL
MODEL 3
REMARK VINA RESULT:      -7.2      3.223      7.468
REMARK  9 active torsions:
REMARK  status: ('A' for Active; 'I' for Inactive)
REMARK    1  A    between atoms: C2_2  and  O1_3 
REMARK    2  A    between atoms: O1_3  and  C3_4 
REMARK    3  A    between atoms: C3_4  and  C4_5 
REMARK    4  A    between atoms: C4_5  and  C5_6 
REMARK    5  A    between atoms: C5_6  and  P1_7 
REMARK    6  A    between atoms: C6_9  and  C7_10 
REMARK    7  A    between atoms: C7_10  and  C8_11 
REMARK    8  A    between atoms: C13_17  and  N2_19 
REMARK    9  A    between atoms: N2_19  and  C14_20 
ROOT
HETATM    1  P1  UNL     1      23.823   1.789  51.841  1.00  0.00     0.070 P 
HETATM    2  N1  UNL     1      24.418   2.072  52.094  1.00  0.00    -0.300 N 
HETATM    3  C6  UNL     1      24.396   3.372  51.289  1.00  0.00     0.177 A 
HETATM    4  C13 UNL     1      24.560   0.844  52.954  1.00  0.00     0.269 A 
HETATM    5  O2  UNL     1      23.673  -0.007  52.835  1.00  0.00    -0.252 OA
HETATM    6  H10 UNL     1      25.774   2.647  52.716  1.00  0.00     0.092 HD
ENDROOT
BRANCH   4   7
HETATM    7  N2  UNL     1      25.692   0.815  53.795  1.00  0.00    -0.313 N 
HETATM    8  H20 UNL     1      25.924   1.231  54.712  1.00  0.00     0.170 HD
BRANCH   7   9
HETATM    9  C14 UNL     1      26.948   0.186  53.671  1.00  0.00     0.036 A 
HETATM   10  C15 UNL     1      27.037  -1.076  53.084  1.00  0.00     0.029 A 
HETATM   11  C16 UNL     1      28.273  -1.716  52.941  1.00  0.00     0.002 A 
HETATM   12  C17 UNL     1      29.335  -0.986  53.425  1.00  0.00     0.000 A 
HETATM   13  C18 UNL     1      29.356   0.257  54.018  1.00  0.00     0.002 A 
HETATM   14  C19 UNL     1      28.095   0.843  54.131  1.00  0.00     0.029 A 
ENDBRANCH   7   9
ENDBRANCH   4   7
BRANCH   1  15
HETATM   15  C5  UNL     1      22.688   1.274  51.353  1.00  0.00    -0.131 C 
BRANCH  15  16
HETATM   16  C4  UNL     1      21.518   0.717  50.840  1.00  0.00     0.112 C 
BRANCH  16  17
HETATM   17  C3  UNL     1      21.646   0.977  49.317  1.00  0.00     0.179 C 
BRANCH  17  18
HETATM   18  O1  UNL     1      20.574   1.649  48.804  1.00  0.00    -0.391 OA
BRANCH  18  19
HETATM   19  C2  UNL     1      20.859   2.632  47.888  1.00  0.00     0.163 C 
HETATM   20  C1  UNL     1      22.357   2.833  47.720  1.00  0.00     0.033 C 
ENDBRANCH  18  19
ENDBRANCH  17  18
ENDBRANCH  16  17
ENDBRANCH  15  16
ENDBRANCH   1  15
BRANCH   3  21
HETATM   21  C7  UNL     1      25.219   3.229  50.048  1.00  0.00     0.060 C 
BRANCH  21  22
HETATM   22  C8  UNL     1      25.941   4.407  49.586  1.00  0.00    -0.069 C 
HETATM   23  C9  UNL     1      27.092   4.252  48.994  1.00  0.00     0.004 C 
HETATM   24  C10 UNL     1      27.957   5.265  48.465  1.00  0.00     0.007 C 
HETATM   25  C11 UNL     1      27.604   6.521  48.553  1.00  0.00     0.045 C 
HETATM   26  S1  UNL     1      26.097   7.119  49.293  1.00  0.00    -0.137 SA
HETATM   27  C12 UNL     1      25.237   5.673  49.963  1.00  0.00     0.112 C 
ENDBRANCH  21  22
ENDBRANCH   3  21
TORSDOF 9
ENDMDL
MODEL 4
REMARK VINA RESULT:      -7.0      2.803      7.117
REMARK  9 active torsions:
REMARK  status: ('A' for Active; 'I' for Inactive)
REMARK    1  A    between atoms: C2_2  and  O1_3 
REMARK    2  A    between atoms: O1_3  and  C3_4 
REMARK    3  A    between atoms: C3_4  and  C4_5 
REMARK    4  A    between atoms: C4_5  and  C5_6 
REMARK    5  A    between atoms: C5_6  and  P1_7 
REMARK    6  A    between atoms: C6_9  and  C7_10 
REMARK    7  A    between atoms: C7_10  and  C8_11 
REMARK    8  A    between atoms: C13_17  and  N2_19 
REMARK    9  A    between atoms: N2_19  and  C14_20 
ROOT
HETATM    1  P1  UNL     1      23.877   2.989  50.601  1.00  0.00     0.070 P 
HETATM    2  N1  UNL     1      23.883   2.465  51.074  1.00  0.00    -0.300 N 
HETATM    3  C6  UNL     1      25.130   2.890  51.851  1.00  0.00     0.177 A 
HETATM    4  C13 UNL     1      22.640   1.937  50.408  1.00  0.00     0.269 A 
HETATM    5  O2  UNL     1      22.226   2.585  49.442  1.00  0.00    -0.252 OA
HETATM    6  H10 UNL     1      23.827   1.249  52.110  1.00  0.00     0.092 HD
ENDROOT
BRANCH   4   7
HETATM    7  N2  UNL     1      22.097   0.762  50.971  1.00  0.00    -0.313 N 
HETATM    8  H20 UNL     1      21.670  -0.096  50.585  1.00  0.00     0.170 HD
BRANCH   7   9
HETATM    9  C14 UNL     1      21.941   0.338  52.306  1.00  0.00     0.036 A 
HETATM   10  C15 UNL     1      20.769   0.640  52.998  1.00  0.00     0.029 A 
HETATM   11  C16 UNL     1      20.588   0.222  54.321  1.00  0.00     0.002 A 
HETATM   12  C17 UNL     1      21.652  -0.487  54.829  1.00  0.00     0.000 A 
HETATM   13  C18 UNL     1      22.845  -0.837  54.236  1.00  0.00     0.002 A 
HETATM   14  C19 UNL     1      22.966  -0.392  52.919  1.00  0.00     0.029 A 
ENDBRANCH   7   9
ENDBRANCH   4   7
BRANCH   1  15
HETATM   15  C5  UNL     1      23.882   3.995  49.719  1.00  0.00    -0.131 C 
BRANCH  15  16
HETATM   16  C4  UNL     1      23.863   5.038  48.794  1.00  0.00     0.112 C 
BRANCH  16  17
HETATM   17  C3  UNL     1      24.482   6.218  49.586  1.00  0.00     0.179 C 
BRANCH  17  18
HETATM   18  O1  UNL     1      25.815   6.047  49.832  1.00  0.00    -0.391 OA
BRANCH  18  19
HETATM   19  C2  UNL     1      26.633   6.007  48.730  1.00  0.00     0.163 C 
HETATM   20  C1  UNL     1      27.507   4.763  48.719  1.00  0.00     0.033 C 
ENDBRANCH  18  19
ENDBRANCH  17  18
ENDBRANCH  16  17
ENDBRANCH  15  16
ENDBRANCH   1  15
BRANCH   3  21
HETATM   21  C7  UNL     1      26.336   2.175  51.330  1.00  0.00     0.060 C 
BRANCH  21  22
HETATM   22  C8  UNL     1      27.204   1.530  52.307  1.00  0.00    -0.069 C 
HETATM   23  C9  UNL     1      28.017   2.264  53.012  1.00  0.00     0.004 C 
HETATM   24  C10 UNL     1      28.945   1.837  54.018  1.00  0.00     0.007 C 
HETATM   25  C11 UNL     1      29.032   0.566  54.314  1.00  0.00     0.045 C 
HETATM   26  S1  UNL     1      28.076  -0.735  53.561  1.00  0.00    -0.137 SA
HETATM   27  C12 UNL     1      27.065   0.040  52.274  1.00  0.00     0.112 C 
ENDBRANCH  21  22
ENDBRANCH   3  21
TORSDOF 9
ENDMDL
MODEL 5
REMARK VINA RESULT:      -7.0      3.694      7.573
REMARK  9 active torsions:
REMARK  status: ('A' for Active; 'I' for Inactive)
REMARK    1  A    between atoms: C2_2  and  O1_3 
REMARK    2  A    between atoms: O1_3  and  C3_4 
REMARK    3  A    between atoms: C3_4  and  C4_5 
REMARK    4  A    between atoms: C4_5  and  C5_6 
REMARK    5  A    between atoms: C5_6  and  P1_7 
REMARK    6  A    between atoms: C6_9  and  C7_10 
REMARK    7  A    between atoms: C7_10  and  C8_11 
REMARK    8  A    between atoms: C13_17  and  N2_19 
REMARK    9  A    between atoms: N2_19  and  C14_20 
ROOT
HETATM    1  P1  UNL     1      21.951   0.164  53.525  1.00  0.00     0.070 P 
HETATM    2  N1  UNL     1      22.613   0.398  53.594  1.00  0.00    -0.300 N 
HETATM    3  C6  UNL     1      22.459   1.709  52.820  1.00  0.00     0.177 A 
HETATM    4  C13 UNL     1      22.904  -0.849  54.386  1.00  0.00     0.269 A 
HETATM    5  O2  UNL     1      21.959  -1.630  54.532  1.00  0.00    -0.252 OA
HETATM    6  H10 UNL     1      24.129   0.863  53.796  1.00  0.00     0.092 HD
ENDROOT
BRANCH   4   7
HETATM    7  N2  UNL     1      24.224  -0.973  54.867  1.00  0.00    -0.313 N 
HETATM    8  H20 UNL     1      24.646  -1.319  55.745  1.00  0.00     0.170 HD
BRANCH   7   9
HETATM    9  C14 UNL     1      25.473  -0.654  54.296  1.00  0.00     0.036 A 
HETATM   10  C15 UNL     1      26.365   0.164  54.989  1.00  0.00     0.029 A 
HETATM   11  C16 UNL     1      27.614   0.487  54.448  1.00  0.00     0.002 A 
HETATM   12  C17 UNL     1      27.843  -0.072  53.211  1.00  0.00     0.000 A 
HETATM   13  C18 UNL     1      27.037  -0.886  52.446  1.00  0.00     0.002 A 
HETATM   14  C19 UNL     1      25.807  -1.172  53.040  1.00  0.00     0.029 A 
ENDBRANCH   7   9
ENDBRANCH   4   7
BRANCH   1  15
HETATM   15  C5  UNL     1      20.689  -0.259  53.387  1.00  0.00    -0.131 C 
BRANCH  15  16
HETATM   16  C4  UNL     1      19.378  -0.717  53.260  1.00  0.00     0.112 C 
BRANCH  16  17
HETATM   17  C3  UNL     1      18.906  -0.063  51.936  1.00  0.00     0.179 C 
BRANCH  17  18
HETATM   18  O1  UNL     1      17.563   0.181  51.918  1.00  0.00    -0.391 OA
BRANCH  18  19
HETATM   19  C2  UNL     1      16.783  -0.669  52.662  1.00  0.00     0.163 C 
HETATM   20  C1  UNL     1      15.336  -0.204  52.722  1.00  0.00     0.033 C 
ENDBRANCH  18  19
ENDBRANCH  17  18
ENDBRANCH  16  17
ENDBRANCH  15  16
ENDBRANCH   1  15
BRANCH   3  21
HETATM   21  C7  UNL     1      22.878   1.523  51.396  1.00  0.00     0.060 C 
BRANCH  21  22
HETATM   22  C8  UNL     1      24.009   2.312  50.925  1.00  0.00    -0.069 C 
HETATM   23  C9  UNL     1      25.204   2.029  51.360  1.00  0.00     0.004 C 
HETATM   24  C10 UNL     1      26.441   2.670  51.025  1.00  0.00     0.007 C 
HETATM   25  C11 UNL     1      26.439   3.670  50.182  1.00  0.00     0.045 C 
HETATM   26  S1  UNL     1      24.995   4.337  49.378  1.00  0.00    -0.137 SA
HETATM   27  C12 UNL     1      23.570   3.431  50.032  1.00  0.00     0.112 C 
ENDBRANCH  21  22
ENDBRANCH   3  21
TORSDOF 9
ENDMDL
MODEL 6
REMARK VINA RESULT:      -6.9      2.150      5.715
REMARK  9 active torsions:
REMARK  status: ('A' for Active; 'I' for Inactive)
REMARK    1  A    between atoms: C2_2  and  O1_3 
REMARK    2  A    between atoms: O1_3  and  C3_4 
REMARK    3  A    between atoms: C3_4  and  C4_5 
REMARK    4  A    between atoms: C4_5  and  C5_6 
REMARK    5  A    between atoms: C5_6  and  P1_7 
REMARK    6  A    between atoms: C6_9  and  C7_10 
REMARK    7  A    between atoms: C7_10  and  C8_11 
REMARK    8  A    between atoms: C13_17  and  N2_19 
REMARK    9  A    between atoms: N2_19  and  C14_20 
ROOT
HETATM    1  P1  UNL     1      23.689   1.700  52.453  1.00  0.00     0.070 P 
HETATM    2  N1  UNL     1      23.728   0.999  52.528  1.00  0.00    -0.300 N 
HETATM    3  C6  UNL     1      22.379   0.641  51.902  1.00  0.00     0.177 A 
HETATM    4  C13 UNL     1      25.081   1.206  53.156  1.00  0.00     0.269 A 
HETATM    5  O2  UNL     1      25.461   2.377  53.250  1.00  0.00    -0.252 OA
HETATM    6  H10 UNL     1      23.892  -0.578  52.729  1.00  0.00     0.092 HD
ENDROOT
BRANCH   4   7
HETATM    7  N2  UNL     1      25.753   0.033  53.561  1.00  0.00    -0.313 N 
HETATM    8  H20 UNL     1      25.453  -0.874  53.956  1.00  0.00     0.170 HD
BRANCH   7   9
HETATM    9  C14 UNL     1      27.117  -0.321  53.570  1.00  0.00     0.036 A 
HETATM   10  C15 UNL     1      27.523  -1.533  53.013  1.00  0.00     0.029 A 
HETATM   11  C16 UNL     1      28.873  -1.902  53.001  1.00  0.00     0.002 A 
HETATM   12  C17 UNL     1      29.708  -0.971  53.577  1.00  0.00     0.000 A 
HETATM   13  C18 UNL     1      29.412   0.245  54.152  1.00  0.00     0.002 A 
HETATM   14  C19 UNL     1      28.051   0.556  54.133  1.00  0.00     0.029 A 
ENDBRANCH   7   9
ENDBRANCH   4   7
BRANCH   1  15
HETATM   15  C5  UNL     1      23.597   3.025  52.296  1.00  0.00    -0.131 C 
BRANCH  15  16
HETATM   16  C4  UNL     1      23.478   4.403  52.122  1.00  0.00     0.112 C 
BRANCH  16  17
HETATM   17  C3  UNL     1      23.896   4.607  50.644  1.00  0.00     0.179 C 
BRANCH  17  18
HETATM   18  O1  UNL     1      25.162   5.102  50.516  1.00  0.00    -0.391 OA
BRANCH  18  19
HETATM   19  C2  UNL     1      25.911   4.590  49.486  1.00  0.00     0.163 C 
HETATM   20  C1  UNL     1      26.431   3.196  49.802  1.00  0.00     0.033 C 
ENDBRANCH  18  19
ENDBRANCH  17  18
ENDBRANCH  16  17
ENDBRANCH  15  16
ENDBRANCH   1  15
BRANCH   3  21
HETATM   21  C7  UNL     1      21.335   0.502  52.964  1.00  0.00     0.060 C 
BRANCH  21  22
HETATM   22  C8  UNL     1      20.000   0.101  52.540  1.00  0.00    -0.069 C 
HETATM   23  C9  UNL     1      19.523   0.572  51.423  1.00  0.00     0.004 C 
HETATM   24  C10 UNL     1      18.247   0.307  50.826  1.00  0.00     0.007 C 
HETATM   25  C11 UNL     1      17.412  -0.502  51.426  1.00  0.00     0.045 C 
HETATM   26  S1  UNL     1      17.718  -1.338  52.969  1.00  0.00    -0.137 SA
HETATM   27  C12 UNL     1      19.333  -0.770  53.558  1.00  0.00     0.112 C 
ENDBRANCH  21  22
ENDBRANCH   3  21
TORSDOF 9
ENDMDL
MODEL 7
REMARK VINA RESULT:      -6.8      2.721      6.251
REMARK  9 active torsions:
REMARK  status: ('A' for Active; 'I' for Inactive)
REMARK    1  A    between atoms: C2_2  and  O1_3 
REMARK    2  A    between atoms: O1_3  and  C3_4 
REMARK    3  A    between atoms: C3_4  and  C4_5 
REMARK    4  A    between atoms: C4_5  and  C5_6 
REMARK    5  A    between atoms: C5_6  and  P1_7 
REMARK    6  A    between atoms: C6_9  and  C7_10 
REMARK    7  A    between atoms: C7_10  and  C8_11 
REMARK    8  A    between atoms: C13_17  and  N2_19 
REMARK    9  A    between atoms: N2_19  and  C14_20 
ROOT
HETATM    1  P1  UNL     1      24.602   0.430  53.076  1.00  0.00     0.070 P 
HETATM    2  N1  UNL     1      24.140   0.555  52.557  1.00  0.00    -0.300 N 
HETATM    3  C6  UNL     1      25.053   1.377  51.647  1.00  0.00     0.177 A 
HETATM    4  C13 UNL     1      23.137  -0.244  53.347  1.00  0.00     0.269 A 
HETATM    5  O2  UNL     1      23.534  -0.697  54.425  1.00  0.00    -0.252 OA
HETATM    6  H10 UNL     1      23.037   0.791  51.424  1.00  0.00     0.092 HD
ENDROOT
BRANCH   4   7
HETATM    7  N2  UNL     1      21.862  -0.379  52.758  1.00  0.00    -0.313 N 
HETATM    8  H20 UNL     1      21.176  -1.148  52.684  1.00  0.00     0.170 HD
BRANCH   7   9
HETATM    9  C14 UNL     1      21.053   0.522  52.036  1.00  0.00     0.036 A 
HETATM   10  C15 UNL     1      20.888   0.359  50.662  1.00  0.00     0.029 A 
HETATM   11  C16 UNL     1      20.082   1.235  49.926  1.00  0.00     0.002 A 
HETATM   12  C17 UNL     1      19.504   2.227  50.685  1.00  0.00     0.000 A 
HETATM   13  C18 UNL     1      19.602   2.476  52.036  1.00  0.00     0.002 A 
HETATM   14  C19 UNL     1      20.417   1.569  52.714  1.00  0.00     0.029 A 
ENDBRANCH   7   9
ENDBRANCH   4   7
BRANCH   1  15
HETATM   15  C5  UNL     1      25.497   0.201  54.043  1.00  0.00    -0.131 C 
BRANCH  15  16
HETATM   16  C4  UNL     1      26.419  -0.019  55.065  1.00  0.00     0.112 C 
BRANCH  16  17
HETATM   17  C3  UNL     1      27.782   0.139  54.345  1.00  0.00     0.179 C 
BRANCH  17  18
HETATM   18  O1  UNL     1      28.723   0.752  55.124  1.00  0.00    -0.391 OA
BRANCH  18  19
HETATM   19  C2  UNL     1      29.361   1.831  54.565  1.00  0.00     0.163 C 
HETATM   20  C1  UNL     1      28.542   2.456  53.446  1.00  0.00     0.033 C 
ENDBRANCH  18  19
ENDBRANCH  17  18
ENDBRANCH  16  17
ENDBRANCH  15  16
ENDBRANCH   1  15
BRANCH   3  21
HETATM   21  C7  UNL     1      24.864   2.838  51.904  1.00  0.00     0.060 C 
BRANCH  21  22
HETATM   22  C8  UNL     1      25.336   3.763  50.883  1.00  0.00    -0.069 C 
HETATM   23  C9  UNL     1      26.409   3.465  50.206  1.00  0.00     0.004 C 
HETATM   24  C10 UNL     1      27.037   4.225  49.165  1.00  0.00     0.007 C 
HETATM   25  C11 UNL     1      26.516   5.368  48.801  1.00  0.00     0.045 C 
HETATM   26  S1  UNL     1      25.048   6.101  49.497  1.00  0.00    -0.137 SA
HETATM   27  C12 UNL     1      24.508   5.009  50.838  1.00  0.00     0.112 C 
ENDBRANCH  21  22
ENDBRANCH   3  21
TORSDOF 9
ENDMDL
MODEL 8
REMARK VINA RESULT:      -6.7      2.816      3.599
REMARK  9 active torsions:
REMARK  status: ('A' for Active; 'I' for Inactive)
REMARK    1  A    between atoms: C2_2  and  O1_3 
REMARK    2  A    between atoms: O1_3  and  C3_4 
REMARK    3  A    between atoms: C3_4  and  C4_5 
REMARK    4  A    between atoms: C4_5  and  C5_6 
REMARK    5  A    between atoms: C5_6  and  P1_7 
REMARK    6  A    between atoms: C6_9  and  C7_10 
REMARK    7  A    between atoms: C7_10  and  C8_11 
REMARK    8  A    between atoms: C13_17  and  N2_19 
REMARK    9  A    between atoms: N2_19  and  C14_20 
ROOT
HETATM    1  P1  UNL     1      24.248   1.500  52.337  1.00  0.00     0.070 P 
HETATM    2  N1  UNL     1      23.634   1.826  52.216  1.00  0.00    -0.300 N 
HETATM    3  C6  UNL     1      22.758   0.988  53.149  1.00  0.00     0.177 A 
HETATM    4  C13 UNL     1      24.376   2.734  51.271  1.00  0.00     0.269 A 
HETATM    5  O2  UNL     1      25.585   2.515  51.147  1.00  0.00    -0.252 OA
HETATM    6  H10 UNL     1      22.283   2.617  51.892  1.00  0.00     0.092 HD
ENDROOT
BRANCH   4   7
HETATM    7  N2  UNL     1      23.598   3.728  50.642  1.00  0.00    -0.313 N 
HETATM    8  H20 UNL     1      23.459   4.741  50.790  1.00  0.00     0.170 HD
BRANCH   7   9
HETATM    9  C14 UNL     1      22.705   3.682  49.552  1.00  0.00     0.036 A 
HETATM   10  C15 UNL     1      21.566   4.486  49.553  1.00  0.00     0.029 A 
HETATM   11  C16 UNL     1      20.670   4.464  48.479  1.00  0.00     0.002 A 
HETATM   12  C17 UNL     1      21.030   3.596  47.473  1.00  0.00     0.000 A 
HETATM   13  C18 UNL     1      22.123   2.764  47.374  1.00  0.00     0.002 A 
HETATM   14  C19 UNL     1      22.978   2.831  48.475  1.00  0.00     0.029 A 
ENDBRANCH   7   9
ENDBRANCH   4   7
BRANCH   1  15
HETATM   15  C5  UNL     1      25.402   0.871  52.586  1.00  0.00    -0.131 C 
BRANCH  15  16
HETATM   16  C4  UNL     1      26.596   0.195  52.835  1.00  0.00     0.112 C 
BRANCH  16  17
HETATM   17  C3  UNL     1      26.682   0.196  54.382  1.00  0.00     0.179 C 
BRANCH  17  18
HETATM   18  O1  UNL     1      27.827  -0.385  54.848  1.00  0.00    -0.391 OA
BRANCH  18  19
HETATM   19  C2  UNL     1      29.005   0.115  54.350  1.00  0.00     0.163 C 
HETATM   20  C1  UNL     1      29.879  -0.978  53.757  1.00  0.00     0.033 C 
ENDBRANCH  18  19
ENDBRANCH  17  18
ENDBRANCH  16  17
ENDBRANCH  15  16
ENDBRANCH   1  15
BRANCH   3  21
HETATM   21  C7  UNL     1      22.099  -0.118  52.388  1.00  0.00     0.060 C 
BRANCH  21  22
HETATM   22  C8  UNL     1      20.804   0.166  51.783  1.00  0.00    -0.069 C 
HETATM   23  C9  UNL     1      20.764   0.736  50.612  1.00  0.00     0.004 C 
HETATM   24  C10 UNL     1      19.609   1.097  49.844  1.00  0.00     0.007 C 
HETATM   25  C11 UNL     1      18.417   0.848  50.322  1.00  0.00     0.045 C 
HETATM   26  S1  UNL     1      18.076   0.074  51.890  1.00  0.00    -0.137 SA
HETATM   27  C12 UNL     1      19.675  -0.192  52.697  1.00  0.00     0.112 C 
ENDBRANCH  21  22
ENDBRANCH   3  21
TORSDOF 9
ENDMDL
MODEL 9
REMARK VINA RESULT:      -6.7      2.272      3.313
REMARK  9 active torsions:
REMARK  status: ('A' for Active; 'I' for Inactive)
REMARK    1  A    between atoms: C2_2  and  O1_3 
REMARK    2  A    between atoms: O1_3  and  C3_4 
REMARK    3  A    between atoms: C3_4  and  C4_5 
REMARK    4  A    between atoms: C4_5  and  C5_6 
REMARK    5  A    between atoms: C5_6  and  P1_7 
REMARK    6  A    between atoms: C6_9  and  C7_10 
REMARK    7  A    between atoms: C7_10  and  C8_11 
REMARK    8  A    between atoms: C13_17  and  N2_19 
REMARK    9  A    between atoms: N2_19  and  C14_20 
ROOT
HETATM    1  P1  UNL     1      26.007   2.322  52.300  1.00  0.00     0.070 P 
HETATM    2  N1  UNL     1      25.348   2.434  52.073  1.00  0.00    -0.300 N 
HETATM    3  C6  UNL     1      24.605   1.858  53.280  1.00  0.00     0.177 A 
HETATM    4  C13 UNL     1      25.946   3.038  50.831  1.00  0.00     0.269 A 
HETATM    5  O2  UNL     1      27.180   3.056  50.777  1.00  0.00    -0.252 OA
HETATM    6  H10 UNL     1      23.887   2.722  51.492  1.00  0.00     0.092 HD
ENDROOT
BRANCH   4   7
HETATM    7  N2  UNL     1      25.022   3.513  49.876  1.00  0.00    -0.313 N 
HETATM    8  H20 UNL     1      25.097   4.077  49.014  1.00  0.00     0.170 HD
BRANCH   7   9
HETATM    9  C14 UNL     1      23.623   3.377  49.764  1.00  0.00     0.036 A 
HETATM   10  C15 UNL     1      22.785   4.260  50.443  1.00  0.00     0.029 A 
HETATM   11  C16 UNL     1      21.393   4.153  50.341  1.00  0.00     0.002 A 
HETATM   12  C17 UNL     1      20.975   3.121  49.532  1.00  0.00     0.000 A 
HETATM   13  C18 UNL     1      21.714   2.199  48.822  1.00  0.00     0.002 A 
HETATM   14  C19 UNL     1      23.092   2.359  48.964  1.00  0.00     0.029 A 
ENDBRANCH   7   9
ENDBRANCH   4   7
BRANCH   1  15
HETATM   15  C5  UNL     1      27.248   2.108  52.753  1.00  0.00    -0.131 C 
BRANCH  15  16
HETATM   16  C4  UNL     1      28.531   1.871  53.243  1.00  0.00     0.112 C 
BRANCH  16  17
HETATM   17  C3  UNL     1      28.307   0.735  54.273  1.00  0.00     0.179 C 
BRANCH  17  18
HETATM   18  O1  UNL     1      29.309  -0.192  54.263  1.00  0.00    -0.391 OA
BRANCH  18  19
HETATM   19  C2  UNL     1      29.190  -1.202  53.340  1.00  0.00     0.163 C 
HETATM   20  C1  UNL     1      27.735  -1.550  53.067  1.00  0.00     0.033 C 
ENDBRANCH  18  19
ENDBRANCH  17  18
ENDBRANCH  16  17
ENDBRANCH  15  16
ENDBRANCH   1  15
BRANCH   3  21
HETATM   21  C7  UNL     1      24.242   0.429  53.033  1.00  0.00     0.060 C 
BRANCH  21  22
HETATM   22  C8  UNL     1      22.830   0.077  53.098  1.00  0.00    -0.069 C 
HETATM   23  C9  UNL     1      21.997   0.647  52.274  1.00  0.00     0.004 C 
HETATM   24  C10 UNL     1      20.582   0.445  52.168  1.00  0.00     0.007 C 
HETATM   25  C11 UNL     1      19.992  -0.406  52.967  1.00  0.00     0.045 C 
HETATM   26  S1  UNL     1      20.806  -1.376  54.220  1.00  0.00    -0.137 SA
HETATM   27  C12 UNL     1      22.546  -0.874  54.219  1.00  0.00     0.112 C 
ENDBRANCH  21  22
ENDBRANCH   3  21
TORSDOF 9
ENDMDL
