MODEL 1
REMARK VINA RESULT:      -8.7      0.000      0.000
REMARK  7 active torsions:
REMARK  status: ('A' for Active; 'I' for Inactive)
REMARK    1  A    between atoms: C2_2  and  C3_3 
REMARK    2  A    between atoms: C5_7  and  O2_8 
REMARK    3  A    between atoms: C7_10  and  O3_11 
REMARK    4  A    between atoms: O3_11  and  C8_12 
REMARK    5  A    between atoms: C9_14  and  C10_15 
REMARK    6  A    between atoms: C13_20  and  N5_21 
REMARK    7  A    between atoms: C18_28  and  N7_29 
ROOT
HETATM    1  C8  UNL     1      23.616   1.517  52.123  1.00  0.00     0.181 A 
HETATM    2  N2  UNL     1      24.959   1.507  52.372  1.00  0.00    -0.203 NA
HETATM    3  C9  UNL     1      25.560   0.516  53.086  1.00  0.00     0.168 A 
HETATM    4  N6  UNL     1      24.872  -0.541  53.609  1.00  0.00    -0.227 NA
HETATM    5  C14 UNL     1      23.534  -0.560  53.378  1.00  0.00     0.077 A 
HETATM    6  C15 UNL     1      22.945   0.451  52.654  1.00  0.00     0.068 A 
HETATM    7  C16 UNL     1      21.628  -0.109  52.751  1.00  0.00     0.053 A 
HETATM    8 CL1  UNL     1      20.002   0.240  52.236  1.00  0.00    -0.083 Cl
HETATM    9  C17 UNL     1      22.169  -1.103  53.457  1.00  0.00     0.057 A 
ENDROOT
BRANCH   1  10
HETATM   10  O3  UNL     1      23.375   2.626  51.402  1.00  0.00    -0.321 OA
BRANCH  10  11
HETATM   11  C7  UNL     1      24.003   3.827  51.413  1.00  0.00     0.226 C 
HETATM   12  C5  UNL     1      23.010   5.013  51.417  1.00  0.00     0.183 C 
HETATM   13  C4  UNL     1      24.083   6.117  51.316  1.00  0.00     0.321 C 
HETATM   14  N1  UNL     1      25.005   5.577  50.307  1.00  0.00     0.145 N 
HETATM   15  C3  UNL     1      26.009   6.416  49.655  1.00  0.00     0.307 A 
HETATM   16  C18 UNL     1      24.741   4.159  50.121  1.00  0.00     0.492 C 
HETATM   17  O1  UNL     1      25.307   6.926  50.535  1.00  0.00    -0.121 OA
BRANCH  12  18
HETATM   18  O2  UNL     1      22.288   5.083  50.254  1.00  0.00    -0.386 OA
HETATM   19  C6  UNL     1      20.919   5.053  50.427  1.00  0.00     0.202 C 
ENDBRANCH  12  18
BRANCH  15  20
HETATM   20  C2  UNL     1      26.798   5.753  48.632  1.00  0.00     0.043 C 
HETATM   21  C1  UNL     1      27.966   6.260  48.290  1.00  0.00     0.035 C 
ENDBRANCH  15  20
BRANCH  16  22
HETATM   22  N7  UNL     1      25.949   3.363  50.008  1.00  0.00     0.116 N 
HETATM   23  H19 UNL     1      26.296   3.231  49.053  1.00  0.00     0.315 HD
HETATM   24  H20 UNL     1      26.673   3.609  50.705  1.00  0.00     0.315 HD
ENDBRANCH  16  22
ENDBRANCH  10  11
ENDBRANCH   1  10
BRANCH   3  25
HETATM   25  C10 UNL     1      26.974   0.460  53.388  1.00  0.00     0.076 A 
HETATM   26  C11 UNL     1      27.681  -0.733  53.309  1.00  0.00     0.131 A 
HETATM   27  N3  UNL     1      28.963  -0.517  53.637  1.00  0.00    -0.282 N 
HETATM   28  C12 UNL     1      30.130  -1.401  53.721  1.00  0.00     0.179 C 
HETATM   29  N4  UNL     1      29.094   0.772  53.922  1.00  0.00    -0.154 NA
HETATM   30  C13 UNL     1      27.909   1.385  53.779  1.00  0.00     0.157 A 
BRANCH  30  31
HETATM   31  N5  UNL     1      27.579   2.748  53.975  1.00  0.00    -0.382 N 
HETATM   32  H15 UNL     1      27.437   3.386  54.780  1.00  0.00     0.157 HD
HETATM   33  H16 UNL     1      27.367   3.572  53.358  1.00  0.00     0.157 HD
ENDBRANCH  30  31
ENDBRANCH   3  25
TORSDOF 7
ENDMDL
MODEL 2
REMARK VINA RESULT:      -8.2      1.799      2.217
REMARK  7 active torsions:
REMARK  status: ('A' for Active; 'I' for Inactive)
REMARK    1  A    between atoms: C2_2  and  C3_3 
REMARK    2  A    between atoms: C5_7  and  O2_8 
REMARK    3  A    between atoms: C7_10  and  O3_11 
REMARK    4  A    between atoms: O3_11  and  C8_12 
REMARK    5  A    between atoms: C9_14  and  C10_15 
REMARK    6  A    between atoms: C13_20  and  N5_21 
REMARK    7  A    between atoms: C18_28  and  N7_29 
ROOT
HETATM    1  C8  UNL     1      22.900   0.817  52.413  1.00  0.00     0.181 A 
HETATM    2  N2  UNL     1      24.258   0.944  52.482  1.00  0.00    -0.203 NA
HETATM    3  C9  UNL     1      25.013   0.220  53.352  1.00  0.00     0.168 A 
HETATM    4  N6  UNL     1      24.477  -0.687  54.220  1.00  0.00    -0.227 NA
HETATM    5  C14 UNL     1      23.129  -0.836  54.175  1.00  0.00     0.077 A 
HETATM    6  C15 UNL     1      22.382  -0.094  53.289  1.00  0.00     0.068 A 
HETATM    7  C16 UNL     1      21.135  -0.672  53.698  1.00  0.00     0.053 A 
HETATM    8 CL1  UNL     1      19.438  -0.562  53.320  1.00  0.00    -0.083 Cl
HETATM    9  C17 UNL     1      21.830  -1.406  54.569  1.00  0.00     0.057 A 
ENDROOT
BRANCH   1  10
HETATM   10  O3  UNL     1      22.490   1.672  51.459  1.00  0.00    -0.321 OA
BRANCH  10  11
HETATM   11  C7  UNL     1      22.039   2.946  51.565  1.00  0.00     0.226 C 
HETATM   12  C5  UNL     1      20.826   3.221  50.645  1.00  0.00     0.183 C 
HETATM   13  C4  UNL     1      20.717   4.724  50.973  1.00  0.00     0.321 C 
HETATM   14  N1  UNL     1      22.120   5.160  50.948  1.00  0.00     0.145 N 
HETATM   15  C3  UNL     1      22.485   6.575  50.894  1.00  0.00     0.307 A 
HETATM   16  C18 UNL     1      22.989   3.996  50.998  1.00  0.00     0.492 C 
HETATM   17  O1  UNL     1      21.286   6.286  50.970  1.00  0.00    -0.121 OA
BRANCH  12  18
HETATM   18  O2  UNL     1      21.160   3.150  49.317  1.00  0.00    -0.386 OA
HETATM   19  C6  UNL     1      20.102   2.871  48.475  1.00  0.00     0.202 C 
ENDBRANCH  12  18
BRANCH  15  20
HETATM   20  C2  UNL     1      23.910   6.842  50.807  1.00  0.00     0.043 C 
HETATM   21  C1  UNL     1      24.323   8.078  50.608  1.00  0.00     0.035 C 
ENDBRANCH  15  20
BRANCH  16  22
HETATM   22  N7  UNL     1      24.131   4.171  51.877  1.00  0.00     0.116 N 
HETATM   23  H19 UNL     1      24.187   3.507  52.655  1.00  0.00     0.315 HD
HETATM   24  H20 UNL     1      25.020   4.329  51.373  1.00  0.00     0.315 HD
ENDBRANCH  16  22
ENDBRANCH  10  11
ENDBRANCH   1  10
BRANCH   3  25
HETATM   25  C10 UNL     1      26.451   0.320  53.476  1.00  0.00     0.076 A 
HETATM   26  C11 UNL     1      27.266  -0.797  53.345  1.00  0.00     0.131 A 
HETATM   27  N3  UNL     1      28.549  -0.437  53.503  1.00  0.00    -0.282 N 
HETATM   28  C12 UNL     1      29.804  -1.194  53.466  1.00  0.00     0.179 C 
HETATM   29  N4  UNL     1      28.576   0.869  53.729  1.00  0.00    -0.154 NA
HETATM   30  C13 UNL     1      27.324   1.352  53.718  1.00  0.00     0.157 A 
BRANCH  30  31
HETATM   31  N5  UNL     1      26.877   2.682  53.911  1.00  0.00    -0.382 N 
HETATM   32  H15 UNL     1      26.047   3.151  54.318  1.00  0.00     0.157 HD
HETATM   33  H16 UNL     1      27.248   3.642  53.703  1.00  0.00     0.157 HD
ENDBRANCH  30  31
ENDBRANCH   3  25
TORSDOF 7
ENDMDL
MODEL 3
REMARK VINA RESULT:      -7.9      1.528      2.526
REMARK  7 active torsions:
REMARK  status: ('A' for Active; 'I' for Inactive)
REMARK    1  A    between atoms: C2_2  and  C3_3 
REMARK    2  A    between atoms: C5_7  and  O2_8 
REMARK    3  A    between atoms: C7_10  and  O3_11 
REMARK    4  A    between atoms: O3_11  and  C8_12 
REMARK    5  A    between atoms: C9_14  and  C10_15 
REMARK    6  A    between atoms: C13_20  and  N5_21 
REMARK    7  A    between atoms: C18_28  and  N7_29 
ROOT
HETATM    1  C8  UNL     1      23.713   1.906  52.857  1.00  0.00     0.181 A 
HETATM    2  N2  UNL     1      25.068   1.832  53.012  1.00  0.00    -0.203 NA
HETATM    3  C9  UNL     1      25.698   0.681  53.370  1.00  0.00     0.168 A 
HETATM    4  N6  UNL     1      25.030  -0.487  53.603  1.00  0.00    -0.227 NA
HETATM    5  C14 UNL     1      23.681  -0.446  53.458  1.00  0.00     0.077 A 
HETATM    6  C15 UNL     1      23.063   0.728  53.095  1.00  0.00     0.068 A 
HETATM    7  C16 UNL     1      21.747   0.156  53.104  1.00  0.00     0.053 A 
HETATM    8 CL1  UNL     1      20.097   0.629  52.809  1.00  0.00    -0.083 Cl
HETATM    9  C17 UNL     1      22.317  -0.998  53.457  1.00  0.00     0.057 A 
ENDROOT
BRANCH   1  10
HETATM   10  O3  UNL     1      23.443   3.175  52.504  1.00  0.00    -0.321 OA
BRANCH  10  11
HETATM   11  C7  UNL     1      23.140   3.697  51.291  1.00  0.00     0.226 C 
HETATM   12  C5  UNL     1      24.201   3.354  50.219  1.00  0.00     0.183 C 
HETATM   13  C4  UNL     1      23.563   4.192  49.092  1.00  0.00     0.321 C 
HETATM   14  N1  UNL     1      23.196   5.435  49.785  1.00  0.00     0.145 N 
HETATM   15  C3  UNL     1      22.844   6.649  49.051  1.00  0.00     0.307 A 
HETATM   16  C18 UNL     1      23.239   5.218  51.222  1.00  0.00     0.492 C 
HETATM   17  O1  UNL     1      23.086   5.626  48.401  1.00  0.00    -0.121 OA
BRANCH  12  18
HETATM   18  O2  UNL     1      25.411   3.942  50.485  1.00  0.00    -0.386 OA
HETATM   19  C6  UNL     1      26.418   3.602  49.604  1.00  0.00     0.202 C 
ENDBRANCH  12  18
BRANCH  15  20
HETATM   20  C2  UNL     1      22.571   7.812  49.877  1.00  0.00     0.043 C 
HETATM   21  C1  UNL     1      22.007   8.872  49.333  1.00  0.00     0.035 C 
ENDBRANCH  15  20
BRANCH  16  22
HETATM   22  N7  UNL     1      22.128   5.830  51.926  1.00  0.00     0.116 N 
HETATM   23  H19 UNL     1      21.356   5.195  52.156  1.00  0.00     0.315 HD
HETATM   24  H20 UNL     1      22.420   6.457  52.693  1.00  0.00     0.315 HD
ENDBRANCH  16  22
ENDBRANCH  10  11
ENDBRANCH   1  10
BRANCH   3  25
HETATM   25  C10 UNL     1      27.127   0.548  53.558  1.00  0.00     0.076 A 
HETATM   26  C11 UNL     1      27.742  -0.698  53.554  1.00  0.00     0.131 A 
HETATM   27  N3  UNL     1      29.060  -0.547  53.748  1.00  0.00    -0.282 N 
HETATM   28  C12 UNL     1      30.168  -1.505  53.833  1.00  0.00     0.179 C 
HETATM   29  N4  UNL     1      29.304   0.750  53.875  1.00  0.00    -0.154 NA
HETATM   30  C13 UNL     1      28.154   1.435  53.764  1.00  0.00     0.157 A 
BRANCH  30  31
HETATM   31  N5  UNL     1      27.936   2.832  53.833  1.00  0.00    -0.382 N 
HETATM   32  H15 UNL     1      28.394   3.650  54.275  1.00  0.00     0.157 HD
HETATM   33  H16 UNL     1      27.227   3.507  53.451  1.00  0.00     0.157 HD
ENDBRANCH  30  31
ENDBRANCH   3  25
TORSDOF 7
ENDMDL
MODEL 4
REMARK VINA RESULT:      -7.8      2.606      5.669
REMARK  7 active torsions:
REMARK  status: ('A' for Active; 'I' for Inactive)
REMARK    1  A    between atoms: C2_2  and  C3_3 
REMARK    2  A    between atoms: C5_7  and  O2_8 
REMARK    3  A    between atoms: C7_10  and  O3_11 
REMARK    4  A    between atoms: O3_11  and  C8_12 
REMARK    5  A    between atoms: C9_14  and  C10_15 
REMARK    6  A    between atoms: C13_20  and  N5_21 
REMARK    7  A    between atoms: C18_28  and  N7_29 
ROOT
HETATM    1  C8  UNL     1      24.273   2.340  51.782  1.00  0.00     0.181 A 
HETATM    2  N2  UNL     1      25.208   1.560  52.401  1.00  0.00    -0.203 NA
HETATM    3  C9  UNL     1      26.537   1.662  52.128  1.00  0.00     0.168 A 
HETATM    4  N6  UNL     1      27.040   2.547  51.217  1.00  0.00    -0.227 NA
HETATM    5  C14 UNL     1      26.135   3.337  50.586  1.00  0.00     0.077 A 
HETATM    6  C15 UNL     1      24.795   3.218  50.875  1.00  0.00     0.068 A 
HETATM    7  C16 UNL     1      24.402   4.247  49.957  1.00  0.00     0.053 A 
HETATM    8 CL1  UNL     1      22.955   5.042  49.402  1.00  0.00    -0.083 Cl
HETATM    9  C17 UNL     1      25.693   4.386  49.653  1.00  0.00     0.057 A 
ENDROOT
BRANCH   1  10
HETATM   10  O3  UNL     1      23.083   1.974  52.290  1.00  0.00    -0.321 OA
BRANCH  10  11
HETATM   11  C7  UNL     1      22.030   1.367  51.690  1.00  0.00     0.226 C 
HETATM   12  C5  UNL     1      21.123   2.367  50.934  1.00  0.00     0.183 C 
HETATM   13  C4  UNL     1      20.053   1.334  50.528  1.00  0.00     0.321 C 
HETATM   14  N1  UNL     1      19.881   0.550  51.759  1.00  0.00     0.145 N 
HETATM   15  C3  UNL     1      18.739  -0.344  51.948  1.00  0.00     0.307 A 
HETATM   16  C18 UNL     1      20.989   0.816  52.660  1.00  0.00     0.492 C 
HETATM   17  O1  UNL     1      18.848   0.239  50.864  1.00  0.00    -0.121 OA
BRANCH  12  18
HETATM   18  O2  UNL     1      20.499   3.241  51.785  1.00  0.00    -0.386 OA
HETATM   19  C6  UNL     1      19.621   4.111  51.169  1.00  0.00     0.202 C 
ENDBRANCH  12  18
BRANCH  15  20
HETATM   20  C2  UNL     1      18.675  -0.997  53.244  1.00  0.00     0.043 C 
HETATM   21  C1  UNL     1      17.788  -1.952  53.441  1.00  0.00     0.035 C 
ENDBRANCH  15  20
BRANCH  16  22
HETATM   22  N7  UNL     1      21.492  -0.377  53.317  1.00  0.00     0.116 N 
HETATM   23  H19 UNL     1      22.513  -0.448  53.368  1.00  0.00     0.315 HD
HETATM   24  H20 UNL     1      20.994  -0.607  54.193  1.00  0.00     0.315 HD
ENDBRANCH  16  22
ENDBRANCH  10  11
ENDBRANCH   1  10
BRANCH   3  25
HETATM   25  C10 UNL     1      27.569   0.856  52.744  1.00  0.00     0.076 A 
HETATM   26  C11 UNL     1      27.597  -0.524  52.588  1.00  0.00     0.131 A 
HETATM   27  N3  UNL     1      28.645  -1.029  53.255  1.00  0.00    -0.282 N 
HETATM   28  C12 UNL     1      29.145  -2.397  53.429  1.00  0.00     0.179 C 
HETATM   29  N4  UNL     1      29.283  -0.019  53.829  1.00  0.00    -0.154 NA
HETATM   30  C13 UNL     1      28.656   1.132  53.537  1.00  0.00     0.157 A 
BRANCH  30  31
HETATM   31  N5  UNL     1      28.982   2.452  53.931  1.00  0.00    -0.382 N 
HETATM   32  H15 UNL     1      29.844   3.005  54.088  1.00  0.00     0.157 HD
HETATM   33  H16 UNL     1      28.446   3.316  54.195  1.00  0.00     0.157 HD
ENDBRANCH  30  31
ENDBRANCH   3  25
TORSDOF 7
ENDMDL
MODEL 5
REMARK VINA RESULT:      -7.7      2.723      5.075
REMARK  7 active torsions:
REMARK  status: ('A' for Active; 'I' for Inactive)
REMARK    1  A    between atoms: C2_2  and  C3_3 
REMARK    2  A    between atoms: C5_7  and  O2_8 
REMARK    3  A    between atoms: C7_10  and  O3_11 
REMARK    4  A    between atoms: O3_11  and  C8_12 
REMARK    5  A    between atoms: C9_14  and  C10_15 
REMARK    6  A    between atoms: C13_20  and  N5_21 
REMARK    7  A    between atoms: C18_28  and  N7_29 
ROOT
HETATM    1  C8  UNL     1      24.305   1.543  51.671  1.00  0.00     0.181 A 
HETATM    2  N2  UNL     1      22.960   1.312  51.612  1.00  0.00    -0.203 NA
HETATM    3  C9  UNL     1      22.342   0.401  52.412  1.00  0.00     0.168 A 
HETATM    4  N6  UNL     1      23.013  -0.352  53.332  1.00  0.00    -0.227 NA
HETATM    5  C14 UNL     1      24.352  -0.146  53.414  1.00  0.00     0.077 A 
HETATM    6  C15 UNL     1      24.959   0.780  52.597  1.00  0.00     0.068 A 
HETATM    7  C16 UNL     1      26.268   0.546  53.134  1.00  0.00     0.053 A 
HETATM    8 CL1  UNL     1      27.903   1.109  52.925  1.00  0.00    -0.083 Cl
HETATM    9  C17 UNL     1      25.710  -0.359  53.940  1.00  0.00     0.057 A 
ENDROOT
BRANCH   1  10
HETATM   10  O3  UNL     1      24.565   2.492  50.754  1.00  0.00    -0.321 OA
BRANCH  10  11
HETATM   11  C7  UNL     1      24.834   3.810  50.916  1.00  0.00     0.226 C 
HETATM   12  C5  UNL     1      23.555   4.681  50.896  1.00  0.00     0.183 C 
HETATM   13  C4  UNL     1      24.287   6.036  50.987  1.00  0.00     0.321 C 
HETATM   14  N1  UNL     1      25.403   5.862  50.047  1.00  0.00     0.145 N 
HETATM   15  C3  UNL     1      26.187   6.998  49.565  1.00  0.00     0.307 A 
HETATM   16  C18 UNL     1      25.557   4.451  49.736  1.00  0.00     0.492 C 
HETATM   17  O1  UNL     1      25.300   7.215  50.399  1.00  0.00    -0.121 OA
BRANCH  12  18
HETATM   18  O2  UNL     1      22.942   4.667  49.669  1.00  0.00    -0.386 OA
HETATM   19  C6  UNL     1      21.604   4.329  49.703  1.00  0.00     0.202 C 
ENDBRANCH  12  18
BRANCH  15  20
HETATM   20  C2  UNL     1      27.212   6.671  48.590  1.00  0.00     0.043 C 
HETATM   21  C1  UNL     1      27.472   7.524  47.618  1.00  0.00     0.035 C 
ENDBRANCH  15  20
BRANCH  16  22
HETATM   22  N7  UNL     1      26.943   4.021  49.698  1.00  0.00     0.116 N 
HETATM   23  H19 UNL     1      27.244   3.452  50.496  1.00  0.00     0.315 HD
HETATM   24  H20 UNL     1      27.242   3.669  48.774  1.00  0.00     0.315 HD
ENDBRANCH  16  22
ENDBRANCH  10  11
ENDBRANCH   1  10
BRANCH   3  25
HETATM   25  C10 UNL     1      20.925   0.109  52.386  1.00  0.00     0.076 A 
HETATM   26  C11 UNL     1      20.159   0.353  51.253  1.00  0.00     0.131 A 
HETATM   27  N3  UNL     1      18.887  -0.000  51.488  1.00  0.00    -0.282 N 
HETATM   28  C12 UNL     1      17.676   0.039  50.661  1.00  0.00     0.179 C 
HETATM   29  N4  UNL     1      18.818  -0.460  52.730  1.00  0.00    -0.154 NA
HETATM   30  C13 UNL     1      20.035  -0.406  53.295  1.00  0.00     0.157 A 
BRANCH  30  31
HETATM   31  N5  UNL     1      20.432  -0.790  54.599  1.00  0.00    -0.382 N 
HETATM   32  H15 UNL     1      21.322  -0.896  55.120  1.00  0.00     0.157 HD
HETATM   33  H16 UNL     1      19.946  -1.097  55.478  1.00  0.00     0.157 HD
ENDBRANCH  30  31
ENDBRANCH   3  25
TORSDOF 7
ENDMDL
MODEL 6
REMARK VINA RESULT:      -7.7      1.798      2.268
REMARK  7 active torsions:
REMARK  status: ('A' for Active; 'I' for Inactive)
REMARK    1  A    between atoms: C2_2  and  C3_3 
REMARK    2  A    between atoms: C5_7  and  O2_8 
REMARK    3  A    between atoms: C7_10  and  O3_11 
REMARK    4  A    between atoms: O3_11  and  C8_12 
REMARK    5  A    between atoms: C9_14  and  C10_15 
REMARK    6  A    between atoms: C13_20  and  N5_21 
REMARK    7  A    between atoms: C18_28  and  N7_29 
ROOT
HETATM    1  C8  UNL     1      23.330   1.922  52.651  1.00  0.00     0.181 A 
HETATM    2  N2  UNL     1      24.683   1.829  52.812  1.00  0.00    -0.203 NA
HETATM    3  C9  UNL     1      25.293   0.675  53.197  1.00  0.00     0.168 A 
HETATM    4  N6  UNL     1      24.605  -0.477  53.452  1.00  0.00    -0.227 NA
HETATM    5  C14 UNL     1      23.258  -0.416  53.301  1.00  0.00     0.077 A 
HETATM    6  C15 UNL     1      22.659   0.760  52.912  1.00  0.00     0.068 A 
HETATM    7  C16 UNL     1      21.335   0.210  52.928  1.00  0.00     0.053 A 
HETATM    8 CL1  UNL     1      19.694   0.705  52.619  1.00  0.00    -0.083 Cl
HETATM    9  C17 UNL     1      21.884  -0.945  53.307  1.00  0.00     0.057 A 
ENDROOT
BRANCH   1  10
HETATM   10  O3  UNL     1      23.082   3.188  52.271  1.00  0.00    -0.321 OA
BRANCH  10  11
HETATM   11  C7  UNL     1      23.436   3.843  51.139  1.00  0.00     0.226 C 
HETATM   12  C5  UNL     1      23.269   5.376  51.268  1.00  0.00     0.183 C 
HETATM   13  C4  UNL     1      23.646   5.698  49.807  1.00  0.00     0.321 C 
HETATM   14  N1  UNL     1      22.921   4.665  49.053  1.00  0.00     0.145 N 
HETATM   15  C3  UNL     1      22.725   4.762  47.608  1.00  0.00     0.307 A 
HETATM   16  C18 UNL     1      22.492   3.615  49.963  1.00  0.00     0.492 C 
HETATM   17  O1  UNL     1      23.394   5.640  48.165  1.00  0.00    -0.121 OA
BRANCH  12  18
HETATM   18  O2  UNL     1      21.955   5.741  51.406  1.00  0.00    -0.386 OA
HETATM   19  C6  UNL     1      21.688   7.055  51.076  1.00  0.00     0.202 C 
ENDBRANCH  12  18
BRANCH  15  20
HETATM   20  C2  UNL     1      21.932   3.697  47.020  1.00  0.00     0.043 C 
HETATM   21  C1  UNL     1      21.810   3.634  45.709  1.00  0.00     0.035 C 
ENDBRANCH  15  20
BRANCH  16  22
HETATM   22  N7  UNL     1      22.671   2.281  49.422  1.00  0.00     0.116 N 
HETATM   23  H19 UNL     1      23.622   1.905  49.498  1.00  0.00     0.315 HD
HETATM   24  H20 UNL     1      21.919   1.623  49.686  1.00  0.00     0.315 HD
ENDBRANCH  16  22
ENDBRANCH  10  11
ENDBRANCH   1  10
BRANCH   3  25
HETATM   25  C10 UNL     1      26.719   0.522  53.391  1.00  0.00     0.076 A 
HETATM   26  C11 UNL     1      27.339  -0.712  53.240  1.00  0.00     0.131 A 
HETATM   27  N3  UNL     1      28.654  -0.584  53.475  1.00  0.00    -0.282 N 
HETATM   28  C12 UNL     1      29.764  -1.542  53.456  1.00  0.00     0.179 C 
HETATM   29  N4  UNL     1      28.889   0.687  53.771  1.00  0.00    -0.154 NA
HETATM   30  C13 UNL     1      27.738   1.377  53.728  1.00  0.00     0.157 A 
BRANCH  30  31
HETATM   31  N5  UNL     1      27.513   2.754  53.971  1.00  0.00    -0.382 N 
HETATM   32  H15 UNL     1      27.174   3.573  53.434  1.00  0.00     0.157 HD
HETATM   33  H16 UNL     1      27.616   3.405  54.789  1.00  0.00     0.157 HD
ENDBRANCH  30  31
ENDBRANCH   3  25
TORSDOF 7
ENDMDL
MODEL 7
REMARK VINA RESULT:      -7.7      1.909      2.720
REMARK  7 active torsions:
REMARK  status: ('A' for Active; 'I' for Inactive)
REMARK    1  A    between atoms: C2_2  and  C3_3 
REMARK    2  A    between atoms: C5_7  and  O2_8 
REMARK    3  A    between atoms: C7_10  and  O3_11 
REMARK    4  A    between atoms: O3_11  and  C8_12 
REMARK    5  A    between atoms: C9_14  and  C10_15 
REMARK    6  A    between atoms: C13_20  and  N5_21 
REMARK    7  A    between atoms: C18_28  and  N7_29 
ROOT
HETATM    1  C8  UNL     1      23.658   3.181  52.486  1.00  0.00     0.181 A 
HETATM    2  N2  UNL     1      24.844   2.617  52.864  1.00  0.00    -0.203 NA
HETATM    3  C9  UNL     1      24.936   1.325  53.280  1.00  0.00     0.168 A 
HETATM    4  N6  UNL     1      23.857   0.492  53.352  1.00  0.00    -0.227 NA
HETATM    5  C14 UNL     1      22.663   1.023  52.983  1.00  0.00     0.077 A 
HETATM    6  C15 UNL     1      22.590   2.332  52.566  1.00  0.00     0.068 A 
HETATM    7  C16 UNL     1      21.176   2.284  52.331  1.00  0.00     0.053 A 
HETATM    8 CL1  UNL     1      19.891   3.324  51.781  1.00  0.00    -0.083 Cl
HETATM    9  C17 UNL     1      21.213   1.012  52.731  1.00  0.00     0.057 A 
ENDROOT
BRANCH   1  10
HETATM   10  O3  UNL     1      23.937   4.450  52.142  1.00  0.00    -0.321 OA
BRANCH  10  11
HETATM   11  C7  UNL     1      23.854   5.065  50.938  1.00  0.00     0.226 C 
HETATM   12  C5  UNL     1      24.538   4.255  49.811  1.00  0.00     0.183 C 
HETATM   13  C4  UNL     1      24.324   5.309  48.706  1.00  0.00     0.321 C 
HETATM   14  N1  UNL     1      24.660   6.565  49.391  1.00  0.00     0.145 N 
HETATM   15  C3  UNL     1      24.905   7.803  48.652  1.00  0.00     0.307 A 
HETATM   16  C18 UNL     1      24.682   6.341  50.827  1.00  0.00     0.492 C 
HETATM   17  O1  UNL     1      24.571   6.799  48.012  1.00  0.00    -0.121 OA
BRANCH  12  18
HETATM   18  O2  UNL     1      25.895   4.169  49.991  1.00  0.00    -0.386 OA
HETATM   19  C6  UNL     1      26.419   2.907  49.795  1.00  0.00     0.202 C 
ENDBRANCH  12  18
BRANCH  15  20
HETATM   20  C2  UNL     1      25.291   8.941  49.467  1.00  0.00     0.043 C 
HETATM   21  C1  UNL     1      25.792  10.011  48.882  1.00  0.00     0.035 C 
ENDBRANCH  15  20
BRANCH  16  22
HETATM   22  N7  UNL     1      24.063   7.414  51.583  1.00  0.00     0.116 N 
HETATM   23  H19 UNL     1      23.420   7.110  52.322  1.00  0.00     0.315 HD
HETATM   24  H20 UNL     1      24.722   8.161  51.858  1.00  0.00     0.315 HD
ENDBRANCH  16  22
ENDBRANCH  10  11
ENDBRANCH   1  10
BRANCH   3  25
HETATM   25  C10 UNL     1      26.161   0.680  53.701  1.00  0.00     0.076 A 
HETATM   26  C11 UNL     1      27.383   1.010  53.128  1.00  0.00     0.131 A 
HETATM   27  N3  UNL     1      28.354   0.274  53.689  1.00  0.00    -0.282 N 
HETATM   28  C12 UNL     1      29.803   0.211  53.473  1.00  0.00     0.179 C 
HETATM   29  N4  UNL     1      27.791  -0.511  54.597  1.00  0.00    -0.154 NA
HETATM   30  C13 UNL     1      26.468  -0.286  54.626  1.00  0.00     0.157 A 
BRANCH  30  31
HETATM   31  N5  UNL     1      25.476  -0.891  55.436  1.00  0.00    -0.382 N 
HETATM   32  H15 UNL     1      24.463  -1.099  55.366  1.00  0.00     0.157 HD
HETATM   33  H16 UNL     1      25.444  -1.334  56.387  1.00  0.00     0.157 HD
ENDBRANCH  30  31
ENDBRANCH   3  25
TORSDOF 7
ENDMDL
MODEL 8
REMARK VINA RESULT:      -7.6      3.119      6.879
REMARK  7 active torsions:
REMARK  status: ('A' for Active; 'I' for Inactive)
REMARK    1  A    between atoms: C2_2  and  C3_3 
REMARK    2  A    between atoms: C5_7  and  O2_8 
REMARK    3  A    between atoms: C7_10  and  O3_11 
REMARK    4  A    between atoms: O3_11  and  C8_12 
REMARK    5  A    between atoms: C9_14  and  C10_15 
REMARK    6  A    between atoms: C13_20  and  N5_21 
REMARK    7  A    between atoms: C18_28  and  N7_29 
ROOT
HETATM    1  C8  UNL     1      23.169   0.741  52.316  1.00  0.00     0.181 A 
HETATM    2  N2  UNL     1      22.572   1.463  51.321  1.00  0.00    -0.203 NA
HETATM    3  C9  UNL     1      21.224   1.637  51.256  1.00  0.00     0.168 A 
HETATM    4  N6  UNL     1      20.364   1.108  52.176  1.00  0.00    -0.227 NA
HETATM    5  C14 UNL     1      20.928   0.385  53.177  1.00  0.00     0.077 A 
HETATM    6  C15 UNL     1      22.293   0.220  53.225  1.00  0.00     0.068 A 
HETATM    7  C16 UNL     1      22.257  -0.568  54.423  1.00  0.00     0.053 A 
HETATM    8 CL1  UNL     1      23.354  -1.385  55.502  1.00  0.00    -0.083 Cl
HETATM    9  C17 UNL     1      20.931  -0.427  54.405  1.00  0.00     0.057 A 
ENDROOT
BRANCH   1  10
HETATM   10  O3  UNL     1      24.490   0.778  52.067  1.00  0.00    -0.321 OA
BRANCH  10  11
HETATM   11  C7  UNL     1      25.524   1.082  52.888  1.00  0.00     0.226 C 
HETATM   12  C5  UNL     1      26.243   2.389  52.475  1.00  0.00     0.183 C 
HETATM   13  C4  UNL     1      27.356   2.300  53.539  1.00  0.00     0.321 C 
HETATM   14  N1  UNL     1      27.735   0.881  53.488  1.00  0.00     0.145 N 
HETATM   15  C3  UNL     1      28.970   0.393  54.100  1.00  0.00     0.307 A 
HETATM   16  C18 UNL     1      26.712   0.132  52.778  1.00  0.00     0.492 C 
HETATM   17  O1  UNL     1      28.688   1.589  54.233  1.00  0.00    -0.121 OA
BRANCH  12  18
HETATM   18  O2  UNL     1      26.871   2.269  51.263  1.00  0.00    -0.386 OA
HETATM   19  C6  UNL     1      26.487   3.205  50.324  1.00  0.00     0.202 C 
ENDBRANCH  12  18
BRANCH  15  20
HETATM   20  C2  UNL     1      29.238  -1.022  53.907  1.00  0.00     0.043 C 
HETATM   21  C1  UNL     1      30.486  -1.444  53.883  1.00  0.00     0.035 C 
ENDBRANCH  15  20
BRANCH  16  22
HETATM   22  N7  UNL     1      26.400  -1.142  53.400  1.00  0.00     0.116 N 
HETATM   23  H19 UNL     1      27.203  -1.760  53.553  1.00  0.00     0.315 HD
HETATM   24  H20 UNL     1      25.752  -1.063  54.202  1.00  0.00     0.315 HD
ENDBRANCH  16  22
ENDBRANCH  10  11
ENDBRANCH   1  10
BRANCH   3  25
HETATM   25  C10 UNL     1      20.539   2.381  50.222  1.00  0.00     0.076 A 
HETATM   26  C11 UNL     1      20.998   3.623  49.802  1.00  0.00     0.131 A 
HETATM   27  N3  UNL     1      20.190   4.098  48.843  1.00  0.00    -0.282 N 
HETATM   28  C12 UNL     1      20.201   5.337  48.058  1.00  0.00     0.179 C 
HETATM   29  N4  UNL     1      19.235   3.202  48.639  1.00  0.00    -0.154 NA
HETATM   30  C13 UNL     1      19.420   2.155  49.459  1.00  0.00     0.157 A 
BRANCH  30  31
HETATM   31  N5  UNL     1      18.651   0.973  49.587  1.00  0.00    -0.382 N 
HETATM   32  H15 UNL     1      17.663   0.729  49.786  1.00  0.00     0.157 HD
HETATM   33  H16 UNL     1      18.833  -0.059  49.521  1.00  0.00     0.157 HD
ENDBRANCH  30  31
ENDBRANCH   3  25
TORSDOF 7
ENDMDL
MODEL 9
REMARK VINA RESULT:      -7.5      5.386      8.766
REMARK  7 active torsions:
REMARK  status: ('A' for Active; 'I' for Inactive)
REMARK    1  A    between atoms: C2_2  and  C3_3 
REMARK    2  A    between atoms: C5_7  and  O2_8 
REMARK    3  A    between atoms: C7_10  and  O3_11 
REMARK    4  A    between atoms: O3_11  and  C8_12 
REMARK    5  A    between atoms: C9_14  and  C10_15 
REMARK    6  A    between atoms: C13_20  and  N5_21 
REMARK    7  A    between atoms: C18_28  and  N7_29 
ROOT
HETATM    1  C8  UNL     1      28.730   5.544  48.289  1.00  0.00     0.181 A 
HETATM    2  N2  UNL     1      27.912   4.636  48.898  1.00  0.00    -0.203 NA
HETATM    3  C9  UNL     1      26.577   4.849  49.054  1.00  0.00     0.168 A 
HETATM    4  N6  UNL     1      25.951   5.981  48.617  1.00  0.00    -0.227 NA
HETATM    5  C14 UNL     1      26.739   6.903  48.007  1.00  0.00     0.077 A 
HETATM    6  C15 UNL     1      28.086   6.670  47.859  1.00  0.00     0.068 A 
HETATM    7  C16 UNL     1      28.332   7.914  47.189  1.00  0.00     0.053 A 
HETATM    8 CL1  UNL     1      29.657   8.798  46.484  1.00  0.00    -0.083 Cl
HETATM    9  C17 UNL     1      27.029   8.170  47.316  1.00  0.00     0.057 A 
ENDROOT
BRANCH   1  10
HETATM   10  O3  UNL     1      29.965   5.012  48.311  1.00  0.00    -0.321 OA
BRANCH  10  11
HETATM   11  C7  UNL     1      31.053   5.303  47.559  1.00  0.00     0.226 C 
HETATM   12  C5  UNL     1      31.753   4.034  47.016  1.00  0.00     0.183 C 
HETATM   13  C4  UNL     1      32.934   4.776  46.356  1.00  0.00     0.321 C 
HETATM   14  N1  UNL     1      33.298   5.770  47.375  1.00  0.00     0.145 N 
HETATM   15  C3  UNL     1      34.567   6.495  47.324  1.00  0.00     0.307 A 
HETATM   16  C18 UNL     1      32.224   5.881  48.348  1.00  0.00     0.492 C 
HETATM   17  O1  UNL     1      34.304   5.715  46.401  1.00  0.00    -0.121 OA
BRANCH  12  18
HETATM   18  O2  UNL     1      32.299   3.278  48.020  1.00  0.00    -0.386 OA
HETATM   19  C6  UNL     1      33.090   2.234  47.585  1.00  0.00     0.202 C 
ENDBRANCH  12  18
BRANCH  15  20
HETATM   20  C2  UNL     1      34.810   7.393  48.439  1.00  0.00     0.043 C 
HETATM   21  C1  UNL     1      35.338   8.579  48.208  1.00  0.00     0.035 C 
ENDBRANCH  15  20
BRANCH  16  22
HETATM   22  N7  UNL     1      31.944   7.251  48.738  1.00  0.00     0.116 N 
HETATM   23  H19 UNL     1      31.969   7.934  47.974  1.00  0.00     0.315 HD
HETATM   24  H20 UNL     1      31.138   7.342  49.379  1.00  0.00     0.315 HD
ENDBRANCH  16  22
ENDBRANCH  10  11
ENDBRANCH   1  10
BRANCH   3  25
HETATM   25  C10 UNL     1      25.665   3.928  49.699  1.00  0.00     0.076 A 
HETATM   26  C11 UNL     1      24.376   3.736  49.221  1.00  0.00     0.131 A 
HETATM   27  N3  UNL     1      23.741   2.840  49.991  1.00  0.00    -0.282 N 
HETATM   28  C12 UNL     1      22.390   2.272  49.947  1.00  0.00     0.179 C 
HETATM   29  N4  UNL     1      24.582   2.457  50.942  1.00  0.00    -0.154 NA
HETATM   30  C13 UNL     1      25.752   3.098  50.790  1.00  0.00     0.157 A 
BRANCH  30  31
HETATM   31  N5  UNL     1      26.931   3.003  51.567  1.00  0.00    -0.382 N 
HETATM   32  H15 UNL     1      27.932   2.787  51.404  1.00  0.00     0.157 HD
HETATM   33  H16 UNL     1      27.181   3.121  52.581  1.00  0.00     0.157 HD
ENDBRANCH  30  31
ENDBRANCH   3  25
TORSDOF 7
ENDMDL
