MODEL 1
REMARK VINA RESULT:      -8.7      0.000      0.000
REMARK  6 active torsions:
REMARK  status: ('A' for Active; 'I' for Inactive)
REMARK    1  A    between atoms: C1_2  and  O2_3 
REMARK    2  A    between atoms: O2_3  and  C2_4 
REMARK    3  A    between atoms: C6_9  and  C7_10 
REMARK    4  A    between atoms: C16_22  and  C17_23 
REMARK    5  A    between atoms: C18_24  and  C19_25 
REMARK    6  A    between atoms: C19_25  and  N3_26 
ROOT
HETATM    1  C2  UNL     1      20.645   1.098  52.939  1.00  0.00     0.210 C 
HETATM    2  C3  UNL     1      22.062   1.328  52.735  1.00  0.00     0.077 A 
HETATM    3  N1  UNL     1      22.188   2.480  52.011  1.00  0.00    -0.262 NA
HETATM    4  C4  UNL     1      23.363   2.979  51.641  1.00  0.00     0.118 A 
HETATM    5  C5  UNL     1      24.523   2.309  52.000  1.00  0.00     0.032 A 
HETATM    6  C6  UNL     1      24.505   1.121  52.740  1.00  0.00    -0.012 A 
HETATM    7  C13 UNL     1      23.252   0.714  53.057  1.00  0.00     0.004 A 
HETATM    8  C14 UNL     1      23.320  -0.509  53.849  1.00  0.00     0.031 C 
HETATM    9  C15 UNL     1      22.331  -1.364  54.170  1.00  0.00     0.084 C 
HETATM   10  N2  UNL     1      20.941  -1.239  53.780  1.00  0.00    -0.388 N 
HETATM   11  C16 UNL     1      20.172  -0.051  53.708  1.00  0.00     0.139 C 
HETATM   12  H10 UNL     1      20.518  -2.189  53.538  1.00  0.00     0.159 HD
ENDROOT
BRANCH   6  13
HETATM   13  C7  UNL     1      25.756   0.455  53.052  1.00  0.00    -0.023 A 
HETATM   14  C8  UNL     1      26.540   1.326  53.819  1.00  0.00     0.015 A 
HETATM   15  C9  UNL     1      27.818   0.953  54.252  1.00  0.00     0.045 A 
HETATM   16  C10 UNL     1      28.325  -0.286  53.927  1.00  0.00     0.138 A 
HETATM   17  F1  UNL     1      29.552  -0.712  54.314  1.00  0.00    -0.204 F 
HETATM   18  C11 UNL     1      27.549  -1.142  53.172  1.00  0.00     0.073 A 
HETATM   19 CL1  UNL     1      28.066  -2.736  52.692  1.00  0.00    -0.081 Cl
HETATM   20  C12 UNL     1      26.291  -0.788  52.739  1.00  0.00     0.039 A 
ENDBRANCH   6  13
BRANCH   1  21
HETATM   21  O2  UNL     1      20.024   1.158  51.643  1.00  0.00    -0.314 OA
BRANCH  21  22
HETATM   22  C1  UNL     1      19.188   2.186  51.303  1.00  0.00     0.398 C 
HETATM   23  O1  UNL     1      18.795   3.118  52.055  1.00  0.00    -0.276 OA
ENDBRANCH  21  22
ENDBRANCH   1  21
BRANCH  11  24
HETATM   24  C17 UNL     1      18.836  -0.443  53.114  1.00  0.00    -0.001 C 
HETATM   25  C18 UNL     1      18.133  -1.507  53.469  1.00  0.00     0.001 C 
BRANCH  25  26
HETATM   26  C19 UNL     1      16.847  -1.770  52.807  1.00  0.00     0.302 C 
BRANCH  26  27
HETATM   27  N3  UNL     1      16.542  -3.170  52.681  1.00  0.00     0.116 N 
HETATM   28  C20 UNL     1      15.104  -3.442  52.715  1.00  0.00     0.301 C 
HETATM   29  C21 UNL     1      15.132  -4.909  53.125  1.00  0.00     0.200 C 
HETATM   30  O3  UNL     1      16.152  -4.946  54.044  1.00  0.00    -0.361 OA
HETATM   31  C22 UNL     1      17.084  -3.970  53.738  1.00  0.00     0.440 C 
ENDBRANCH  26  27
ENDBRANCH  25  26
ENDBRANCH  11  24
TORSDOF 6
ENDMDL
MODEL 2
REMARK VINA RESULT:      -8.6      2.141      2.770
REMARK  6 active torsions:
REMARK  status: ('A' for Active; 'I' for Inactive)
REMARK    1  A    between atoms: C1_2  and  O2_3 
REMARK    2  A    between atoms: O2_3  and  C2_4 
REMARK    3  A    between atoms: C6_9  and  C7_10 
REMARK    4  A    between atoms: C16_22  and  C17_23 
REMARK    5  A    between atoms: C18_24  and  C19_25 
REMARK    6  A    between atoms: C19_25  and  N3_26 
ROOT
HETATM    1  C2  UNL     1      22.216   2.652  51.379  1.00  0.00     0.210 C 
HETATM    2  C3  UNL     1      23.657   2.499  51.367  1.00  0.00     0.077 A 
HETATM    3  N1  UNL     1      24.162   3.456  50.533  1.00  0.00    -0.262 NA
HETATM    4  C4  UNL     1      25.461   3.593  50.289  1.00  0.00     0.118 A 
HETATM    5  C5  UNL     1      26.357   2.729  50.902  1.00  0.00     0.032 A 
HETATM    6  C6  UNL     1      25.945   1.713  51.772  1.00  0.00    -0.012 A 
HETATM    7  C13 UNL     1      24.600   1.676  51.941  1.00  0.00     0.004 A 
HETATM    8  C14 UNL     1      24.255   0.614  52.880  1.00  0.00     0.031 C 
HETATM    9  C15 UNL     1      23.047   0.084  53.148  1.00  0.00     0.084 C 
HETATM   10  N2  UNL     1      21.793   0.477  52.538  1.00  0.00    -0.388 N 
HETATM   11  C16 UNL     1      21.374   1.788  52.203  1.00  0.00     0.139 C 
HETATM   12  H10 UNL     1      21.169  -0.370  52.354  1.00  0.00     0.159 HD
ENDROOT
BRANCH   6  13
HETATM   13  C7  UNL     1      26.933   0.824  52.351  1.00  0.00    -0.023 A 
HETATM   14  C8  UNL     1      27.913   1.603  52.980  1.00  0.00     0.015 A 
HETATM   15  C9  UNL     1      29.010   1.009  53.613  1.00  0.00     0.045 A 
HETATM   16  C10 UNL     1      29.141  -0.363  53.629  1.00  0.00     0.138 A 
HETATM   17  F1  UNL     1      30.177  -1.004  54.224  1.00  0.00    -0.204 F 
HETATM   18  C11 UNL     1      28.174  -1.128  53.010  1.00  0.00     0.073 A 
HETATM   19 CL1  UNL     1      28.216  -2.869  52.956  1.00  0.00    -0.081 Cl
HETATM   20  C12 UNL     1      27.090  -0.556  52.382  1.00  0.00     0.039 A 
ENDBRANCH   6  13
BRANCH   1  21
HETATM   21  O2  UNL     1      21.787   2.654  50.006  1.00  0.00    -0.314 OA
BRANCH  21  22
HETATM   22  C1  UNL     1      22.259   1.733  49.112  1.00  0.00     0.398 C 
HETATM   23  O1  UNL     1      21.571   0.935  48.419  1.00  0.00    -0.276 OA
ENDBRANCH  21  22
ENDBRANCH   1  21
BRANCH  11  24
HETATM   24  C17 UNL     1      20.060   1.640  51.464  1.00  0.00    -0.001 C 
HETATM   25  C18 UNL     1      19.451   0.489  51.228  1.00  0.00     0.001 C 
BRANCH  25  26
HETATM   26  C19 UNL     1      18.176   0.489  50.496  1.00  0.00     0.302 C 
BRANCH  26  27
HETATM   27  N3  UNL     1      17.115  -0.191  51.191  1.00  0.00     0.116 N 
HETATM   28  C20 UNL     1      16.082   0.723  51.682  1.00  0.00     0.301 C 
HETATM   29  C21 UNL     1      15.476  -0.143  52.778  1.00  0.00     0.200 C 
HETATM   30  O3  UNL     1      16.578  -0.751  53.327  1.00  0.00    -0.361 OA
HETATM   31  C22 UNL     1      17.556  -0.894  52.358  1.00  0.00     0.440 C 
ENDBRANCH  26  27
ENDBRANCH  25  26
ENDBRANCH  11  24
TORSDOF 6
ENDMDL
MODEL 3
REMARK VINA RESULT:      -8.6      6.065     10.638
REMARK  6 active torsions:
REMARK  status: ('A' for Active; 'I' for Inactive)
REMARK    1  A    between atoms: C1_2  and  O2_3 
REMARK    2  A    between atoms: O2_3  and  C2_4 
REMARK    3  A    between atoms: C6_9  and  C7_10 
REMARK    4  A    between atoms: C16_22  and  C17_23 
REMARK    5  A    between atoms: C18_24  and  C19_25 
REMARK    6  A    between atoms: C19_25  and  N3_26 
ROOT
HETATM    1  C2  UNL     1      25.421   6.134  49.519  1.00  0.00     0.210 C 
HETATM    2  C3  UNL     1      24.569   5.379  50.417  1.00  0.00     0.077 A 
HETATM    3  N1  UNL     1      23.660   6.251  50.944  1.00  0.00    -0.262 NA
HETATM    4  C4  UNL     1      22.727   5.885  51.817  1.00  0.00     0.118 A 
HETATM    5  C5  UNL     1      22.664   4.559  52.220  1.00  0.00     0.032 A 
HETATM    6  C6  UNL     1      23.549   3.586  51.742  1.00  0.00    -0.012 A 
HETATM    7  C13 UNL     1      24.451   4.081  50.860  1.00  0.00     0.004 A 
HETATM    8  C14 UNL     1      25.315   3.004  50.387  1.00  0.00     0.031 C 
HETATM    9  C15 UNL     1      26.469   3.087  49.700  1.00  0.00     0.084 C 
HETATM   10  N2  UNL     1      27.114   4.309  49.268  1.00  0.00    -0.388 N 
HETATM   11  C16 UNL     1      26.491   5.480  48.768  1.00  0.00     0.139 C 
HETATM   12  H10 UNL     1      28.176   4.243  49.364  1.00  0.00     0.159 HD
ENDROOT
BRANCH   6  13
HETATM   13  C7  UNL     1      23.448   2.225  52.233  1.00  0.00    -0.023 A 
HETATM   14  C8  UNL     1      22.278   1.655  51.714  1.00  0.00     0.015 A 
HETATM   15  C9  UNL     1      21.910   0.344  52.037  1.00  0.00     0.045 A 
HETATM   16  C10 UNL     1      22.701  -0.410  52.875  1.00  0.00     0.138 A 
HETATM   17  F1  UNL     1      22.406  -1.685  53.228  1.00  0.00    -0.204 F 
HETATM   18  C11 UNL     1      23.853   0.154  53.384  1.00  0.00     0.073 A 
HETATM   19 CL1  UNL     1      24.943  -0.687  54.453  1.00  0.00    -0.081 Cl
HETATM   20  C12 UNL     1      24.226   1.442  53.075  1.00  0.00     0.039 A 
ENDBRANCH   6  13
BRANCH   1  21
HETATM   21  O2  UNL     1      25.913   7.263  50.263  1.00  0.00    -0.314 OA
BRANCH  21  22
HETATM   22  C1  UNL     1      25.530   8.539  49.954  1.00  0.00     0.398 C 
HETATM   23  O1  UNL     1      26.182   9.595  50.176  1.00  0.00    -0.276 OA
ENDBRANCH  21  22
ENDBRANCH   1  21
BRANCH  11  24
HETATM   24  C17 UNL     1      27.588   6.509  48.601  1.00  0.00    -0.001 C 
HETATM   25  C18 UNL     1      28.820   6.244  48.194  1.00  0.00     0.001 C 
BRANCH  25  26
HETATM   26  C19 UNL     1      29.789   7.342  48.077  1.00  0.00     0.302 C 
BRANCH  26  27
HETATM   27  N3  UNL     1      31.158   6.902  48.073  1.00  0.00     0.116 N 
HETATM   28  C20 UNL     1      31.300   5.496  47.689  1.00  0.00     0.301 C 
HETATM   29  C21 UNL     1      32.662   5.200  48.303  1.00  0.00     0.200 C 
HETATM   30  O3  UNL     1      32.611   5.884  49.493  1.00  0.00    -0.361 OA
HETATM   31  C22 UNL     1      31.790   6.988  49.356  1.00  0.00     0.440 C 
ENDBRANCH  26  27
ENDBRANCH  25  26
ENDBRANCH  11  24
TORSDOF 6
ENDMDL
MODEL 4
REMARK VINA RESULT:      -8.2      5.292     10.018
REMARK  6 active torsions:
REMARK  status: ('A' for Active; 'I' for Inactive)
REMARK    1  A    between atoms: C1_2  and  O2_3 
REMARK    2  A    between atoms: O2_3  and  C2_4 
REMARK    3  A    between atoms: C6_9  and  C7_10 
REMARK    4  A    between atoms: C16_22  and  C17_23 
REMARK    5  A    between atoms: C18_24  and  C19_25 
REMARK    6  A    between atoms: C19_25  and  N3_26 
ROOT
HETATM    1  C2  UNL     1      25.004   2.312  51.963  1.00  0.00     0.210 C 
HETATM    2  C3  UNL     1      23.963   1.397  52.387  1.00  0.00     0.077 A 
HETATM    3  N1  UNL     1      24.522   0.531  53.284  1.00  0.00    -0.262 NA
HETATM    4  C4  UNL     1      23.839  -0.449  53.867  1.00  0.00     0.118 A 
HETATM    5  C5  UNL     1      22.496  -0.611  53.559  1.00  0.00     0.032 A 
HETATM    6  C6  UNL     1      21.828   0.220  52.653  1.00  0.00    -0.012 A 
HETATM    7  C13 UNL     1      22.628   1.179  52.126  1.00  0.00     0.004 A 
HETATM    8  C14 UNL     1      21.854   2.018  51.218  1.00  0.00     0.031 C 
HETATM    9  C15 UNL     1      22.293   2.921  50.321  1.00  0.00     0.084 C 
HETATM   10  N2  UNL     1      23.678   3.259  50.066  1.00  0.00    -0.388 N 
HETATM   11  C16 UNL     1      24.721   3.389  51.016  1.00  0.00     0.139 C 
HETATM   12  H10 UNL     1      23.854   3.417  49.024  1.00  0.00     0.159 HD
ENDROOT
BRANCH   6  13
HETATM   13  C7  UNL     1      20.431  -0.028  52.352  1.00  0.00    -0.023 A 
HETATM   14  C8  UNL     1      19.863  -0.716  53.432  1.00  0.00     0.015 A 
HETATM   15  C9  UNL     1      18.519  -1.107  53.410  1.00  0.00     0.045 A 
HETATM   16  C10 UNL     1      17.731  -0.817  52.318  1.00  0.00     0.138 A 
HETATM   17  F1  UNL     1      16.423  -1.165  52.232  1.00  0.00    -0.204 F 
HETATM   18  C11 UNL     1      18.293  -0.139  51.257  1.00  0.00     0.073 A 
HETATM   19 CL1  UNL     1      17.412   0.292  49.817  1.00  0.00    -0.081 Cl
HETATM   20  C12 UNL     1      19.613   0.251  51.264  1.00  0.00     0.039 A 
ENDBRANCH   6  13
BRANCH   1  21
HETATM   21  O2  UNL     1      26.115   1.507  51.531  1.00  0.00    -0.314 OA
BRANCH  21  22
HETATM   22  C1  UNL     1      27.233   1.363  52.305  1.00  0.00     0.398 C 
HETATM   23  O1  UNL     1      28.118   2.234  52.518  1.00  0.00    -0.276 OA
ENDBRANCH  21  22
ENDBRANCH   1  21
BRANCH  11  24
HETATM   24  C17 UNL     1      25.993   3.609  50.226  1.00  0.00    -0.001 C 
HETATM   25  C18 UNL     1      26.212   4.631  49.413  1.00  0.00     0.001 C 
BRANCH  25  26
HETATM   26  C19 UNL     1      27.497   4.722  48.705  1.00  0.00     0.302 C 
BRANCH  26  27
HETATM   27  N3  UNL     1      27.764   6.029  48.167  1.00  0.00     0.116 N 
HETATM   28  C20 UNL     1      29.185   6.382  48.214  1.00  0.00     0.301 C 
HETATM   29  C21 UNL     1      29.073   7.899  48.140  1.00  0.00     0.200 C 
HETATM   30  O3  UNL     1      27.978   8.160  48.927  1.00  0.00    -0.361 OA
HETATM   31  C22 UNL     1      27.109   7.085  48.879  1.00  0.00     0.440 C 
ENDBRANCH  26  27
ENDBRANCH  25  26
ENDBRANCH  11  24
TORSDOF 6
ENDMDL
MODEL 5
REMARK VINA RESULT:      -8.1      3.815      5.164
REMARK  6 active torsions:
REMARK  status: ('A' for Active; 'I' for Inactive)
REMARK    1  A    between atoms: C1_2  and  O2_3 
REMARK    2  A    between atoms: O2_3  and  C2_4 
REMARK    3  A    between atoms: C6_9  and  C7_10 
REMARK    4  A    between atoms: C16_22  and  C17_23 
REMARK    5  A    between atoms: C18_24  and  C19_25 
REMARK    6  A    between atoms: C19_25  and  N3_26 
ROOT
HETATM    1  C2  UNL     1      21.871   0.129  52.266  1.00  0.00     0.210 C 
HETATM    2  C3  UNL     1      23.078   0.925  52.159  1.00  0.00     0.077 A 
HETATM    3  N1  UNL     1      23.920   0.523  53.157  1.00  0.00    -0.262 NA
HETATM    4  C4  UNL     1      25.122   1.057  53.350  1.00  0.00     0.118 A 
HETATM    5  C5  UNL     1      25.552   2.071  52.506  1.00  0.00     0.032 A 
HETATM    6  C6  UNL     1      24.767   2.557  51.455  1.00  0.00    -0.012 A 
HETATM    7  C13 UNL     1      23.567   1.934  51.360  1.00  0.00     0.004 A 
HETATM    8  C14 UNL     1      22.823   2.475  50.228  1.00  0.00     0.031 C 
HETATM    9  C15 UNL     1      21.523   2.315  49.917  1.00  0.00     0.084 C 
HETATM   10  N2  UNL     1      20.559   1.541  50.672  1.00  0.00    -0.388 N 
HETATM   11  C16 UNL     1      20.771   0.298  51.319  1.00  0.00     0.139 C 
HETATM   12  H10 UNL     1      19.606   2.024  50.696  1.00  0.00     0.159 HD
ENDROOT
BRANCH   6  13
HETATM   13  C7  UNL     1      25.266   3.643  50.633  1.00  0.00    -0.023 A 
HETATM   14  C8  UNL     1      26.388   3.185  49.930  1.00  0.00     0.015 A 
HETATM   15  C9  UNL     1      27.092   4.031  49.066  1.00  0.00     0.045 A 
HETATM   16  C10 UNL     1      26.687   5.336  48.893  1.00  0.00     0.138 A 
HETATM   17  F1  UNL     1      27.322   6.209  48.072  1.00  0.00    -0.204 F 
HETATM   18  C11 UNL     1      25.582   5.784  49.586  1.00  0.00     0.073 A 
HETATM   19 CL1  UNL     1      24.962   7.408  49.459  1.00  0.00    -0.081 Cl
HETATM   20  C12 UNL     1      24.880   4.963  50.439  1.00  0.00     0.039 A 
ENDBRANCH   6  13
BRANCH   1  21
HETATM   21  O2  UNL     1      21.418   0.242  53.627  1.00  0.00    -0.314 OA
BRANCH  21  22
HETATM   22  C1  UNL     1      21.246  -0.863  54.414  1.00  0.00     0.398 C 
HETATM   23  O1  UNL     1      22.084  -1.350  55.220  1.00  0.00    -0.276 OA
ENDBRANCH  21  22
ENDBRANCH   1  21
BRANCH  11  24
HETATM   24  C17 UNL     1      19.499  -0.009  52.080  1.00  0.00    -0.001 C 
HETATM   25  C18 UNL     1      18.315  -0.213  51.525  1.00  0.00     0.001 C 
BRANCH  25  26
HETATM   26  C19 UNL     1      17.159  -0.503  52.386  1.00  0.00     0.302 C 
BRANCH  26  27
HETATM   27  N3  UNL     1      15.958   0.178  51.982  1.00  0.00     0.116 N 
HETATM   28  C20 UNL     1      16.188   1.585  51.648  1.00  0.00     0.301 C 
HETATM   29  C21 UNL     1      14.775   2.123  51.825  1.00  0.00     0.200 C 
HETATM   30  O3  UNL     1      14.330   1.446  52.934  1.00  0.00    -0.361 OA
HETATM   31  C22 UNL     1      14.950   0.211  52.999  1.00  0.00     0.440 C 
ENDBRANCH  26  27
ENDBRANCH  25  26
ENDBRANCH  11  24
TORSDOF 6
ENDMDL
MODEL 6
REMARK VINA RESULT:      -8.0      5.036      9.211
REMARK  6 active torsions:
REMARK  status: ('A' for Active; 'I' for Inactive)
REMARK    1  A    between atoms: C1_2  and  O2_3 
REMARK    2  A    between atoms: O2_3  and  C2_4 
REMARK    3  A    between atoms: C6_9  and  C7_10 
REMARK    4  A    between atoms: C16_22  and  C17_23 
REMARK    5  A    between atoms: C18_24  and  C19_25 
REMARK    6  A    between atoms: C19_25  and  N3_26 
ROOT
HETATM    1  C2  UNL     1      23.733   4.506  50.003  1.00  0.00     0.210 C 
HETATM    2  C3  UNL     1      23.976   3.461  50.979  1.00  0.00     0.077 A 
HETATM    3  N1  UNL     1      22.834   3.317  51.715  1.00  0.00    -0.262 NA
HETATM    4  C4  UNL     1      22.717   2.441  52.707  1.00  0.00     0.118 A 
HETATM    5  C5  UNL     1      23.797   1.630  53.021  1.00  0.00     0.032 A 
HETATM    6  C6  UNL     1      25.013   1.697  52.331  1.00  0.00    -0.012 A 
HETATM    7  C13 UNL     1      25.008   2.626  51.344  1.00  0.00     0.004 A 
HETATM    8  C14 UNL     1      26.295   2.614  50.656  1.00  0.00     0.031 C 
HETATM    9  C15 UNL     1      26.796   3.512  49.787  1.00  0.00     0.084 C 
HETATM   10  N2  UNL     1      26.135   4.720  49.339  1.00  0.00    -0.388 N 
HETATM   11  C16 UNL     1      24.760   4.886  49.036  1.00  0.00     0.139 C 
HETATM   12  H10 UNL     1      26.825   5.530  49.246  1.00  0.00     0.159 HD
ENDROOT
BRANCH   6  13
HETATM   13  C7  UNL     1      26.112   0.842  52.735  1.00  0.00    -0.023 A 
HETATM   14  C8  UNL     1      27.032   1.616  53.454  1.00  0.00     0.015 A 
HETATM   15  C9  UNL     1      28.211   1.054  53.956  1.00  0.00     0.045 A 
HETATM   16  C10 UNL     1      28.485  -0.280  53.749  1.00  0.00     0.138 A 
HETATM   17  F1  UNL     1      29.605  -0.890  54.207  1.00  0.00    -0.204 F 
HETATM   18  C11 UNL     1      27.576  -1.040  53.040  1.00  0.00     0.073 A 
HETATM   19 CL1  UNL     1      27.797  -2.737  52.708  1.00  0.00    -0.081 Cl
HETATM   20  C12 UNL     1      26.413  -0.500  52.541  1.00  0.00     0.039 A 
ENDBRANCH   6  13
BRANCH   1  21
HETATM   21  O2  UNL     1      23.243   5.647  50.730  1.00  0.00    -0.314 OA
BRANCH  21  22
HETATM   22  C1  UNL     1      21.929   6.017  50.669  1.00  0.00     0.398 C 
HETATM   23  O1  UNL     1      21.097   5.697  49.777  1.00  0.00    -0.276 OA
ENDBRANCH  21  22
ENDBRANCH   1  21
BRANCH  11  24
HETATM   24  C17 UNL     1      24.560   6.360  48.756  1.00  0.00    -0.001 C 
HETATM   25  C18 UNL     1      25.416   7.130  48.102  1.00  0.00     0.001 C 
BRANCH  25  26
HETATM   26  C19 UNL     1      25.094   8.550  47.901  1.00  0.00     0.302 C 
BRANCH  26  27
HETATM   27  N3  UNL     1      26.249   9.408  47.923  1.00  0.00     0.116 N 
HETATM   28  C20 UNL     1      27.380   8.817  48.641  1.00  0.00     0.301 C 
HETATM   29  C21 UNL     1      28.160  10.083  48.973  1.00  0.00     0.200 C 
HETATM   30  O3  UNL     1      27.165  10.976  49.288  1.00  0.00    -0.361 OA
HETATM   31  C22 UNL     1      26.019  10.658  48.583  1.00  0.00     0.440 C 
ENDBRANCH  26  27
ENDBRANCH  25  26
ENDBRANCH  11  24
TORSDOF 6
ENDMDL
MODEL 7
REMARK VINA RESULT:      -7.9      3.570      5.279
REMARK  6 active torsions:
REMARK  status: ('A' for Active; 'I' for Inactive)
REMARK    1  A    between atoms: C1_2  and  O2_3 
REMARK    2  A    between atoms: O2_3  and  C2_4 
REMARK    3  A    between atoms: C6_9  and  C7_10 
REMARK    4  A    between atoms: C16_22  and  C17_23 
REMARK    5  A    between atoms: C18_24  and  C19_25 
REMARK    6  A    between atoms: C19_25  and  N3_26 
ROOT
HETATM    1  C2  UNL     1      22.064   1.963  51.313  1.00  0.00     0.210 C 
HETATM    2  C3  UNL     1      23.004   1.188  52.100  1.00  0.00     0.077 A 
HETATM    3  N1  UNL     1      22.281   0.286  52.826  1.00  0.00    -0.262 NA
HETATM    4  C4  UNL     1      22.838  -0.583  53.665  1.00  0.00     0.118 A 
HETATM    5  C5  UNL     1      24.216  -0.582  53.818  1.00  0.00     0.032 A 
HETATM    6  C6  UNL     1      25.049   0.302  53.122  1.00  0.00    -0.012 A 
HETATM    7  C13 UNL     1      24.366   1.135  52.301  1.00  0.00     0.004 A 
HETATM    8  C14 UNL     1      25.302   2.001  51.592  1.00  0.00     0.031 C 
HETATM    9  C15 UNL     1      25.049   3.109  50.872  1.00  0.00     0.084 C 
HETATM   10  N2  UNL     1      23.743   3.691  50.641  1.00  0.00    -0.388 N 
HETATM   11  C16 UNL     1      22.526   3.005  50.399  1.00  0.00     0.139 C 
HETATM   12  H10 UNL     1      23.782   4.758  50.667  1.00  0.00     0.159 HD
ENDROOT
BRANCH   6  13
HETATM   13  C7  UNL     1      26.480   0.270  53.357  1.00  0.00    -0.023 A 
HETATM   14  C8  UNL     1      26.969  -0.973  52.935  1.00  0.00     0.015 A 
HETATM   15  C9  UNL     1      28.325  -1.294  53.059  1.00  0.00     0.045 A 
HETATM   16  C10 UNL     1      29.205  -0.384  53.602  1.00  0.00     0.138 A 
HETATM   17  F1  UNL     1      30.530  -0.629  53.751  1.00  0.00    -0.204 F 
HETATM   18  C11 UNL     1      28.721   0.840  54.017  1.00  0.00     0.073 A 
HETATM   19 CL1  UNL     1      29.722   2.081  54.718  1.00  0.00    -0.081 Cl
HETATM   20  C12 UNL     1      27.389   1.168  53.901  1.00  0.00     0.039 A 
ENDBRANCH   6  13
BRANCH   1  21
HETATM   21  O2  UNL     1      21.072   2.463  52.227  1.00  0.00    -0.314 OA
BRANCH  21  22
HETATM   22  C1  UNL     1      19.795   1.974  52.228  1.00  0.00     0.398 C 
HETATM   23  O1  UNL     1      19.200   1.421  51.264  1.00  0.00    -0.276 OA
ENDBRANCH  21  22
ENDBRANCH   1  21
BRANCH  11  24
HETATM   24  C17 UNL     1      21.441   4.060  50.369  1.00  0.00    -0.001 C 
HETATM   25  C18 UNL     1      20.835   4.492  49.274  1.00  0.00     0.001 C 
BRANCH  25  26
HETATM   26  C19 UNL     1      19.795   5.524  49.388  1.00  0.00     0.302 C 
BRANCH  26  27
HETATM   27  N3  UNL     1      18.466   5.029  49.145  1.00  0.00     0.116 N 
HETATM   28  C20 UNL     1      17.813   4.540  50.361  1.00  0.00     0.301 C 
HETATM   29  C21 UNL     1      16.768   3.624  49.737  1.00  0.00     0.200 C 
HETATM   30  O3  UNL     1      17.456   3.042  48.701  1.00  0.00    -0.361 OA
HETATM   31  C22 UNL     1      18.428   3.916  48.245  1.00  0.00     0.440 C 
ENDBRANCH  26  27
ENDBRANCH  25  26
ENDBRANCH  11  24
TORSDOF 6
ENDMDL
MODEL 8
REMARK VINA RESULT:      -7.9      3.732      7.067
REMARK  6 active torsions:
REMARK  status: ('A' for Active; 'I' for Inactive)
REMARK    1  A    between atoms: C1_2  and  O2_3 
REMARK    2  A    between atoms: O2_3  and  C2_4 
REMARK    3  A    between atoms: C6_9  and  C7_10 
REMARK    4  A    between atoms: C16_22  and  C17_23 
REMARK    5  A    between atoms: C18_24  and  C19_25 
REMARK    6  A    between atoms: C19_25  and  N3_26 
ROOT
HETATM    1  C2  UNL     1      21.848   2.443  51.156  1.00  0.00     0.210 C 
HETATM    2  C3  UNL     1      22.710   1.546  51.901  1.00  0.00     0.077 A 
HETATM    3  N1  UNL     1      21.905   0.654  52.550  1.00  0.00    -0.262 NA
HETATM    4  C4  UNL     1      22.376  -0.311  53.333  1.00  0.00     0.118 A 
HETATM    5  C5  UNL     1      23.747  -0.427  53.509  1.00  0.00     0.032 A 
HETATM    6  C6  UNL     1      24.659   0.436  52.891  1.00  0.00    -0.012 A 
HETATM    7  C13 UNL     1      24.059   1.375  52.120  1.00  0.00     0.004 A 
HETATM    8  C14 UNL     1      25.073   2.213  51.490  1.00  0.00     0.031 C 
HETATM    9  C15 UNL     1      24.920   3.385  50.846  1.00  0.00     0.084 C 
HETATM   10  N2  UNL     1      23.667   4.080  50.635  1.00  0.00    -0.388 N 
HETATM   11  C16 UNL     1      22.408   3.508  50.326  1.00  0.00     0.139 C 
HETATM   12  H10 UNL     1      23.786   5.136  50.738  1.00  0.00     0.159 HD
ENDROOT
BRANCH   6  13
HETATM   13  C7  UNL     1      26.078   0.278  53.147  1.00  0.00    -0.023 A 
HETATM   14  C8  UNL     1      26.461  -1.004  52.733  1.00  0.00     0.015 A 
HETATM   15  C9  UNL     1      27.782  -1.444  52.877  1.00  0.00     0.045 A 
HETATM   16  C10 UNL     1      28.731  -0.614  53.431  1.00  0.00     0.138 A 
HETATM   17  F1  UNL     1      30.027  -0.975  53.600  1.00  0.00    -0.204 F 
HETATM   18  C11 UNL     1      28.351   0.649  53.838  1.00  0.00     0.073 A 
HETATM   19 CL1  UNL     1      29.449   1.798  54.552  1.00  0.00    -0.081 Cl
HETATM   20  C12 UNL     1      27.056   1.094  53.702  1.00  0.00     0.039 A 
ENDBRANCH   6  13
BRANCH   1  21
HETATM   21  O2  UNL     1      20.877   2.954  52.086  1.00  0.00    -0.314 OA
BRANCH  21  22
HETATM   22  C1  UNL     1      19.546   2.676  51.948  1.00  0.00     0.398 C 
HETATM   23  O1  UNL     1      18.589   3.484  52.094  1.00  0.00    -0.276 OA
ENDBRANCH  21  22
ENDBRANCH   1  21
BRANCH  11  24
HETATM   24  C17 UNL     1      21.406   4.643  50.352  1.00  0.00    -0.001 C 
HETATM   25  C18 UNL     1      21.145   5.446  49.333  1.00  0.00     0.001 C 
BRANCH  25  26
HETATM   26  C19 UNL     1      20.145   6.511  49.497  1.00  0.00     0.302 C 
BRANCH  26  27
HETATM   27  N3  UNL     1      20.442   7.698  48.741  1.00  0.00     0.116 N 
HETATM   28  C20 UNL     1      21.590   7.528  47.848  1.00  0.00     0.301 C 
HETATM   29  C21 UNL     1      21.982   8.988  47.656  1.00  0.00     0.200 C 
HETATM   30  O3  UNL     1      21.793   9.517  48.909  1.00  0.00    -0.361 OA
HETATM   31  C22 UNL     1      20.786   8.824  49.557  1.00  0.00     0.440 C 
ENDBRANCH  26  27
ENDBRANCH  25  26
ENDBRANCH  11  24
TORSDOF 6
ENDMDL
MODEL 9
REMARK VINA RESULT:      -7.8      7.154     11.767
REMARK  6 active torsions:
REMARK  status: ('A' for Active; 'I' for Inactive)
REMARK    1  A    between atoms: C1_2  and  O2_3 
REMARK    2  A    between atoms: O2_3  and  C2_4 
REMARK    3  A    between atoms: C6_9  and  C7_10 
REMARK    4  A    between atoms: C16_22  and  C17_23 
REMARK    5  A    between atoms: C18_24  and  C19_25 
REMARK    6  A    between atoms: C19_25  and  N3_26 
ROOT
HETATM    1  C2  UNL     1      26.533   7.020  48.887  1.00  0.00     0.210 C 
HETATM    2  C3  UNL     1      25.459   6.443  49.672  1.00  0.00     0.077 A 
HETATM    3  N1  UNL     1      24.666   7.472  50.094  1.00  0.00    -0.262 NA
HETATM    4  C4  UNL     1      23.586   7.292  50.848  1.00  0.00     0.118 A 
HETATM    5  C5  UNL     1      23.238   6.004  51.230  1.00  0.00     0.032 A 
HETATM    6  C6  UNL     1      23.983   4.881  50.852  1.00  0.00    -0.012 A 
HETATM    7  C13 UNL     1      25.057   5.193  50.087  1.00  0.00     0.004 A 
HETATM    8  C14 UNL     1      25.762   3.972  49.712  1.00  0.00     0.031 C 
HETATM    9  C15 UNL     1      26.985   3.836  49.166  1.00  0.00     0.084 C 
HETATM   10  N2  UNL     1      27.886   4.917  48.824  1.00  0.00    -0.388 N 
HETATM   11  C16 UNL     1      27.548   6.174  48.263  1.00  0.00     0.139 C 
HETATM   12  H10 UNL     1      28.900   4.662  49.045  1.00  0.00     0.159 HD
ENDROOT
BRANCH   6  13
HETATM   13  C7  UNL     1      23.580   3.567  51.316  1.00  0.00    -0.023 A 
HETATM   14  C8  UNL     1      24.298   3.272  52.483  1.00  0.00     0.015 A 
HETATM   15  C9  UNL     1      24.125   2.052  53.146  1.00  0.00     0.045 A 
HETATM   16  C10 UNL     1      23.240   1.117  52.657  1.00  0.00     0.138 A 
HETATM   17  F1  UNL     1      23.024  -0.083  53.249  1.00  0.00    -0.204 F 
HETATM   18  C11 UNL     1      22.534   1.411  51.508  1.00  0.00     0.073 A 
HETATM   19 CL1  UNL     1      21.384   0.321  50.783  1.00  0.00    -0.081 Cl
HETATM   20  C12 UNL     1      22.694   2.607  50.845  1.00  0.00     0.039 A 
ENDBRANCH   6  13
BRANCH   1  21
HETATM   21  O2  UNL     1      27.129   8.051  49.693  1.00  0.00    -0.314 OA
BRANCH  21  22
HETATM   22  C1  UNL     1      27.007   9.372  49.362  1.00  0.00     0.398 C 
HETATM   23  O1  UNL     1      27.421  10.358  50.030  1.00  0.00    -0.276 OA
ENDBRANCH  21  22
ENDBRANCH   1  21
BRANCH  11  24
HETATM   24  C17 UNL     1      28.826   6.986  48.236  1.00  0.00    -0.001 C 
HETATM   25  C18 UNL     1      29.938   6.627  47.616  1.00  0.00     0.001 C 
BRANCH  25  26
HETATM   26  C19 UNL     1      31.109   7.514  47.671  1.00  0.00     0.302 C 
BRANCH  26  27
HETATM   27  N3  UNL     1      32.249   6.920  48.318  1.00  0.00     0.116 N 
HETATM   28  C20 UNL     1      33.431   7.784  48.288  1.00  0.00     0.301 C 
HETATM   29  C21 UNL     1      34.517   6.737  48.494  1.00  0.00     0.200 C 
HETATM   30  O3  UNL     1      34.064   5.681  47.742  1.00  0.00    -0.361 OA
HETATM   31  C22 UNL     1      32.681   5.700  47.705  1.00  0.00     0.440 C 
ENDBRANCH  26  27
ENDBRANCH  25  26
ENDBRANCH  11  24
TORSDOF 6
ENDMDL
