MODEL 1
REMARK VINA RESULT:      -7.1      0.000      0.000
REMARK  10 active torsions:
REMARK  status: ('A' for Active; 'I' for Inactive)
REMARK    1  A    between atoms: C2_2  and  C3_3 
REMARK    2  A    between atoms: C2_2  and  C6_7 
REMARK    3  A    between atoms: C3_3  and  N1_4 
REMARK       I    between atoms: C6_7  and  N2_9 
REMARK    4  A    between atoms: N2_9  and  C7_10 
REMARK    5  A    between atoms: C12_15  and  O2_16 
REMARK    6  A    between atoms: O2_16  and  C13_17 
REMARK    7  A    between atoms: C16_21  and  N4_22 
REMARK    8  A    between atoms: N4_22  and  C17_23 
REMARK    9  A    between atoms: C17_23  and  C18_24 
REMARK   10  A    between atoms: C19_25  and  C20_27 
ROOT
HETATM    1  C7  UNL     1      26.128   0.789  52.446  1.00  0.00     0.069 A 
HETATM    2  C8  UNL     1      24.814   0.333  52.532  1.00  0.00     0.048 A 
HETATM    3  C9  UNL     1      24.352  -0.333  53.647  1.00  0.00     0.018 A 
HETATM    4  C10 UNL     1      25.284  -0.506  54.649  1.00  0.00     0.066 A 
HETATM    5  C11 UNL     1      26.594  -0.075  54.610  1.00  0.00     0.071 A 
HETATM    6  C12 UNL     1      27.041   0.589  53.489  1.00  0.00     0.097 A 
HETATM    7  N3  UNL     1      24.778  -1.136  55.655  1.00  0.00    -0.283 NA
HETATM    8  C15 UNL     1      23.382  -1.465  55.415  1.00  0.00     0.207 A 
HETATM    9  C16 UNL     1      23.190  -0.885  54.037  1.00  0.00     0.038 A 
ENDROOT
BRANCH   1  10
HETATM   10  N2  UNL     1      26.536   1.476  51.248  1.00  0.00    -0.321 N 
HETATM   11  C6  UNL     1      25.854   2.722  51.194  1.00  0.00     0.249 C 
HETATM   12  O1  UNL     1      25.015   3.232  52.006  1.00  0.00    -0.268 OA
HETATM   13  H11 UNL     1      27.134   1.421  50.401  1.00  0.00     0.169 HD
BRANCH  11  14
HETATM   14  C2  UNL     1      25.820   3.847  50.280  1.00  0.00     0.006 C 
HETATM   15  C1  UNL     1      26.794   3.820  49.394  1.00  0.00     0.046 C 
BRANCH  14  16
HETATM   16  C3  UNL     1      24.916   4.983  50.167  1.00  0.00     0.155 C 
BRANCH  16  17
HETATM   17  N1  UNL     1      24.364   5.197  48.879  1.00  0.00    -0.417 N 
HETATM   18  C4  UNL     1      23.175   4.491  48.556  1.00  0.00     0.142 C 
HETATM   19  C5  UNL     1      24.389   6.568  48.438  1.00  0.00     0.142 C 
ENDBRANCH  16  17
ENDBRANCH  14  16
ENDBRANCH  11  14
ENDBRANCH   1  10
BRANCH   6  20
HETATM   20  O2  UNL     1      28.306   1.088  53.278  1.00  0.00    -0.349 OA
BRANCH  20  21
HETATM   21  C13 UNL     1      29.425   0.732  54.029  1.00  0.00     0.171 C 
HETATM   22  C14 UNL     1      29.987  -0.560  53.516  1.00  0.00     0.034 C 
ENDBRANCH  20  21
ENDBRANCH   6  20
BRANCH   9  23
HETATM   23  N4  UNL     1      22.022  -0.876  53.217  1.00  0.00    -0.388 N 
HETATM   24  H21 UNL     1      21.966  -1.596  52.436  1.00  0.00     0.159 HD
BRANCH  23  25
HETATM   25  C17 UNL     1      20.913   0.023  53.357  1.00  0.00     0.148 C 
BRANCH  25  26
HETATM   26  C18 UNL     1      21.179   1.413  52.967  1.00  0.00     0.014 C 
HETATM   27  C19 UNL     1      21.424   2.442  52.130  1.00  0.00     0.038 C 
HETATM   28 CL1  UNL     1      21.710   4.190  52.195  1.00  0.00    -0.087 Cl
BRANCH  27  29
HETATM   29  C20 UNL     1      21.482   2.035  50.708  1.00  0.00     0.273 C 
HETATM   30  F1  UNL     1      22.395   1.015  50.501  1.00  0.00    -0.250 F 
ENDBRANCH  27  29
ENDBRANCH  25  26
ENDBRANCH  23  25
ENDBRANCH   9  23
TORSDOF 10
ENDMDL
MODEL 2
REMARK VINA RESULT:      -7.0      1.928      2.223
REMARK  10 active torsions:
REMARK  status: ('A' for Active; 'I' for Inactive)
REMARK    1  A    between atoms: C2_2  and  C3_3 
REMARK    2  A    between atoms: C2_2  and  C6_7 
REMARK    3  A    between atoms: C3_3  and  N1_4 
REMARK       I    between atoms: C6_7  and  N2_9 
REMARK    4  A    between atoms: N2_9  and  C7_10 
REMARK    5  A    between atoms: C12_15  and  O2_16 
REMARK    6  A    between atoms: O2_16  and  C13_17 
REMARK    7  A    between atoms: C16_21  and  N4_22 
REMARK    8  A    between atoms: N4_22  and  C17_23 
REMARK    9  A    between atoms: C17_23  and  C18_24 
REMARK   10  A    between atoms: C19_25  and  C20_27 
ROOT
HETATM    1  C7  UNL     1      26.087   0.748  52.422  1.00  0.00     0.069 A 
HETATM    2  C8  UNL     1      24.753   0.369  52.556  1.00  0.00     0.048 A 
HETATM    3  C9  UNL     1      24.301  -0.301  53.672  1.00  0.00     0.018 A 
HETATM    4  C10 UNL     1      25.263  -0.560  54.625  1.00  0.00     0.066 A 
HETATM    5  C11 UNL     1      26.594  -0.207  54.539  1.00  0.00     0.071 A 
HETATM    6  C12 UNL     1      27.031   0.463  53.417  1.00  0.00     0.097 A 
HETATM    7  N3  UNL     1      24.764  -1.188  55.636  1.00  0.00    -0.283 NA
HETATM    8  C15 UNL     1      23.342  -1.426  55.451  1.00  0.00     0.207 A 
HETATM    9  C16 UNL     1      23.126  -0.794  54.099  1.00  0.00     0.038 A 
ENDROOT
BRANCH   1  10
HETATM   10  N2  UNL     1      26.484   1.446  51.226  1.00  0.00    -0.321 N 
HETATM   11  C6  UNL     1      25.826   2.705  51.206  1.00  0.00     0.249 C 
HETATM   12  O1  UNL     1      25.015   3.219  52.043  1.00  0.00    -0.268 OA
HETATM   13  H11 UNL     1      27.062   1.391  50.366  1.00  0.00     0.169 HD
BRANCH  11  14
HETATM   14  C2  UNL     1      25.795   3.845  50.310  1.00  0.00     0.006 C 
HETATM   15  C1  UNL     1      26.754   3.816  49.407  1.00  0.00     0.046 C 
BRANCH  14  16
HETATM   16  C3  UNL     1      24.908   4.997  50.228  1.00  0.00     0.155 C 
BRANCH  16  17
HETATM   17  N1  UNL     1      23.904   4.923  49.230  1.00  0.00    -0.417 N 
HETATM   18  C4  UNL     1      22.635   4.419  49.619  1.00  0.00     0.142 C 
HETATM   19  C5  UNL     1      23.855   6.060  48.347  1.00  0.00     0.142 C 
ENDBRANCH  16  17
ENDBRANCH  14  16
ENDBRANCH  11  14
ENDBRANCH   1  10
BRANCH   6  20
HETATM   20  O2  UNL     1      28.314   0.892  53.163  1.00  0.00    -0.349 OA
BRANCH  20  21
HETATM   21  C13 UNL     1      29.416   0.589  53.961  1.00  0.00     0.171 C 
HETATM   22  C14 UNL     1      30.013  -0.715  53.523  1.00  0.00     0.034 C 
ENDBRANCH  20  21
ENDBRANCH   6  20
BRANCH   9  23
HETATM   23  N4  UNL     1      21.926  -0.691  53.334  1.00  0.00    -0.388 N 
HETATM   24  H21 UNL     1      21.923  -1.133  52.366  1.00  0.00     0.159 HD
BRANCH  23  25
HETATM   25  C17 UNL     1      20.719  -0.042  53.759  1.00  0.00     0.148 C 
BRANCH  25  26
HETATM   26  C18 UNL     1      19.590  -0.144  52.827  1.00  0.00     0.014 C 
HETATM   27  C19 UNL     1      18.390  -0.558  52.372  1.00  0.00     0.038 C 
HETATM   28 CL1  UNL     1      17.339  -0.342  50.961  1.00  0.00    -0.087 Cl
BRANCH  27  29
HETATM   29  C20 UNL     1      17.700  -1.479  53.303  1.00  0.00     0.273 C 
HETATM   30  F1  UNL     1      18.515  -2.530  53.686  1.00  0.00    -0.250 F 
ENDBRANCH  27  29
ENDBRANCH  25  26
ENDBRANCH  23  25
ENDBRANCH   9  23
TORSDOF 10
ENDMDL
MODEL 3
REMARK VINA RESULT:      -7.0      2.802      6.698
REMARK  10 active torsions:
REMARK  status: ('A' for Active; 'I' for Inactive)
REMARK    1  A    between atoms: C2_2  and  C3_3 
REMARK    2  A    between atoms: C2_2  and  C6_7 
REMARK    3  A    between atoms: C3_3  and  N1_4 
REMARK       I    between atoms: C6_7  and  N2_9 
REMARK    4  A    between atoms: N2_9  and  C7_10 
REMARK    5  A    between atoms: C12_15  and  O2_16 
REMARK    6  A    between atoms: O2_16  and  C13_17 
REMARK    7  A    between atoms: C16_21  and  N4_22 
REMARK    8  A    between atoms: N4_22  and  C17_23 
REMARK    9  A    between atoms: C17_23  and  C18_24 
REMARK   10  A    between atoms: C19_25  and  C20_27 
ROOT
HETATM    1  C7  UNL     1      23.684   2.188  52.974  1.00  0.00     0.069 A 
HETATM    2  C8  UNL     1      23.995   3.516  52.688  1.00  0.00     0.048 A 
HETATM    3  C9  UNL     1      23.086   4.357  52.084  1.00  0.00     0.018 A 
HETATM    4  C10 UNL     1      21.866   3.783  51.792  1.00  0.00     0.066 A 
HETATM    5  C11 UNL     1      21.511   2.476  52.054  1.00  0.00     0.071 A 
HETATM    6  C12 UNL     1      22.431   1.647  52.659  1.00  0.00     0.097 A 
HETATM    7  N3  UNL     1      21.072   4.630  51.230  1.00  0.00    -0.283 NA
HETATM    8  C15 UNL     1      21.715   5.926  51.080  1.00  0.00     0.207 A 
HETATM    9  C16 UNL     1      23.067   5.640  51.683  1.00  0.00     0.038 A 
ENDROOT
BRANCH   1  10
HETATM   10  N2  UNL     1      24.688   1.371  53.606  1.00  0.00    -0.321 N 
HETATM   11  C6  UNL     1      25.547   0.860  52.597  1.00  0.00     0.249 C 
HETATM   12  O1  UNL     1      25.520   1.031  51.335  1.00  0.00    -0.268 OA
HETATM   13  H11 UNL     1      25.033   1.004  54.513  1.00  0.00     0.169 HD
BRANCH  11  14
HETATM   14  C2  UNL     1      26.715   0.002  52.566  1.00  0.00     0.006 C 
HETATM   15  C1  UNL     1      26.420  -1.261  52.335  1.00  0.00     0.046 C 
BRANCH  14  16
HETATM   16  C3  UNL     1      28.134   0.280  52.741  1.00  0.00     0.155 C 
BRANCH  16  17
HETATM   17  N1  UNL     1      28.756  -0.385  53.827  1.00  0.00    -0.417 N 
HETATM   18  C4  UNL     1      30.060  -0.903  53.611  1.00  0.00     0.142 C 
HETATM   19  C5  UNL     1      28.565   0.251  55.105  1.00  0.00     0.142 C 
ENDBRANCH  16  17
ENDBRANCH  14  16
ENDBRANCH  11  14
ENDBRANCH   1  10
BRANCH   6  20
HETATM   20  O2  UNL     1      22.251   0.324  52.994  1.00  0.00    -0.349 OA
BRANCH  20  21
HETATM   21  C13 UNL     1      21.103  -0.183  53.599  1.00  0.00     0.171 C 
HETATM   22  C14 UNL     1      21.486  -1.100  54.722  1.00  0.00     0.034 C 
ENDBRANCH  20  21
ENDBRANCH   6  20
BRANCH   9  23
HETATM   23  N4  UNL     1      24.186   6.511  51.840  1.00  0.00    -0.388 N 
HETATM   24  H21 UNL     1      24.669   6.522  52.789  1.00  0.00     0.159 HD
BRANCH  23  25
HETATM   25  C17 UNL     1      24.718   7.376  50.827  1.00  0.00     0.148 C 
BRANCH  25  26
HETATM   26  C18 UNL     1      25.773   6.789  49.992  1.00  0.00     0.014 C 
HETATM   27  C19 UNL     1      26.438   5.819  49.333  1.00  0.00     0.038 C 
HETATM   28 CL1  UNL     1      27.883   5.625  48.325  1.00  0.00    -0.087 Cl
BRANCH  27  29
HETATM   29  C20 UNL     1      25.804   4.488  49.460  1.00  0.00     0.273 C 
HETATM   30  F1  UNL     1      26.555   3.633  50.250  1.00  0.00    -0.250 F 
ENDBRANCH  27  29
ENDBRANCH  25  26
ENDBRANCH  23  25
ENDBRANCH   9  23
TORSDOF 10
ENDMDL
MODEL 4
REMARK VINA RESULT:      -6.9      2.885      5.430
REMARK  10 active torsions:
REMARK  status: ('A' for Active; 'I' for Inactive)
REMARK    1  A    between atoms: C2_2  and  C3_3 
REMARK    2  A    between atoms: C2_2  and  C6_7 
REMARK    3  A    between atoms: C3_3  and  N1_4 
REMARK       I    between atoms: C6_7  and  N2_9 
REMARK    4  A    between atoms: N2_9  and  C7_10 
REMARK    5  A    between atoms: C12_15  and  O2_16 
REMARK    6  A    between atoms: O2_16  and  C13_17 
REMARK    7  A    between atoms: C16_21  and  N4_22 
REMARK    8  A    between atoms: N4_22  and  C17_23 
REMARK    9  A    between atoms: C17_23  and  C18_24 
REMARK   10  A    between atoms: C19_25  and  C20_27 
ROOT
HETATM    1  C7  UNL     1      23.588   3.568  52.085  1.00  0.00     0.069 A 
HETATM    2  C8  UNL     1      24.180   2.371  52.481  1.00  0.00     0.048 A 
HETATM    3  C9  UNL     1      23.426   1.265  52.810  1.00  0.00     0.018 A 
HETATM    4  C10 UNL     1      22.062   1.443  52.715  1.00  0.00     0.066 A 
HETATM    5  C11 UNL     1      21.428   2.607  52.330  1.00  0.00     0.071 A 
HETATM    6  C12 UNL     1      22.196   3.703  52.004  1.00  0.00     0.097 A 
HETATM    7  N3  UNL     1      21.425   0.368  53.038  1.00  0.00    -0.283 NA
HETATM    8  C15 UNL     1      22.350  -0.694  53.400  1.00  0.00     0.207 A 
HETATM    9  C16 UNL     1      23.671   0.008  53.217  1.00  0.00     0.038 A 
ENDROOT
BRANCH   1  10
HETATM   10  N2  UNL     1      24.444   4.680  51.758  1.00  0.00    -0.321 N 
HETATM   11  C6  UNL     1      24.950   4.481  50.446  1.00  0.00     0.249 C 
HETATM   12  O1  UNL     1      24.746   3.529  49.625  1.00  0.00    -0.268 OA
HETATM   13  H11 UNL     1      24.842   5.573  52.105  1.00  0.00     0.169 HD
BRANCH  11  14
HETATM   14  C2  UNL     1      25.834   5.207  49.554  1.00  0.00     0.006 C 
HETATM   15  C1  UNL     1      26.832   4.470  49.108  1.00  0.00     0.046 C 
BRANCH  14  16
HETATM   16  C3  UNL     1      25.818   6.580  49.070  1.00  0.00     0.155 C 
BRANCH  16  17
HETATM   17  N1  UNL     1      25.803   7.580  50.074  1.00  0.00    -0.417 N 
HETATM   18  C4  UNL     1      26.835   8.554  50.038  1.00  0.00     0.142 C 
HETATM   19  C5  UNL     1      24.494   8.100  50.379  1.00  0.00     0.142 C 
ENDBRANCH  16  17
ENDBRANCH  14  16
ENDBRANCH  11  14
ENDBRANCH   1  10
BRANCH   6  20
HETATM   20  O2  UNL     1      21.739   4.937  51.600  1.00  0.00    -0.349 OA
BRANCH  20  21
HETATM   21  C13 UNL     1      20.807   5.134  50.583  1.00  0.00     0.171 C 
HETATM   22  C14 UNL     1      21.432   4.818  49.257  1.00  0.00     0.034 C 
ENDBRANCH  20  21
ENDBRANCH   6  20
BRANCH   9  23
HETATM   23  N4  UNL     1      24.993  -0.491  53.417  1.00  0.00    -0.388 N 
HETATM   24  H21 UNL     1      25.362  -1.197  52.711  1.00  0.00     0.159 HD
BRANCH  23  25
HETATM   25  C17 UNL     1      25.870  -0.120  54.490  1.00  0.00     0.148 C 
BRANCH  25  26
HETATM   26  C18 UNL     1      27.299  -0.106  54.155  1.00  0.00     0.014 C 
HETATM   27  C19 UNL     1      28.476   0.421  53.761  1.00  0.00     0.038 C 
HETATM   28 CL1  UNL     1      30.152  -0.086  53.488  1.00  0.00    -0.087 Cl
BRANCH  27  29
HETATM   29  C20 UNL     1      28.393   1.865  53.450  1.00  0.00     0.273 C 
HETATM   30  F1  UNL     1      27.213   2.424  53.911  1.00  0.00    -0.250 F 
ENDBRANCH  27  29
ENDBRANCH  25  26
ENDBRANCH  23  25
ENDBRANCH   9  23
TORSDOF 10
ENDMDL
MODEL 5
REMARK VINA RESULT:      -6.8      1.742      2.403
REMARK  10 active torsions:
REMARK  status: ('A' for Active; 'I' for Inactive)
REMARK    1  A    between atoms: C2_2  and  C3_3 
REMARK    2  A    between atoms: C2_2  and  C6_7 
REMARK    3  A    between atoms: C3_3  and  N1_4 
REMARK       I    between atoms: C6_7  and  N2_9 
REMARK    4  A    between atoms: N2_9  and  C7_10 
REMARK    5  A    between atoms: C12_15  and  O2_16 
REMARK    6  A    between atoms: O2_16  and  C13_17 
REMARK    7  A    between atoms: C16_21  and  N4_22 
REMARK    8  A    between atoms: N4_22  and  C17_23 
REMARK    9  A    between atoms: C17_23  and  C18_24 
REMARK   10  A    between atoms: C19_25  and  C20_27 
ROOT
HETATM    1  C7  UNL     1      24.834   1.923  52.585  1.00  0.00     0.069 A 
HETATM    2  C8  UNL     1      23.451   2.065  52.684  1.00  0.00     0.048 A 
HETATM    3  C9  UNL     1      22.640   1.010  53.044  1.00  0.00     0.018 A 
HETATM    4  C10 UNL     1      23.302  -0.174  53.292  1.00  0.00     0.066 A 
HETATM    5  C11 UNL     1      24.665  -0.364  53.207  1.00  0.00     0.071 A 
HETATM    6  C12 UNL     1      25.463   0.699  52.846  1.00  0.00     0.097 A 
HETATM    7  N3  UNL     1      22.478  -1.111  53.622  1.00  0.00    -0.283 NA
HETATM    8  C15 UNL     1      21.109  -0.621  53.627  1.00  0.00     0.207 A 
HETATM    9  C16 UNL     1      21.323   0.815  53.223  1.00  0.00     0.038 A 
ENDROOT
BRANCH   1  10
HETATM   10  N2  UNL     1      25.614   3.072  52.203  1.00  0.00    -0.321 N 
HETATM   11  C6  UNL     1      25.347   3.357  50.837  1.00  0.00     0.249 C 
HETATM   12  O1  UNL     1      24.577   2.766  50.012  1.00  0.00    -0.268 OA
HETATM   13  H11 UNL     1      26.300   3.778  52.532  1.00  0.00     0.169 HD
BRANCH  11  14
HETATM   14  C2  UNL     1      25.793   4.350  49.878  1.00  0.00     0.006 C 
HETATM   15  C1  UNL     1      26.921   4.019  49.282  1.00  0.00     0.046 C 
BRANCH  14  16
HETATM   16  C3  UNL     1      25.228   5.625  49.461  1.00  0.00     0.155 C 
BRANCH  16  17
HETATM   17  N1  UNL     1      25.347   6.681  50.400  1.00  0.00    -0.417 N 
HETATM   18  C4  UNL     1      26.157   7.788  50.033  1.00  0.00     0.142 C 
HETATM   19  C5  UNL     1      24.119   7.027  51.068  1.00  0.00     0.142 C 
ENDBRANCH  16  17
ENDBRANCH  14  16
ENDBRANCH  11  14
ENDBRANCH   1  10
BRANCH   6  20
HETATM   20  O2  UNL     1      26.833   0.693  52.713  1.00  0.00    -0.349 OA
BRANCH  20  21
HETATM   21  C13 UNL     1      27.635  -0.431  52.906  1.00  0.00     0.171 C 
HETATM   22  C14 UNL     1      28.577  -0.189  54.048  1.00  0.00     0.034 C 
ENDBRANCH  20  21
ENDBRANCH   6  20
BRANCH   9  23
HETATM   23  N4  UNL     1      20.360   1.853  53.039  1.00  0.00    -0.388 N 
HETATM   24  H21 UNL     1      20.210   2.531  53.846  1.00  0.00     0.159 HD
BRANCH  23  25
HETATM   25  C17 UNL     1      19.575   2.061  51.857  1.00  0.00     0.148 C 
BRANCH  25  26
HETATM   26  C18 UNL     1      20.309   2.600  50.705  1.00  0.00     0.014 C 
HETATM   27  C19 UNL     1      20.993   2.567  49.544  1.00  0.00     0.038 C 
HETATM   28 CL1  UNL     1      21.770   3.685  48.408  1.00  0.00    -0.087 Cl
BRANCH  27  29
HETATM   29  C20 UNL     1      21.180   1.197  49.016  1.00  0.00     0.273 C 
HETATM   30  F1  UNL     1      21.640   0.328  49.991  1.00  0.00    -0.250 F 
ENDBRANCH  27  29
ENDBRANCH  25  26
ENDBRANCH  23  25
ENDBRANCH   9  23
TORSDOF 10
ENDMDL
MODEL 6
REMARK VINA RESULT:      -6.7      3.138      5.804
REMARK  10 active torsions:
REMARK  status: ('A' for Active; 'I' for Inactive)
REMARK    1  A    between atoms: C2_2  and  C3_3 
REMARK    2  A    between atoms: C2_2  and  C6_7 
REMARK    3  A    between atoms: C3_3  and  N1_4 
REMARK       I    between atoms: C6_7  and  N2_9 
REMARK    4  A    between atoms: N2_9  and  C7_10 
REMARK    5  A    between atoms: C12_15  and  O2_16 
REMARK    6  A    between atoms: O2_16  and  C13_17 
REMARK    7  A    between atoms: C16_21  and  N4_22 
REMARK    8  A    between atoms: N4_22  and  C17_23 
REMARK    9  A    between atoms: C17_23  and  C18_24 
REMARK   10  A    between atoms: C19_25  and  C20_27 
ROOT
HETATM    1  C7  UNL     1      21.969   2.238  52.394  1.00  0.00     0.069 A 
HETATM    2  C8  UNL     1      23.029   1.439  52.816  1.00  0.00     0.048 A 
HETATM    3  C9  UNL     1      22.831   0.349  53.637  1.00  0.00     0.018 A 
HETATM    4  C10 UNL     1      21.519   0.124  53.998  1.00  0.00     0.066 A 
HETATM    5  C11 UNL     1      20.437   0.886  53.609  1.00  0.00     0.071 A 
HETATM    6  C12 UNL     1      20.651   1.971  52.788  1.00  0.00     0.097 A 
HETATM    7  N3  UNL     1      21.416  -0.909  54.765  1.00  0.00    -0.283 NA
HETATM    8  C15 UNL     1      22.717  -1.511  55.006  1.00  0.00     0.207 A 
HETATM    9  C16 UNL     1      23.604  -0.591  54.206  1.00  0.00     0.038 A 
ENDROOT
BRANCH   1  10
HETATM   10  N2  UNL     1      22.256   3.359  51.537  1.00  0.00    -0.321 N 
HETATM   11  C6  UNL     1      22.541   2.864  50.237  1.00  0.00     0.249 C 
HETATM   12  O1  UNL     1      22.566   1.667  49.803  1.00  0.00    -0.268 OA
HETATM   13  H11 UNL     1      22.339   4.393  51.494  1.00  0.00     0.169 HD
BRANCH  11  14
HETATM   14  C2  UNL     1      22.895   3.450  48.958  1.00  0.00     0.006 C 
HETATM   15  C1  UNL     1      22.535   2.704  47.934  1.00  0.00     0.046 C 
BRANCH  14  16
HETATM   16  C3  UNL     1      23.564   4.695  48.608  1.00  0.00     0.155 C 
BRANCH  16  17
HETATM   17  N1  UNL     1      24.771   4.955  49.305  1.00  0.00    -0.417 N 
HETATM   18  C4  UNL     1      24.697   5.801  50.442  1.00  0.00     0.142 C 
HETATM   19  C5  UNL     1      25.628   3.807  49.463  1.00  0.00     0.142 C 
ENDBRANCH  16  17
ENDBRANCH  14  16
ENDBRANCH  11  14
ENDBRANCH   1  10
BRANCH   6  20
HETATM   20  O2  UNL     1      19.697   2.836  52.303  1.00  0.00    -0.349 OA
BRANCH  20  21
HETATM   21  C13 UNL     1      18.574   2.440  51.578  1.00  0.00     0.171 C 
HETATM   22  C14 UNL     1      18.993   1.947  50.226  1.00  0.00     0.034 C 
ENDBRANCH  20  21
ENDBRANCH   6  20
BRANCH   9  23
HETATM   23  N4  UNL     1      25.020  -0.633  54.029  1.00  0.00    -0.388 N 
HETATM   24  H21 UNL     1      25.404  -1.331  53.323  1.00  0.00     0.159 HD
BRANCH  23  25
HETATM   25  C17 UNL     1      25.971   0.187  54.722  1.00  0.00     0.148 C 
BRANCH  25  26
HETATM   26  C18 UNL     1      27.364   0.040  54.282  1.00  0.00     0.014 C 
HETATM   27  C19 UNL     1      28.579   0.438  53.854  1.00  0.00     0.038 C 
HETATM   28 CL1  UNL     1      30.144  -0.264  53.407  1.00  0.00    -0.087 Cl
BRANCH  27  29
HETATM   29  C20 UNL     1      28.688   1.905  53.692  1.00  0.00     0.273 C 
HETATM   30  F1  UNL     1      29.581   2.457  54.593  1.00  0.00    -0.250 F 
ENDBRANCH  27  29
ENDBRANCH  25  26
ENDBRANCH  23  25
ENDBRANCH   9  23
TORSDOF 10
ENDMDL
MODEL 7
REMARK VINA RESULT:      -6.7      3.068      6.600
REMARK  10 active torsions:
REMARK  status: ('A' for Active; 'I' for Inactive)
REMARK    1  A    between atoms: C2_2  and  C3_3 
REMARK    2  A    between atoms: C2_2  and  C6_7 
REMARK    3  A    between atoms: C3_3  and  N1_4 
REMARK       I    between atoms: C6_7  and  N2_9 
REMARK    4  A    between atoms: N2_9  and  C7_10 
REMARK    5  A    between atoms: C12_15  and  O2_16 
REMARK    6  A    between atoms: O2_16  and  C13_17 
REMARK    7  A    between atoms: C16_21  and  N4_22 
REMARK    8  A    between atoms: N4_22  and  C17_23 
REMARK    9  A    between atoms: C17_23  and  C18_24 
REMARK   10  A    between atoms: C19_25  and  C20_27 
ROOT
HETATM    1  C7  UNL     1      24.343   1.642  52.126  1.00  0.00     0.069 A 
HETATM    2  C8  UNL     1      24.286   2.953  51.657  1.00  0.00     0.048 A 
HETATM    3  C9  UNL     1      23.098   3.650  51.603  1.00  0.00     0.018 A 
HETATM    4  C10 UNL     1      21.994   2.952  52.044  1.00  0.00     0.066 A 
HETATM    5  C11 UNL     1      21.999   1.656  52.515  1.00  0.00     0.071 A 
HETATM    6  C12 UNL     1      23.194   0.972  52.563  1.00  0.00     0.097 A 
HETATM    7  N3  UNL     1      20.924   3.669  51.963  1.00  0.00    -0.283 NA
HETATM    8  C15 UNL     1      21.221   4.990  51.431  1.00  0.00     0.207 A 
HETATM    9  C16 UNL     1      22.709   4.878  51.219  1.00  0.00     0.038 A 
ENDROOT
BRANCH   1  10
HETATM   10  N2  UNL     1      25.622   0.980  52.151  1.00  0.00    -0.321 N 
HETATM   11  C6  UNL     1      26.379   1.514  53.227  1.00  0.00     0.249 C 
HETATM   12  O1  UNL     1      26.076   2.416  54.074  1.00  0.00    -0.268 OA
HETATM   13  H11 UNL     1      26.214   0.263  51.689  1.00  0.00     0.169 HD
BRANCH  11  14
HETATM   14  C2  UNL     1      27.701   1.287  53.778  1.00  0.00     0.006 C 
HETATM   15  C1  UNL     1      28.477   2.350  53.709  1.00  0.00     0.046 C 
BRANCH  14  16
HETATM   16  C3  UNL     1      28.316   0.115  54.386  1.00  0.00     0.155 C 
BRANCH  16  17
HETATM   17  N1  UNL     1      28.840  -0.838  53.478  1.00  0.00    -0.417 N 
HETATM   18  C4  UNL     1      30.118  -1.383  53.772  1.00  0.00     0.142 C 
HETATM   19  C5  UNL     1      27.876  -1.792  52.991  1.00  0.00     0.142 C 
ENDBRANCH  16  17
ENDBRANCH  14  16
ENDBRANCH  11  14
ENDBRANCH   1  10
BRANCH   6  20
HETATM   20  O2  UNL     1      23.386  -0.319  53.002  1.00  0.00    -0.349 OA
BRANCH  20  21
HETATM   21  C13 UNL     1      23.150  -0.747  54.307  1.00  0.00     0.171 C 
HETATM   22  C14 UNL     1      21.885  -1.549  54.355  1.00  0.00     0.034 C 
ENDBRANCH  20  21
ENDBRANCH   6  20
BRANCH   9  23
HETATM   23  N4  UNL     1      23.622   5.848  50.707  1.00  0.00    -0.388 N 
HETATM   24  H21 UNL     1      24.048   6.534  51.400  1.00  0.00     0.159 HD
BRANCH  23  25
HETATM   25  C17 UNL     1      24.016   5.978  49.333  1.00  0.00     0.148 C 
BRANCH  25  26
HETATM   26  C18 UNL     1      25.420   5.656  49.051  1.00  0.00     0.014 C 
HETATM   27  C19 UNL     1      26.677   5.866  48.609  1.00  0.00     0.038 C 
HETATM   28 CL1  UNL     1      28.223   5.007  48.492  1.00  0.00    -0.087 Cl
BRANCH  27  29
HETATM   29  C20 UNL     1      26.874   7.215  48.033  1.00  0.00     0.273 C 
HETATM   30  F1  UNL     1      27.902   7.234  47.105  1.00  0.00    -0.250 F 
ENDBRANCH  27  29
ENDBRANCH  25  26
ENDBRANCH  23  25
ENDBRANCH   9  23
TORSDOF 10
ENDMDL
MODEL 8
REMARK VINA RESULT:      -6.6      2.693      6.142
REMARK  10 active torsions:
REMARK  status: ('A' for Active; 'I' for Inactive)
REMARK    1  A    between atoms: C2_2  and  C3_3 
REMARK    2  A    between atoms: C2_2  and  C6_7 
REMARK    3  A    between atoms: C3_3  and  N1_4 
REMARK       I    between atoms: C6_7  and  N2_9 
REMARK    4  A    between atoms: N2_9  and  C7_10 
REMARK    5  A    between atoms: C12_15  and  O2_16 
REMARK    6  A    between atoms: O2_16  and  C13_17 
REMARK    7  A    between atoms: C16_21  and  N4_22 
REMARK    8  A    between atoms: N4_22  and  C17_23 
REMARK    9  A    between atoms: C17_23  and  C18_24 
REMARK   10  A    between atoms: C19_25  and  C20_27 
ROOT
HETATM    1  C7  UNL     1      23.016   4.477  52.183  1.00  0.00     0.069 A 
HETATM    2  C8  UNL     1      21.850   3.715  52.235  1.00  0.00     0.048 A 
HETATM    3  C9  UNL     1      20.738   4.045  51.492  1.00  0.00     0.018 A 
HETATM    4  C10 UNL     1      20.875   5.172  50.708  1.00  0.00     0.066 A 
HETATM    5  C11 UNL     1      22.005   5.958  50.623  1.00  0.00     0.071 A 
HETATM    6  C12 UNL     1      23.109   5.615  51.373  1.00  0.00     0.097 A 
HETATM    7  N3  UNL     1      19.795   5.415  50.044  1.00  0.00    -0.283 NA
HETATM    8  C15 UNL     1      18.773   4.422  50.333  1.00  0.00     0.207 A 
HETATM    9  C16 UNL     1      19.502   3.546  51.318  1.00  0.00     0.038 A 
ENDROOT
BRANCH   1  10
HETATM   10  N2  UNL     1      24.137   4.068  52.990  1.00  0.00    -0.321 N 
HETATM   11  C6  UNL     1      24.773   2.973  52.347  1.00  0.00     0.249 C 
HETATM   12  O1  UNL     1      24.485   2.384  51.254  1.00  0.00    -0.268 OA
HETATM   13  H11 UNL     1      24.666   4.257  53.863  1.00  0.00     0.169 HD
BRANCH  11  14
HETATM   14  C2  UNL     1      25.919   2.128  52.627  1.00  0.00     0.006 C 
HETATM   15  C1  UNL     1      26.431   1.582  51.543  1.00  0.00     0.046 C 
BRANCH  14  16
HETATM   16  C3  UNL     1      26.595   1.783  53.869  1.00  0.00     0.155 C 
BRANCH  16  17
HETATM   17  N1  UNL     1      26.862   0.403  54.054  1.00  0.00    -0.417 N 
HETATM   18  C4  UNL     1      28.141   0.050  54.557  1.00  0.00     0.142 C 
HETATM   19  C5  UNL     1      25.767  -0.348  54.612  1.00  0.00     0.142 C 
ENDBRANCH  16  17
ENDBRANCH  14  16
ENDBRANCH  11  14
ENDBRANCH   1  10
BRANCH   6  20
HETATM   20  O2  UNL     1      24.315   6.278  51.412  1.00  0.00    -0.349 OA
BRANCH  20  21
HETATM   21  C13 UNL     1      25.059   6.622  50.284  1.00  0.00     0.171 C 
HETATM   22  C14 UNL     1      25.739   5.404  49.736  1.00  0.00     0.034 C 
ENDBRANCH  20  21
ENDBRANCH   6  20
BRANCH   9  23
HETATM   23  N4  UNL     1      19.044   2.376  51.996  1.00  0.00    -0.388 N 
HETATM   24  H21 UNL     1      18.518   2.515  52.911  1.00  0.00     0.159 HD
BRANCH  23  25
HETATM   25  C17 UNL     1      19.231   1.026  51.549  1.00  0.00     0.148 C 
BRANCH  25  26
HETATM   26  C18 UNL     1      19.852   0.123  52.525  1.00  0.00     0.014 C 
HETATM   27  C19 UNL     1      20.815  -0.347  53.343  1.00  0.00     0.038 C 
HETATM   28 CL1  UNL     1      21.084  -1.686  54.474  1.00  0.00    -0.087 Cl
BRANCH  27  29
HETATM   29  C20 UNL     1      22.046   0.474  53.327  1.00  0.00     0.273 C 
HETATM   30  F1  UNL     1      23.080  -0.161  52.660  1.00  0.00    -0.250 F 
ENDBRANCH  27  29
ENDBRANCH  25  26
ENDBRANCH  23  25
ENDBRANCH   9  23
TORSDOF 10
ENDMDL
MODEL 9
REMARK VINA RESULT:      -6.5      3.696      6.557
REMARK  10 active torsions:
REMARK  status: ('A' for Active; 'I' for Inactive)
REMARK    1  A    between atoms: C2_2  and  C3_3 
REMARK    2  A    between atoms: C2_2  and  C6_7 
REMARK    3  A    between atoms: C3_3  and  N1_4 
REMARK       I    between atoms: C6_7  and  N2_9 
REMARK    4  A    between atoms: N2_9  and  C7_10 
REMARK    5  A    between atoms: C12_15  and  O2_16 
REMARK    6  A    between atoms: O2_16  and  C13_17 
REMARK    7  A    between atoms: C16_21  and  N4_22 
REMARK    8  A    between atoms: N4_22  and  C17_23 
REMARK    9  A    between atoms: C17_23  and  C18_24 
REMARK   10  A    between atoms: C19_25  and  C20_27 
ROOT
HETATM    1  C7  UNL     1      20.911   0.290  52.412  1.00  0.00     0.069 A 
HETATM    2  C8  UNL     1      22.273   0.325  52.707  1.00  0.00     0.048 A 
HETATM    3  C9  UNL     1      22.803  -0.391  53.759  1.00  0.00     0.018 A 
HETATM    4  C10 UNL     1      21.888  -1.130  54.479  1.00  0.00     0.066 A 
HETATM    5  C11 UNL     1      20.533  -1.196  54.228  1.00  0.00     0.071 A 
HETATM    6  C12 UNL     1      20.018  -0.475  53.173  1.00  0.00     0.097 A 
HETATM    7  N3  UNL     1      22.458  -1.770  55.444  1.00  0.00    -0.283 NA
HETATM    8  C15 UNL     1      23.889  -1.509  55.467  1.00  0.00     0.207 A 
HETATM    9  C16 UNL     1      24.022  -0.570  54.296  1.00  0.00     0.038 A 
ENDROOT
BRANCH   1  10
HETATM   10  N2  UNL     1      20.433   1.066  51.297  1.00  0.00    -0.321 N 
HETATM   11  C6  UNL     1      20.103   2.365  51.767  1.00  0.00     0.249 C 
HETATM   12  O1  UNL     1      20.178   2.855  52.940  1.00  0.00    -0.268 OA
HETATM   13  H11 UNL     1      20.231   1.051  50.279  1.00  0.00     0.169 HD
BRANCH  11  14
HETATM   14  C2  UNL     1      19.585   3.583  51.173  1.00  0.00     0.006 C 
HETATM   15  C1  UNL     1      18.274   3.576  51.046  1.00  0.00     0.046 C 
BRANCH  14  16
HETATM   16  C3  UNL     1      20.243   4.793  50.701  1.00  0.00     0.155 C 
BRANCH  16  17
HETATM   17  N1  UNL     1      20.896   4.682  49.447  1.00  0.00    -0.417 N 
HETATM   18  C4  UNL     1      20.341   5.406  48.359  1.00  0.00     0.142 C 
HETATM   19  C5  UNL     1      22.334   4.710  49.518  1.00  0.00     0.142 C 
ENDBRANCH  16  17
ENDBRANCH  14  16
ENDBRANCH  11  14
ENDBRANCH   1  10
BRANCH   6  20
HETATM   20  O2  UNL     1      18.701  -0.423  52.777  1.00  0.00    -0.349 OA
BRANCH  20  21
HETATM   21  C13 UNL     1      17.702  -1.266  53.261  1.00  0.00     0.171 C 
HETATM   22  C14 UNL     1      16.372  -0.837  52.719  1.00  0.00     0.034 C 
ENDBRANCH  20  21
ENDBRANCH   6  20
BRANCH   9  23
HETATM   23  N4  UNL     1      25.190   0.065  53.778  1.00  0.00    -0.388 N 
HETATM   24  H21 UNL     1      25.502   0.971  54.241  1.00  0.00     0.159 HD
BRANCH  23  25
HETATM   25  C17 UNL     1      25.983  -0.414  52.683  1.00  0.00     0.148 C 
BRANCH  25  26
HETATM   26  C18 UNL     1      27.425  -0.503  52.944  1.00  0.00     0.014 C 
HETATM   27  C19 UNL     1      28.600  -0.202  53.533  1.00  0.00     0.038 C 
HETATM   28 CL1  UNL     1      30.303  -0.686  53.461  1.00  0.00    -0.087 Cl
BRANCH  27  29
HETATM   29  C20 UNL     1      28.482   0.853  54.564  1.00  0.00     0.273 C 
HETATM   30  F1  UNL     1      29.595   1.676  54.588  1.00  0.00    -0.250 F 
ENDBRANCH  27  29
ENDBRANCH  25  26
ENDBRANCH  23  25
ENDBRANCH   9  23
TORSDOF 10
ENDMDL
