MODEL 1
REMARK VINA RESULT:      -7.5      0.000      0.000
REMARK  2 active torsions:
REMARK  status: ('A' for Active; 'I' for Inactive)
REMARK    1  A    between atoms: O1_2  and  C2_3 
REMARK    2  A    between atoms: C10_14  and  C11_15 
ROOT
HETATM    1  C2  UNL     1      23.150   5.470  50.371  1.00  0.00     0.098 C 
HETATM    2  C3  UNL     1      21.884   5.132  50.230  1.00  0.00     0.022 C 
HETATM    3  C4  UNL     1      21.443   3.748  49.945  1.00  0.00     0.064 C 
HETATM    4  C5  UNL     1      22.255   3.214  48.837  1.00  0.00     0.064 C 
HETATM    5  C6  UNL     1      22.435   1.723  48.907  1.00  0.00     0.123 C 
HETATM    6  N1  UNL     1      21.349   1.054  49.115  1.00  0.00    -0.170 NA
HETATM    7  N2  UNL     1      20.416   1.196  50.161  1.00  0.00    -0.184 N 
HETATM    8  O2  UNL     1      20.330   2.040  51.215  1.00  0.00    -0.248 OA
HETATM    9  C7  UNL     1      21.378   2.967  51.215  1.00  0.00     0.113 C 
HETATM   10  C8  UNL     1      21.161   3.969  52.346  1.00  0.00     0.054 C 
HETATM   11  C9  UNL     1      22.615   2.257  51.533  1.00  0.00     0.030 C 
HETATM   12  C10 UNL     1      23.371   1.335  52.072  1.00  0.00     0.047 C 
HETATM   13  C12 UNL     1      24.834   1.105  52.022  1.00  0.00     0.016 C 
HETATM   14  C13 UNL     1      25.883   1.666  51.481  1.00  0.00     0.003 C 
HETATM   15  C14 UNL     1      26.482   2.697  50.679  1.00  0.00     0.025 C 
HETATM   16  C15 UNL     1      26.136   3.776  49.976  1.00  0.00     0.142 C 
HETATM   17  O3  UNL     1      25.441   4.825  49.345  1.00  0.00    -0.320 OA
HETATM   18  C16 UNL     1      24.061   4.764  49.493  1.00  0.00     0.104 C 
HETATM   19  C17 UNL     1      23.558   3.859  48.637  1.00  0.00     0.024 C 
HETATM   20  H8  UNL     1      19.581   0.535  50.191  1.00  0.00     0.218 HD
ENDROOT
BRANCH  12  21
HETATM   21  C11 UNL     1      22.604   0.331  52.899  1.00  0.00     0.417 C 
HETATM   22  F1  UNL     1      23.585  -0.392  53.604  1.00  0.00    -0.166 F 
HETATM   23  F2  UNL     1      21.994  -0.577  52.058  1.00  0.00    -0.166 F 
HETATM   24  F3  UNL     1      21.726   0.891  53.760  1.00  0.00    -0.166 F 
ENDBRANCH  12  21
BRANCH   1  25
HETATM   25  O1  UNL     1      23.610   6.416  51.270  1.00  0.00    -0.353 OA
HETATM   26  C1  UNL     1      23.790   7.759  50.844  1.00  0.00     0.210 C 
ENDBRANCH   1  25
TORSDOF 2
ENDMDL
MODEL 2
REMARK VINA RESULT:      -7.3      9.946     11.895
REMARK  2 active torsions:
REMARK  status: ('A' for Active; 'I' for Inactive)
REMARK    1  A    between atoms: O1_2  and  C2_3 
REMARK    2  A    between atoms: C10_14  and  C11_15 
ROOT
HETATM    1  C2  UNL     1      32.916   9.180  46.258  1.00  0.00     0.098 C 
HETATM    2  C3  UNL     1      32.734   9.036  47.556  1.00  0.00     0.022 C 
HETATM    3  C4  UNL     1      32.257   7.777  48.171  1.00  0.00     0.064 C 
HETATM    4  C5  UNL     1      31.080   7.302  47.420  1.00  0.00     0.064 C 
HETATM    5  C6  UNL     1      30.936   5.807  47.440  1.00  0.00     0.123 C 
HETATM    6  N1  UNL     1      31.051   5.264  48.607  1.00  0.00    -0.170 NA
HETATM    7  N2  UNL     1      32.112   5.379  49.529  1.00  0.00    -0.184 N 
HETATM    8  O2  UNL     1      33.275   6.068  49.517  1.00  0.00    -0.248 OA
HETATM    9  C7  UNL     1      33.402   6.839  48.357  1.00  0.00     0.113 C 
HETATM   10  C8  UNL     1      34.666   7.690  48.455  1.00  0.00     0.054 C 
HETATM   11  C9  UNL     1      33.610   5.933  47.229  1.00  0.00     0.030 C 
HETATM   12  C10 UNL     1      34.009   4.852  46.609  1.00  0.00     0.047 C 
HETATM   13  C12 UNL     1      33.920   4.439  45.188  1.00  0.00     0.016 C 
HETATM   14  C13 UNL     1      33.459   4.928  44.067  1.00  0.00     0.003 C 
HETATM   15  C14 UNL     1      32.809   5.974  43.325  1.00  0.00     0.025 C 
HETATM   16  C15 UNL     1      32.270   7.178  43.516  1.00  0.00     0.142 C 
HETATM   17  O3  UNL     1      31.797   8.389  44.058  1.00  0.00    -0.320 OA
HETATM   18  C16 UNL     1      31.942   8.491  45.435  1.00  0.00     0.104 C 
HETATM   19  C17 UNL     1      30.968   7.791  46.041  1.00  0.00     0.024 C 
HETATM   20  H8  UNL     1      32.050   4.837  50.444  1.00  0.00     0.218 HD
ENDROOT
BRANCH  12  21
HETATM   21  C11 UNL     1      34.688   3.852  47.512  1.00  0.00     0.417 C 
HETATM   22  F1  UNL     1      35.492   3.071  46.660  1.00  0.00    -0.166 F 
HETATM   23  F2  UNL     1      33.739   2.993  48.031  1.00  0.00    -0.166 F 
HETATM   24  F3  UNL     1      35.442   4.416  48.482  1.00  0.00    -0.166 F 
ENDBRANCH  12  21
BRANCH   1  25
HETATM   25  O1  UNL     1      33.939   9.919  45.690  1.00  0.00    -0.353 OA
HETATM   26  C1  UNL     1      35.049   9.249  45.110  1.00  0.00     0.210 C 
ENDBRANCH   1  25
TORSDOF 2
ENDMDL
MODEL 3
REMARK VINA RESULT:      -7.3      2.748      4.859
REMARK  2 active torsions:
REMARK  status: ('A' for Active; 'I' for Inactive)
REMARK    1  A    between atoms: O1_2  and  C2_3 
REMARK    2  A    between atoms: C10_14  and  C11_15 
ROOT
HETATM    1  C2  UNL     1      20.502   2.498  50.354  1.00  0.00     0.098 C 
HETATM    2  C3  UNL     1      21.001   3.589  49.806  1.00  0.00     0.022 C 
HETATM    3  C4  UNL     1      22.145   4.332  50.380  1.00  0.00     0.064 C 
HETATM    4  C5  UNL     1      21.903   4.531  51.821  1.00  0.00     0.064 C 
HETATM    5  C6  UNL     1      23.170   4.600  52.625  1.00  0.00     0.123 C 
HETATM    6  N1  UNL     1      24.077   5.386  52.145  1.00  0.00    -0.170 NA
HETATM    7  N2  UNL     1      24.653   5.381  50.858  1.00  0.00    -0.184 N 
HETATM    8  O2  UNL     1      24.447   4.624  49.757  1.00  0.00    -0.248 OA
HETATM    9  C7  UNL     1      23.426   3.690  49.961  1.00  0.00     0.113 C 
HETATM   10  C8  UNL     1      23.150   2.953  48.653  1.00  0.00     0.054 C 
HETATM   11  C9  UNL     1      23.913   2.681  50.900  1.00  0.00     0.030 C 
HETATM   12  C10 UNL     1      24.790   1.923  51.506  1.00  0.00     0.047 C 
HETATM   13  C12 UNL     1      24.644   0.903  52.572  1.00  0.00     0.016 C 
HETATM   14  C13 UNL     1      23.680   0.379  53.282  1.00  0.00     0.003 C 
HETATM   15  C14 UNL     1      22.291   0.279  53.634  1.00  0.00     0.025 C 
HETATM   16  C15 UNL     1      21.113   0.811  53.307  1.00  0.00     0.142 C 
HETATM   17  O3  UNL     1      20.070   1.562  52.731  1.00  0.00    -0.320 OA
HETATM   18  C16 UNL     1      20.494   2.504  51.802  1.00  0.00     0.104 C 
HETATM   19  C17 UNL     1      20.973   3.583  52.445  1.00  0.00     0.024 C 
HETATM   20  H8  UNL     1      25.414   6.094  50.640  1.00  0.00     0.218 HD
ENDROOT
BRANCH  12  21
HETATM   21  C11 UNL     1      26.205   2.126  51.020  1.00  0.00     0.417 C 
HETATM   22  F1  UNL     1      26.869   0.917  51.303  1.00  0.00    -0.166 F 
HETATM   23  F2  UNL     1      26.817   3.088  51.799  1.00  0.00    -0.166 F 
HETATM   24  F3  UNL     1      26.293   2.412  49.703  1.00  0.00    -0.166 F 
ENDBRANCH  12  21
BRANCH   1  25
HETATM   25  O1  UNL     1      20.018   1.417  49.638  1.00  0.00    -0.353 OA
HETATM   26  C1  UNL     1      18.645   1.067  49.743  1.00  0.00     0.210 C 
ENDBRANCH   1  25
TORSDOF 2
ENDMDL
MODEL 4
REMARK VINA RESULT:      -7.3      2.483      4.414
REMARK  2 active torsions:
REMARK  status: ('A' for Active; 'I' for Inactive)
REMARK    1  A    between atoms: O1_2  and  C2_3 
REMARK    2  A    between atoms: C10_14  and  C11_15 
ROOT
HETATM    1  C2  UNL     1      21.433   3.791  48.112  1.00  0.00     0.098 C 
HETATM    2  C3  UNL     1      22.353   4.640  48.527  1.00  0.00     0.022 C 
HETATM    3  C4  UNL     1      22.723   4.800  49.951  1.00  0.00     0.064 C 
HETATM    4  C5  UNL     1      21.489   4.932  50.747  1.00  0.00     0.064 C 
HETATM    5  C6  UNL     1      21.635   4.405  52.147  1.00  0.00     0.123 C 
HETATM    6  N1  UNL     1      22.692   4.806  52.772  1.00  0.00    -0.170 NA
HETATM    7  N2  UNL     1      24.041   4.702  52.374  1.00  0.00    -0.184 N 
HETATM    8  O2  UNL     1      24.643   4.207  51.269  1.00  0.00    -0.248 OA
HETATM    9  C7  UNL     1      23.705   3.745  50.339  1.00  0.00     0.113 C 
HETATM   10  C8  UNL     1      24.430   3.318  49.065  1.00  0.00     0.054 C 
HETATM   11  C9  UNL     1      23.087   2.535  50.879  1.00  0.00     0.030 C 
HETATM   12  C10 UNL     1      23.007   1.432  51.577  1.00  0.00     0.047 C 
HETATM   13  C12 UNL     1      21.907   0.453  51.753  1.00  0.00     0.016 C 
HETATM   14  C13 UNL     1      20.682   0.289  51.328  1.00  0.00     0.003 C 
HETATM   15  C14 UNL     1      19.556   0.719  50.547  1.00  0.00     0.025 C 
HETATM   16  C15 UNL     1      19.198   1.709  49.728  1.00  0.00     0.142 C 
HETATM   17  O3  UNL     1      19.154   2.869  48.932  1.00  0.00    -0.320 OA
HETATM   18  C16 UNL     1      20.299   3.652  49.003  1.00  0.00     0.104 C 
HETATM   19  C17 UNL     1      20.276   4.377  50.135  1.00  0.00     0.024 C 
HETATM   20  H8  UNL     1      24.794   5.069  53.032  1.00  0.00     0.218 HD
ENDROOT
BRANCH  12  21
HETATM   21  C11 UNL     1      24.271   1.100  52.332  1.00  0.00     0.417 C 
HETATM   22  F1  UNL     1      24.082  -0.211  52.809  1.00  0.00    -0.166 F 
HETATM   23  F2  UNL     1      24.353   1.903  53.452  1.00  0.00    -0.166 F 
HETATM   24  F3  UNL     1      25.390   1.167  51.579  1.00  0.00    -0.166 F 
ENDBRANCH  12  21
BRANCH   1  25
HETATM   25  O1  UNL     1      21.509   3.074  46.931  1.00  0.00    -0.353 OA
HETATM   26  C1  UNL     1      21.863   3.741  45.728  1.00  0.00     0.210 C 
ENDBRANCH   1  25
TORSDOF 2
ENDMDL
MODEL 5
REMARK VINA RESULT:      -7.2      8.649     11.089
REMARK  2 active torsions:
REMARK  status: ('A' for Active; 'I' for Inactive)
REMARK    1  A    between atoms: O1_2  and  C2_3 
REMARK    2  A    between atoms: C10_14  and  C11_15 
ROOT
HETATM    1  C2  UNL     1      33.530   5.871  45.537  1.00  0.00     0.098 C 
HETATM    2  C3  UNL     1      33.622   5.402  46.766  1.00  0.00     0.022 C 
HETATM    3  C4  UNL     1      32.982   6.055  47.931  1.00  0.00     0.064 C 
HETATM    4  C5  UNL     1      33.293   7.495  47.893  1.00  0.00     0.064 C 
HETATM    5  C6  UNL     1      32.219   8.344  48.514  1.00  0.00     0.123 C 
HETATM    6  N1  UNL     1      31.806   7.939  49.670  1.00  0.00    -0.170 NA
HETATM    7  N2  UNL     1      31.299   6.673  50.029  1.00  0.00    -0.184 N 
HETATM    8  O2  UNL     1      31.110   5.525  49.340  1.00  0.00    -0.248 OA
HETATM    9  C7  UNL     1      31.550   5.642  48.017  1.00  0.00     0.113 C 
HETATM   10  C8  UNL     1      31.433   4.286  47.327  1.00  0.00     0.054 C 
HETATM   11  C9  UNL     1      30.636   6.538  47.311  1.00  0.00     0.030 C 
HETATM   12  C10 UNL     1      29.502   7.128  47.034  1.00  0.00     0.047 C 
HETATM   13  C12 UNL     1      29.137   8.129  46.004  1.00  0.00     0.016 C 
HETATM   14  C13 UNL     1      29.726   8.777  45.033  1.00  0.00     0.003 C 
HETATM   15  C14 UNL     1      30.893   9.077  44.251  1.00  0.00     0.025 C 
HETATM   16  C15 UNL     1      32.181   8.742  44.167  1.00  0.00     0.142 C 
HETATM   17  O3  UNL     1      33.457   8.176  44.356  1.00  0.00    -0.320 OA
HETATM   18  C16 UNL     1      33.542   7.316  45.443  1.00  0.00     0.104 C 
HETATM   19  C17 UNL     1      33.647   8.034  46.575  1.00  0.00     0.024 C 
HETATM   20  H8  UNL     1      30.979   6.521  51.033  1.00  0.00     0.218 HD
ENDROOT
BRANCH  12  21
HETATM   21  C11 UNL     1      28.363   6.701  47.928  1.00  0.00     0.417 C 
HETATM   22  F1  UNL     1      27.198   7.165  47.287  1.00  0.00    -0.166 F 
HETATM   23  F2  UNL     1      28.441   7.391  49.121  1.00  0.00    -0.166 F 
HETATM   24  F3  UNL     1      28.292   5.366  48.120  1.00  0.00    -0.166 F 
ENDBRANCH  12  21
BRANCH   1  25
HETATM   25  O1  UNL     1      33.429   5.080  44.406  1.00  0.00    -0.353 OA
HETATM   26  C1  UNL     1      34.557   4.923  43.558  1.00  0.00     0.210 C 
ENDBRANCH   1  25
TORSDOF 2
ENDMDL
MODEL 6
REMARK VINA RESULT:      -7.0      3.699      5.527
REMARK  2 active torsions:
REMARK  status: ('A' for Active; 'I' for Inactive)
REMARK    1  A    between atoms: O1_2  and  C2_3 
REMARK    2  A    between atoms: C10_14  and  C11_15 
ROOT
HETATM    1  C2  UNL     1      21.719   3.169  52.383  1.00  0.00     0.098 C 
HETATM    2  C3  UNL     1      22.600   4.069  52.773  1.00  0.00     0.022 C 
HETATM    3  C4  UNL     1      23.792   4.432  51.975  1.00  0.00     0.064 C 
HETATM    4  C5  UNL     1      24.465   3.194  51.542  1.00  0.00     0.064 C 
HETATM    5  C6  UNL     1      25.191   3.346  50.235  1.00  0.00     0.123 C 
HETATM    6  N1  UNL     1      25.943   4.394  50.149  1.00  0.00    -0.170 NA
HETATM    7  N2  UNL     1      25.594   5.745  50.347  1.00  0.00    -0.184 N 
HETATM    8  O2  UNL     1      24.440   6.360  50.696  1.00  0.00    -0.248 OA
HETATM    9  C7  UNL     1      23.419   5.435  50.934  1.00  0.00     0.113 C 
HETATM   10  C8  UNL     1      22.183   6.172  51.447  1.00  0.00     0.054 C 
HETATM   11  C9  UNL     1      23.035   4.840  49.655  1.00  0.00     0.030 C 
HETATM   12  C10 UNL     1      22.849   4.780  48.362  1.00  0.00     0.047 C 
HETATM   13  C12 UNL     1      22.332   3.701  47.488  1.00  0.00     0.016 C 
HETATM   14  C13 UNL     1      21.884   2.481  47.622  1.00  0.00     0.003 C 
HETATM   15  C14 UNL     1      21.551   1.348  48.440  1.00  0.00     0.025 C 
HETATM   16  C15 UNL     1      21.564   0.972  49.720  1.00  0.00     0.142 C 
HETATM   17  O3  UNL     1      21.710   0.906  51.119  1.00  0.00    -0.320 OA
HETATM   18  C16 UNL     1      22.289   2.035  51.684  1.00  0.00     0.104 C 
HETATM   19  C17 UNL     1      23.620   1.995  51.501  1.00  0.00     0.024 C 
HETATM   20  H8  UNL     1      26.344   6.489  50.210  1.00  0.00     0.218 HD
ENDROOT
BRANCH  12  21
HETATM   21  C11 UNL     1      23.229   6.049  47.637  1.00  0.00     0.417 C 
HETATM   22  F1  UNL     1      22.491   7.069  48.267  1.00  0.00    -0.166 F 
HETATM   23  F2  UNL     1      22.759   5.987  46.340  1.00  0.00    -0.166 F 
HETATM   24  F3  UNL     1      24.550   6.329  47.682  1.00  0.00    -0.166 F 
ENDBRANCH  12  21
BRANCH   1  25
HETATM   25  O1  UNL     1      20.356   3.263  52.605  1.00  0.00    -0.353 OA
HETATM   26  C1  UNL     1      19.497   3.635  51.537  1.00  0.00     0.210 C 
ENDBRANCH   1  25
TORSDOF 2
ENDMDL
MODEL 7
REMARK VINA RESULT:      -6.9      4.274      5.743
REMARK  2 active torsions:
REMARK  status: ('A' for Active; 'I' for Inactive)
REMARK    1  A    between atoms: O1_2  and  C2_3 
REMARK    2  A    between atoms: C10_14  and  C11_15 
ROOT
HETATM    1  C2  UNL     1      21.683   3.779  49.411  1.00  0.00     0.098 C 
HETATM    2  C3  UNL     1      21.375   5.050  49.242  1.00  0.00     0.022 C 
HETATM    3  C4  UNL     1      22.214   6.159  49.748  1.00  0.00     0.064 C 
HETATM    4  C5  UNL     1      22.560   5.886  51.155  1.00  0.00     0.064 C 
HETATM    5  C6  UNL     1      23.884   6.469  51.558  1.00  0.00     0.123 C 
HETATM    6  N1  UNL     1      24.061   7.704  51.219  1.00  0.00    -0.170 NA
HETATM    7  N2  UNL     1      23.962   8.286  49.939  1.00  0.00    -0.184 N 
HETATM    8  O2  UNL     1      23.647   7.792  48.720  1.00  0.00    -0.248 OA
HETATM    9  C7  UNL     1      23.324   6.432  48.788  1.00  0.00     0.113 C 
HETATM   10  C8  UNL     1      22.853   5.959  47.414  1.00  0.00     0.054 C 
HETATM   11  C9  UNL     1      24.548   5.687  49.076  1.00  0.00     0.030 C 
HETATM   12  C10 UNL     1      25.830   5.429  49.073  1.00  0.00     0.047 C 
HETATM   13  C12 UNL     1      26.612   4.302  49.633  1.00  0.00     0.016 C 
HETATM   14  C13 UNL     1      26.378   3.199  50.295  1.00  0.00     0.003 C 
HETATM   15  C14 UNL     1      25.471   2.280  50.925  1.00  0.00     0.025 C 
HETATM   16  C15 UNL     1      24.166   2.131  51.159  1.00  0.00     0.142 C 
HETATM   17  O3  UNL     1      22.769   2.286  51.230  1.00  0.00    -0.320 OA
HETATM   18  C16 UNL     1      22.300   3.475  50.686  1.00  0.00     0.104 C 
HETATM   19  C17 UNL     1      22.497   4.477  51.561  1.00  0.00     0.024 C 
HETATM   20  H8  UNL     1      24.167   9.327  49.837  1.00  0.00     0.218 HD
ENDROOT
BRANCH  12  21
HETATM   21  C11 UNL     1      26.656   6.474  48.361  1.00  0.00     0.417 C 
HETATM   22  F1  UNL     1      27.847   5.817  47.996  1.00  0.00    -0.166 F 
HETATM   23  F2  UNL     1      27.023   7.452  49.262  1.00  0.00    -0.166 F 
HETATM   24  F3  UNL     1      26.054   6.993  47.269  1.00  0.00    -0.166 F 
ENDBRANCH  12  21
BRANCH   1  25
HETATM   25  O1  UNL     1      21.450   2.789  48.473  1.00  0.00    -0.353 OA
HETATM   26  C1  UNL     1      22.534   2.279  47.709  1.00  0.00     0.210 C 
ENDBRANCH   1  25
TORSDOF 2
ENDMDL
MODEL 8
REMARK VINA RESULT:      -6.7      8.046     10.282
REMARK  2 active torsions:
REMARK  status: ('A' for Active; 'I' for Inactive)
REMARK    1  A    between atoms: O1_2  and  C2_3 
REMARK    2  A    between atoms: C10_14  and  C11_15 
ROOT
HETATM    1  C2  UNL     1      28.837   9.942  46.465  1.00  0.00     0.098 C 
HETATM    2  C3  UNL     1      30.118  10.253  46.445  1.00  0.00     0.022 C 
HETATM    3  C4  UNL     1      31.118   9.622  47.336  1.00  0.00     0.064 C 
HETATM    4  C5  UNL     1      30.596   9.635  48.715  1.00  0.00     0.064 C 
HETATM    5  C6  UNL     1      31.096   8.486  49.543  1.00  0.00     0.123 C 
HETATM    6  N1  UNL     1      32.371   8.284  49.481  1.00  0.00    -0.170 NA
HETATM    7  N2  UNL     1      33.173   8.078  48.340  1.00  0.00    -0.184 N 
HETATM    8  O2  UNL     1      32.905   8.050  47.015  1.00  0.00    -0.248 OA
HETATM    9  C7  UNL     1      31.556   8.317  46.759  1.00  0.00     0.113 C 
HETATM   10  C8  UNL     1      31.338   8.400  45.250  1.00  0.00     0.054 C 
HETATM   11  C9  UNL     1      30.770   7.175  47.222  1.00  0.00     0.030 C 
HETATM   12  C10 UNL     1      30.515   5.924  47.506  1.00  0.00     0.047 C 
HETATM   13  C12 UNL     1      29.304   5.262  48.046  1.00  0.00     0.016 C 
HETATM   14  C13 UNL     1      28.100   5.607  48.422  1.00  0.00     0.003 C 
HETATM   15  C14 UNL     1      27.085   6.603  48.626  1.00  0.00     0.025 C 
HETATM   16  C15 UNL     1      26.899   7.916  48.485  1.00  0.00     0.142 C 
HETATM   17  O3  UNL     1      27.041   9.291  48.216  1.00  0.00    -0.320 OA
HETATM   18  C16 UNL     1      28.309   9.658  47.784  1.00  0.00     0.104 C 
HETATM   19  C17 UNL     1      29.137   9.736  48.840  1.00  0.00     0.024 C 
HETATM   20  H8  UNL     1      34.215   7.902  48.478  1.00  0.00     0.218 HD
ENDROOT
BRANCH  12  21
HETATM   21  C11 UNL     1      31.668   4.992  47.225  1.00  0.00     0.417 C 
HETATM   22  F1  UNL     1      31.102   3.703  47.198  1.00  0.00    -0.166 F 
HETATM   23  F2  UNL     1      32.533   5.004  48.302  1.00  0.00    -0.166 F 
HETATM   24  F3  UNL     1      32.306   5.249  46.062  1.00  0.00    -0.166 F 
ENDBRANCH  12  21
BRANCH   1  25
HETATM   25  O1  UNL     1      28.031   9.882  45.342  1.00  0.00    -0.353 OA
HETATM   26  C1  UNL     1      27.673   8.618  44.803  1.00  0.00     0.210 C 
ENDBRANCH   1  25
TORSDOF 2
ENDMDL
MODEL 9
REMARK VINA RESULT:      -6.7      9.072     11.450
REMARK  2 active torsions:
REMARK  status: ('A' for Active; 'I' for Inactive)
REMARK    1  A    between atoms: O1_2  and  C2_3 
REMARK    2  A    between atoms: C10_14  and  C11_15 
ROOT
HETATM    1  C2  UNL     1      32.077   9.258  46.005  1.00  0.00     0.098 C 
HETATM    2  C3  UNL     1      33.332   8.878  45.867  1.00  0.00     0.022 C 
HETATM    3  C4  UNL     1      33.949   7.813  46.690  1.00  0.00     0.064 C 
HETATM    4  C5  UNL     1      33.629   8.067  48.107  1.00  0.00     0.064 C 
HETATM    5  C6  UNL     1      33.549   6.809  48.925  1.00  0.00     0.123 C 
HETATM    6  N1  UNL     1      34.537   5.990  48.762  1.00  0.00    -0.170 NA
HETATM    7  N2  UNL     1      35.020   5.425  47.565  1.00  0.00    -0.184 N 
HETATM    8  O2  UNL     1      34.659   5.557  46.268  1.00  0.00    -0.248 OA
HETATM    9  C7  UNL     1      33.614   6.475  46.119  1.00  0.00     0.113 C 
HETATM   10  C8  UNL     1      33.335   6.681  44.632  1.00  0.00     0.054 C 
HETATM   11  C9  UNL     1      32.402   5.881  46.681  1.00  0.00     0.030 C 
HETATM   12  C10 UNL     1      31.576   4.928  47.024  1.00  0.00     0.047 C 
HETATM   13  C12 UNL     1      30.249   4.962  47.684  1.00  0.00     0.016 C 
HETATM   14  C13 UNL     1      29.424   5.862  48.150  1.00  0.00     0.003 C 
HETATM   15  C14 UNL     1      29.075   7.232  48.407  1.00  0.00     0.025 C 
HETATM   16  C15 UNL     1      29.567   8.461  48.242  1.00  0.00     0.142 C 
HETATM   17  O3  UNL     1      30.360   9.578  47.920  1.00  0.00    -0.320 OA
HETATM   18  C16 UNL     1      31.596   9.260  47.371  1.00  0.00     0.104 C 
HETATM   19  C17 UNL     1      32.439   8.890  48.351  1.00  0.00     0.024 C 
HETATM   20  H8  UNL     1      35.837   4.743  47.619  1.00  0.00     0.218 HD
ENDROOT
BRANCH  12  21
HETATM   21  C11 UNL     1      32.069   3.544  46.676  1.00  0.00     0.417 C 
HETATM   22  F1  UNL     1      30.914   2.741  46.632  1.00  0.00    -0.166 F 
HETATM   23  F2  UNL     1      32.830   3.059  47.721  1.00  0.00    -0.166 F 
HETATM   24  F3  UNL     1      32.729   3.481  45.499  1.00  0.00    -0.166 F 
ENDBRANCH  12  21
BRANCH   1  25
HETATM   25  O1  UNL     1      31.256   9.633  44.955  1.00  0.00    -0.353 OA
HETATM   26  C1  UNL     1      30.189   8.782  44.562  1.00  0.00     0.210 C 
ENDBRANCH   1  25
TORSDOF 2
ENDMDL
