MODEL 1
REMARK VINA RESULT:      -7.2      0.000      0.000
REMARK  1 active torsions:
REMARK  status: ('A' for Active; 'I' for Inactive)
REMARK    1  A    between atoms: C9_15  and  C10_16 
ROOT
HETATM    1  C1  UNL     1      25.565   4.378  49.647  1.00  0.00     0.018 C 
HETATM    2  C2  UNL     1      24.238   3.887  49.936  1.00  0.00     0.088 C 
HETATM    3  C3  UNL     1      23.497   3.123  48.900  1.00  0.00     0.366 A 
HETATM    4  O1  UNL     1      22.308   3.465  48.810  1.00  0.00    -0.143 OA
HETATM    5  N1  UNL     1      22.774   2.368  47.881  1.00  0.00     0.142 N 
HETATM    6  C4  UNL     1      21.223   2.641  47.673  1.00  0.00     0.306 A 
HETATM    7  N2  UNL     1      20.110   2.866  47.470  1.00  0.00    -0.226 NA
HETATM    8  C5  UNL     1      19.071   2.527  48.326  1.00  0.00     0.146 A 
HETATM    9  C6  UNL     1      19.529   1.872  49.478  1.00  0.00     0.069 A 
HETATM   10  S1  UNL     1      21.313   1.715  49.357  1.00  0.00    -0.034 SA
HETATM   11  S2  UNL     1      20.087   1.083  50.864  1.00  0.00    -0.051 SA
HETATM   12  C7  UNL     1      20.935   2.287  52.052  1.00  0.00     0.143 C 
HETATM   13  N3  UNL     1      21.970   1.982  52.619  1.00  0.00    -0.411 NA
HETATM   14  C8  UNL     1      23.030   1.272  53.000  1.00  0.00     0.216 C 
HETATM   15  C9  UNL     1      24.366   1.397  52.638  1.00  0.00     0.083 C 
HETATM   16  O2  UNL     1      25.012   2.361  51.709  1.00  0.00    -0.345 OA
HETATM   17  C14 UNL     1      23.925   3.243  51.295  1.00  0.00     0.154 C 
HETATM   18  C15 UNL     1      23.435   4.158  52.341  1.00  0.00     0.147 C 
HETATM   19  N4  UNL     1      22.057   4.566  52.152  1.00  0.00    -0.412 N 
HETATM   20  C16 UNL     1      21.107   3.607  52.599  1.00  0.00     0.195 C 
HETATM   21  H5  UNL     1      22.944   1.663  47.175  1.00  0.00     0.332 HD
HETATM   22  H20 UNL     1      21.844   5.189  51.404  1.00  0.00     0.153 HD
ENDROOT
BRANCH  15  23
HETATM   23  C10 UNL     1      25.486   0.577  53.093  1.00  0.00     0.000 C 
HETATM   24  C11 UNL     1      26.319   1.349  54.089  1.00  0.00     0.021 C 
HETATM   25  C12 UNL     1      24.958  -0.683  53.769  1.00  0.00     0.021 C 
HETATM   26  C13 UNL     1      26.376   0.153  51.953  1.00  0.00     0.021 C 
ENDBRANCH  15  23
TORSDOF 1
ENDMDL
MODEL 2
REMARK VINA RESULT:      -6.9      2.799      4.840
REMARK  1 active torsions:
REMARK  status: ('A' for Active; 'I' for Inactive)
REMARK    1  A    between atoms: C9_15  and  C10_16 
ROOT
HETATM    1  C1  UNL     1      26.020   1.350  52.716  1.00  0.00     0.018 C 
HETATM    2  C2  UNL     1      25.579   2.524  52.001  1.00  0.00     0.088 C 
HETATM    3  C3  UNL     1      26.134   2.816  50.654  1.00  0.00     0.366 A 
HETATM    4  O1  UNL     1      26.426   4.011  50.504  1.00  0.00    -0.143 OA
HETATM    5  N1  UNL     1      26.678   3.096  49.329  1.00  0.00     0.142 N 
HETATM    6  C4  UNL     1      27.053   4.591  48.948  1.00  0.00     0.306 A 
HETATM    7  N2  UNL     1      27.383   5.662  48.675  1.00  0.00    -0.226 NA
HETATM    8  C5  UNL     1      26.512   6.717  48.438  1.00  0.00     0.146 A 
HETATM    9  C6  UNL     1      25.170   6.332  48.569  1.00  0.00     0.069 A 
HETATM   10  S1  UNL     1      25.129   4.584  48.973  1.00  0.00    -0.034 SA
HETATM   11  S2  UNL     1      23.555   5.862  48.728  1.00  0.00    -0.051 SA
HETATM   12  C7  UNL     1      23.080   5.619  50.543  1.00  0.00     0.143 C 
HETATM   13  N3  UNL     1      22.396   4.671  50.889  1.00  0.00    -0.411 NA
HETATM   14  C8  UNL     1      21.675   3.554  50.823  1.00  0.00     0.216 C 
HETATM   15  C9  UNL     1      22.000   2.257  51.205  1.00  0.00     0.083 C 
HETATM   16  O2  UNL     1      23.257   1.728  51.796  1.00  0.00    -0.345 OA
HETATM   17  C14 UNL     1      24.092   2.910  51.979  1.00  0.00     0.154 C 
HETATM   18  C15 UNL     1      23.650   3.822  53.049  1.00  0.00     0.147 C 
HETATM   19  N4  UNL     1      24.069   5.196  52.845  1.00  0.00    -0.412 N 
HETATM   20  C16 UNL     1      23.246   5.919  51.940  1.00  0.00     0.195 C 
HETATM   21  H5  UNL     1      26.939   2.607  48.481  1.00  0.00     0.332 HD
HETATM   22  H20 UNL     1      25.034   5.419  52.953  1.00  0.00     0.153 HD
ENDROOT
BRANCH  15  23
HETATM   23  C10 UNL     1      21.158   1.068  51.102  1.00  0.00     0.000 C 
HETATM   24  C11 UNL     1      21.170   0.548  49.684  1.00  0.00     0.021 C 
HETATM   25  C12 UNL     1      21.690  -0.020  52.027  1.00  0.00     0.021 C 
HETATM   26  C13 UNL     1      19.730   1.351  51.494  1.00  0.00     0.021 C 
ENDBRANCH  15  23
TORSDOF 1
ENDMDL
MODEL 3
REMARK VINA RESULT:      -6.8      2.522      5.365
REMARK  1 active torsions:
REMARK  status: ('A' for Active; 'I' for Inactive)
REMARK    1  A    between atoms: C9_15  and  C10_16 
ROOT
HETATM    1  C1  UNL     1      26.500   4.056  49.329  1.00  0.00     0.018 C 
HETATM    2  C2  UNL     1      25.320   3.429  49.877  1.00  0.00     0.088 C 
HETATM    3  C3  UNL     1      25.319   2.975  51.291  1.00  0.00     0.366 A 
HETATM    4  O1  UNL     1      24.809   1.854  51.434  1.00  0.00    -0.143 OA
HETATM    5  N1  UNL     1      25.320   2.535  52.682  1.00  0.00     0.142 N 
HETATM    6  C4  UNL     1      24.652   1.142  53.053  1.00  0.00     0.306 A 
HETATM    7  N2  UNL     1      24.222   0.109  53.330  1.00  0.00    -0.226 NA
HETATM    8  C5  UNL     1      22.869  -0.205  53.329  1.00  0.00     0.146 A 
HETATM    9  C6  UNL     1      22.075   0.885  52.949  1.00  0.00     0.069 A 
HETATM   10  S1  UNL     1      23.158   2.282  52.637  1.00  0.00    -0.034 SA
HETATM   11  S2  UNL     1      21.122   2.203  52.490  1.00  0.00    -0.051 SA
HETATM   12  C7  UNL     1      21.249   2.535  50.632  1.00  0.00     0.143 C 
HETATM   13  N3  UNL     1      21.344   3.672  50.204  1.00  0.00    -0.411 NA
HETATM   14  C8  UNL     1      21.431   5.001  50.180  1.00  0.00     0.216 C 
HETATM   15  C9  UNL     1      22.528   5.820  49.941  1.00  0.00     0.083 C 
HETATM   16  O2  UNL     1      23.939   5.457  49.647  1.00  0.00    -0.345 OA
HETATM   17  C14 UNL     1      23.925   3.999  49.575  1.00  0.00     0.154 C 
HETATM   18  C15 UNL     1      23.247   3.442  48.392  1.00  0.00     0.147 C 
HETATM   19  N4  UNL     1      22.719   2.108  48.604  1.00  0.00    -0.412 N 
HETATM   20  C16 UNL     1      21.472   2.084  49.283  1.00  0.00     0.195 C 
HETATM   21  H5  UNL     1      25.650   2.840  53.590  1.00  0.00     0.332 HD
HETATM   22  H20 UNL     1      23.362   1.350  48.683  1.00  0.00     0.153 HD
ENDROOT
BRANCH  15  23
HETATM   23  C10 UNL     1      22.556   7.281  49.933  1.00  0.00     0.000 C 
HETATM   24  C11 UNL     1      22.717   7.785  48.519  1.00  0.00     0.021 C 
HETATM   25  C12 UNL     1      21.248   7.822  50.500  1.00  0.00     0.021 C 
HETATM   26  C13 UNL     1      23.685   7.830  50.768  1.00  0.00     0.021 C 
ENDBRANCH  15  23
TORSDOF 1
ENDMDL
MODEL 4
REMARK VINA RESULT:      -6.7      2.324      6.072
REMARK  1 active torsions:
REMARK  status: ('A' for Active; 'I' for Inactive)
REMARK    1  A    between atoms: C9_15  and  C10_16 
ROOT
HETATM    1  C1  UNL     1      20.080   3.010  52.332  1.00  0.00     0.018 C 
HETATM    2  C2  UNL     1      21.483   3.215  52.060  1.00  0.00     0.088 C 
HETATM    3  C3  UNL     1      22.423   2.069  52.148  1.00  0.00     0.366 A 
HETATM    4  O1  UNL     1      23.480   2.359  52.729  1.00  0.00    -0.143 OA
HETATM    5  N1  UNL     1      23.343   0.939  52.231  1.00  0.00     0.142 N 
HETATM    6  C4  UNL     1      24.770   1.151  52.896  1.00  0.00     0.306 A 
HETATM    7  N2  UNL     1      25.787   1.274  53.427  1.00  0.00    -0.226 NA
HETATM    8  C5  UNL     1      26.859   1.990  52.913  1.00  0.00     0.146 A 
HETATM    9  C6  UNL     1      26.567   2.554  51.664  1.00  0.00     0.069 A 
HETATM   10  S1  UNL     1      24.893   2.086  51.219  1.00  0.00    -0.034 SA
HETATM   11  S2  UNL     1      26.209   3.232  50.158  1.00  0.00    -0.051 SA
HETATM   12  C7  UNL     1      25.045   4.715  50.325  1.00  0.00     0.143 C 
HETATM   13  N3  UNL     1      24.117   4.872  49.551  1.00  0.00    -0.411 NA
HETATM   14  C8  UNL     1      23.276   4.660  48.540  1.00  0.00     0.216 C 
HETATM   15  C9  UNL     1      21.963   4.204  48.552  1.00  0.00     0.083 C 
HETATM   16  O2  UNL     1      21.104   3.809  49.699  1.00  0.00    -0.345 OA
HETATM   17  C14 UNL     1      21.926   4.084  50.873  1.00  0.00     0.154 C 
HETATM   18  C15 UNL     1      22.132   5.514  51.165  1.00  0.00     0.147 C 
HETATM   19  N4  UNL     1      23.356   5.784  51.894  1.00  0.00    -0.412 N 
HETATM   20  C16 UNL     1      24.516   5.823  51.074  1.00  0.00     0.195 C 
HETATM   21  H5  UNL     1      23.382  -0.045  51.996  1.00  0.00     0.332 HD
HETATM   22  H20 UNL     1      23.411   5.505  52.849  1.00  0.00     0.153 HD
ENDROOT
BRANCH  15  23
HETATM   23  C10 UNL     1      21.092   3.990  47.399  1.00  0.00     0.000 C 
HETATM   24  C11 UNL     1      21.917   3.610  46.192  1.00  0.00     0.021 C 
HETATM   25  C12 UNL     1      20.113   2.860  47.697  1.00  0.00     0.021 C 
HETATM   26  C13 UNL     1      20.289   5.221  47.060  1.00  0.00     0.021 C 
ENDBRANCH  15  23
TORSDOF 1
ENDMDL
MODEL 5
REMARK VINA RESULT:      -6.7      7.885     11.072
REMARK  1 active torsions:
REMARK  status: ('A' for Active; 'I' for Inactive)
REMARK    1  A    between atoms: C9_15  and  C10_16 
ROOT
HETATM    1  C1  UNL     1      26.900   5.814  48.644  1.00  0.00     0.018 C 
HETATM    2  C2  UNL     1      28.137   6.555  48.573  1.00  0.00     0.088 C 
HETATM    3  C3  UNL     1      29.352   5.904  48.022  1.00  0.00     0.366 A 
HETATM    4  O1  UNL     1      30.368   6.138  48.692  1.00  0.00    -0.143 OA
HETATM    5  N1  UNL     1      30.543   5.261  47.475  1.00  0.00     0.142 N 
HETATM    6  C4  UNL     1      31.945   5.503  48.180  1.00  0.00     0.306 A 
HETATM    7  N2  UNL     1      32.961   5.623  48.713  1.00  0.00    -0.226 NA
HETATM    8  C5  UNL     1      33.710   6.792  48.724  1.00  0.00     0.146 A 
HETATM    9  C6  UNL     1      33.088   7.823  48.006  1.00  0.00     0.069 A 
HETATM   10  S1  UNL     1      31.553   7.184  47.330  1.00  0.00    -0.034 SA
HETATM   11  S2  UNL     1      32.334   9.062  47.140  1.00  0.00    -0.051 SA
HETATM   12  C7  UNL     1      30.855   9.768  48.086  1.00  0.00     0.143 C 
HETATM   13  N3  UNL     1      29.811  10.026  47.513  1.00  0.00    -0.411 NA
HETATM   14  C8  UNL     1      28.913  10.153  46.538  1.00  0.00     0.216 C 
HETATM   15  C9  UNL     1      27.788   9.387  46.254  1.00  0.00     0.083 C 
HETATM   16  O2  UNL     1      27.254   8.189  46.953  1.00  0.00    -0.345 OA
HETATM   17  C14 UNL     1      28.143   8.017  48.098  1.00  0.00     0.154 C 
HETATM   18  C15 UNL     1      27.999   9.035  49.153  1.00  0.00     0.147 C 
HETATM   19  N4  UNL     1      29.203   9.225  49.939  1.00  0.00    -0.412 N 
HETATM   20  C16 UNL     1      30.170  10.060  49.317  1.00  0.00     0.195 C 
HETATM   21  H5  UNL     1      30.808   4.634  46.725  1.00  0.00     0.332 HD
HETATM   22  H20 UNL     1      29.477   8.504  50.570  1.00  0.00     0.153 HD
ENDROOT
BRANCH  15  23
HETATM   23  C10 UNL     1      26.840   9.580  45.160  1.00  0.00     0.000 C 
HETATM   24  C11 UNL     1      27.003   8.482  44.136  1.00  0.00     0.021 C 
HETATM   25  C12 UNL     1      25.416   9.538  45.701  1.00  0.00     0.021 C 
HETATM   26  C13 UNL     1      27.034  10.908  44.471  1.00  0.00     0.021 C 
ENDBRANCH  15  23
TORSDOF 1
ENDMDL
MODEL 6
REMARK VINA RESULT:      -6.7     10.217     12.935
REMARK  1 active torsions:
REMARK  status: ('A' for Active; 'I' for Inactive)
REMARK    1  A    between atoms: C9_15  and  C10_16 
ROOT
HETATM    1  C1  UNL     1      32.460   3.174  46.710  1.00  0.00     0.018 C 
HETATM    2  C2  UNL     1      33.026   4.414  46.236  1.00  0.00     0.088 C 
HETATM    3  C3  UNL     1      33.115   4.670  44.776  1.00  0.00     0.366 A 
HETATM    4  O1  UNL     1      34.204   5.160  44.439  1.00  0.00    -0.143 OA
HETATM    5  N1  UNL     1      33.196   4.920  43.340  1.00  0.00     0.142 N 
HETATM    6  C4  UNL     1      34.503   5.598  42.745  1.00  0.00     0.306 A 
HETATM    7  N2  UNL     1      35.468   6.038  42.291  1.00  0.00    -0.226 NA
HETATM    8  C5  UNL     1      35.882   7.353  42.449  1.00  0.00     0.146 A 
HETATM    9  C6  UNL     1      34.989   8.097  43.232  1.00  0.00     0.069 A 
HETATM   10  S1  UNL     1      33.629   7.023  43.698  1.00  0.00    -0.034 SA
HETATM   11  S2  UNL     1      33.908   8.990  44.176  1.00  0.00    -0.051 SA
HETATM   12  C7  UNL     1      34.038   8.522  46.005  1.00  0.00     0.143 C 
HETATM   13  N3  UNL     1      33.038   8.385  46.688  1.00  0.00    -0.411 NA
HETATM   14  C8  UNL     1      31.754   8.342  47.039  1.00  0.00     0.216 C 
HETATM   15  C9  UNL     1      30.932   7.248  47.284  1.00  0.00     0.083 C 
HETATM   16  O2  UNL     1      31.240   5.795  47.221  1.00  0.00    -0.345 OA
HETATM   17  C14 UNL     1      32.666   5.745  46.915  1.00  0.00     0.154 C 
HETATM   18  C15 UNL     1      33.552   6.164  48.015  1.00  0.00     0.147 C 
HETATM   19  N4  UNL     1      34.831   6.676  47.562  1.00  0.00    -0.412 N 
HETATM   20  C16 UNL     1      34.788   8.030  47.130  1.00  0.00     0.195 C 
HETATM   21  H5  UNL     1      32.649   4.781  42.499  1.00  0.00     0.332 HD
HETATM   22  H20 UNL     1      35.490   6.035  47.177  1.00  0.00     0.153 HD
ENDROOT
BRANCH  15  23
HETATM   23  C10 UNL     1      29.522   7.270  47.664  1.00  0.00     0.000 C 
HETATM   24  C11 UNL     1      29.087   5.895  48.114  1.00  0.00     0.021 C 
HETATM   25  C12 UNL     1      29.315   8.249  48.815  1.00  0.00     0.021 C 
HETATM   26  C13 UNL     1      28.635   7.702  46.524  1.00  0.00     0.021 C 
ENDBRANCH  15  23
TORSDOF 1
ENDMDL
MODEL 7
REMARK VINA RESULT:      -6.6      3.921      6.483
REMARK  1 active torsions:
REMARK  status: ('A' for Active; 'I' for Inactive)
REMARK    1  A    between atoms: C9_15  and  C10_16 
ROOT
HETATM    1  C1  UNL     1      26.070   3.014  50.230  1.00  0.00     0.018 C 
HETATM    2  C2  UNL     1      25.590   4.360  50.026  1.00  0.00     0.088 C 
HETATM    3  C3  UNL     1      26.360   5.293  49.164  1.00  0.00     0.366 A 
HETATM    4  O1  UNL     1      26.457   6.429  49.652  1.00  0.00    -0.143 OA
HETATM    5  N1  UNL     1      27.117   6.204  48.312  1.00  0.00     0.142 N 
HETATM    6  C4  UNL     1      27.289   7.718  48.760  1.00  0.00     0.306 A 
HETATM    7  N2  UNL     1      27.472   8.805  49.099  1.00  0.00    -0.226 NA
HETATM    8  C5  UNL     1      26.496   9.793  49.130  1.00  0.00     0.146 A 
HETATM    9  C6  UNL     1      25.250   9.317  48.700  1.00  0.00     0.069 A 
HETATM   10  S1  UNL     1      25.439   7.590  48.249  1.00  0.00    -0.034 SA
HETATM   11  S2  UNL     1      23.750   8.738  48.180  1.00  0.00    -0.051 SA
HETATM   12  C7  UNL     1      22.947   7.627  49.484  1.00  0.00     0.143 C 
HETATM   13  N3  UNL     1      22.387   6.592  49.166  1.00  0.00    -0.411 NA
HETATM   14  C8  UNL     1      21.911   5.604  48.411  1.00  0.00     0.216 C 
HETATM   15  C9  UNL     1      22.374   4.305  48.245  1.00  0.00     0.083 C 
HETATM   16  O2  UNL     1      23.549   3.629  48.856  1.00  0.00    -0.345 OA
HETATM   17  C14 UNL     1      24.097   4.624  49.772  1.00  0.00     0.154 C 
HETATM   18  C15 UNL     1      23.278   4.885  50.968  1.00  0.00     0.147 C 
HETATM   19  N4  UNL     1      23.476   6.209  51.526  1.00  0.00    -0.412 N 
HETATM   20  C16 UNL     1      22.751   7.230  50.853  1.00  0.00     0.195 C 
HETATM   21  H5  UNL     1      27.638   6.198  47.444  1.00  0.00     0.332 HD
HETATM   22  H20 UNL     1      24.339   6.408  51.983  1.00  0.00     0.153 HD
ENDROOT
BRANCH  15  23
HETATM   23  C10 UNL     1      21.803   3.265  47.393  1.00  0.00     0.000 C 
HETATM   24  C11 UNL     1      21.911   3.669  45.942  1.00  0.00     0.021 C 
HETATM   25  C12 UNL     1      22.563   1.959  47.595  1.00  0.00     0.021 C 
HETATM   26  C13 UNL     1      20.351   3.009  47.710  1.00  0.00     0.021 C 
ENDBRANCH  15  23
TORSDOF 1
ENDMDL
MODEL 8
REMARK VINA RESULT:      -6.6      2.791      4.817
REMARK  1 active torsions:
REMARK  status: ('A' for Active; 'I' for Inactive)
REMARK    1  A    between atoms: C9_15  and  C10_16 
ROOT
HETATM    1  C1  UNL     1      22.024   5.637  46.152  1.00  0.00     0.018 C 
HETATM    2  C2  UNL     1      22.098   5.052  47.469  1.00  0.00     0.088 C 
HETATM    3  C3  UNL     1      22.326   3.591  47.612  1.00  0.00     0.366 A 
HETATM    4  O1  UNL     1      21.600   3.073  48.472  1.00  0.00    -0.143 OA
HETATM    5  N1  UNL     1      22.556   2.156  47.747  1.00  0.00     0.142 N 
HETATM    6  C4  UNL     1      21.747   1.344  48.846  1.00  0.00     0.306 A 
HETATM    7  N2  UNL     1      21.126   0.730  49.600  1.00  0.00    -0.226 NA
HETATM    8  C5  UNL     1      21.281   0.791  50.979  1.00  0.00     0.146 A 
HETATM    9  C6  UNL     1      22.287   1.692  51.357  1.00  0.00     0.069 A 
HETATM   10  S1  UNL     1      22.996   2.394  49.866  1.00  0.00    -0.034 SA
HETATM   11  S2  UNL     1      23.499   2.779  51.808  1.00  0.00    -0.051 SA
HETATM   12  C7  UNL     1      22.936   4.572  51.594  1.00  0.00     0.143 C 
HETATM   13  N3  UNL     1      23.683   5.411  51.121  1.00  0.00    -0.411 NA
HETATM   14  C8  UNL     1      24.770   5.964  50.587  1.00  0.00     0.216 C 
HETATM   15  C9  UNL     1      25.018   6.362  49.278  1.00  0.00     0.083 C 
HETATM   16  O2  UNL     1      24.144   6.282  48.079  1.00  0.00    -0.345 OA
HETATM   17  C14 UNL     1      22.884   5.751  48.589  1.00  0.00     0.154 C 
HETATM   18  C15 UNL     1      22.112   6.684  49.428  1.00  0.00     0.147 C 
HETATM   19  N4  UNL     1      21.239   6.020  50.377  1.00  0.00    -0.412 N 
HETATM   20  C16 UNL     1      21.902   5.571  51.552  1.00  0.00     0.195 C 
HETATM   21  H5  UNL     1      23.105   1.417  47.324  1.00  0.00     0.332 HD
HETATM   22  H20 UNL     1      20.432   5.548  50.031  1.00  0.00     0.153 HD
ENDROOT
BRANCH  15  23
HETATM   23  C10 UNL     1      26.242   6.965  48.755  1.00  0.00     0.000 C 
HETATM   24  C11 UNL     1      27.290   5.899  48.539  1.00  0.00     0.021 C 
HETATM   25  C12 UNL     1      25.950   7.642  47.420  1.00  0.00     0.021 C 
HETATM   26  C13 UNL     1      26.804   8.006  49.689  1.00  0.00     0.021 C 
ENDBRANCH  15  23
TORSDOF 1
ENDMDL
MODEL 9
REMARK VINA RESULT:      -6.6      2.454      4.339
REMARK  1 active torsions:
REMARK  status: ('A' for Active; 'I' for Inactive)
REMARK    1  A    between atoms: C9_15  and  C10_16 
ROOT
HETATM    1  C1  UNL     1      20.483   2.314  52.785  1.00  0.00     0.018 C 
HETATM    2  C2  UNL     1      21.285   3.042  51.831  1.00  0.00     0.088 C 
HETATM    3  C3  UNL     1      21.547   4.489  52.044  1.00  0.00     0.366 A 
HETATM    4  O1  UNL     1      21.430   5.156  51.006  1.00  0.00    -0.143 OA
HETATM    5  N1  UNL     1      21.807   5.909  52.260  1.00  0.00     0.142 N 
HETATM    6  C4  UNL     1      21.755   6.901  51.021  1.00  0.00     0.306 A 
HETATM    7  N2  UNL     1      21.665   7.643  50.143  1.00  0.00    -0.226 NA
HETATM    8  C5  UNL     1      22.571   7.732  49.094  1.00  0.00     0.146 A 
HETATM    9  C6  UNL     1      23.618   6.810  49.222  1.00  0.00     0.069 A 
HETATM   10  S1  UNL     1      23.366   5.887  50.741  1.00  0.00    -0.034 SA
HETATM   11  S2  UNL     1      24.879   5.696  49.381  1.00  0.00    -0.051 SA
HETATM   12  C7  UNL     1      24.302   3.937  48.993  1.00  0.00     0.143 C 
HETATM   13  N3  UNL     1      24.655   2.996  49.682  1.00  0.00    -0.411 NA
HETATM   14  C8  UNL     1      25.254   2.304  50.649  1.00  0.00     0.216 C 
HETATM   15  C9  UNL     1      24.723   1.738  51.803  1.00  0.00     0.083 C 
HETATM   16  O2  UNL     1      23.324   1.743  52.306  1.00  0.00    -0.345 OA
HETATM   17  C14 UNL     1      22.569   2.422  51.257  1.00  0.00     0.154 C 
HETATM   18  C15 UNL     1      22.409   1.653  50.011  1.00  0.00     0.147 C 
HETATM   19  N4  UNL     1      22.220   2.487  48.839  1.00  0.00    -0.412 N 
HETATM   20  C16 UNL     1      23.428   3.019  48.312  1.00  0.00     0.195 C 
HETATM   21  H5  UNL     1      22.019   6.550  53.015  1.00  0.00     0.332 HD
HETATM   22  H20 UNL     1      21.357   2.973  48.736  1.00  0.00     0.153 HD
ENDROOT
BRANCH  15  23
HETATM   23  C10 UNL     1      25.440   0.990  52.831  1.00  0.00     0.000 C 
HETATM   24  C11 UNL     1      24.495   0.047  53.537  1.00  0.00     0.021 C 
HETATM   25  C12 UNL     1      26.556   0.174  52.189  1.00  0.00     0.021 C 
HETATM   26  C13 UNL     1      26.065   1.898  53.860  1.00  0.00     0.021 C 
ENDBRANCH  15  23
TORSDOF 1
ENDMDL
