MODEL 1
REMARK VINA RESULT:      -7.9      0.000      0.000
REMARK  7 active torsions:
REMARK  status: ('A' for Active; 'I' for Inactive)
REMARK    1  A    between atoms: O1_1  and  C1_2 
REMARK    2  A    between atoms: C6_9  and  C7_10 
REMARK    3  A    between atoms: C7_10  and  N1_11 
REMARK    4  A    between atoms: N1_11  and  C8_12 
REMARK    5  A    between atoms: N1_11  and  C15_20 
REMARK    6  A    between atoms: C8_12  and  C9_13 
REMARK    7  A    between atoms: C15_20  and  N2_21 
ROOT
HETATM    1  N1  UNL     1      24.593   2.336  51.861  1.00  0.00    -0.389 N 
ENDROOT
BRANCH   1   2
HETATM    2  C7  UNL     1      25.911   2.158  51.416  1.00  0.00     0.160 C 
BRANCH   2   3
HETATM    3  C6  UNL     1      26.758   1.207  52.144  1.00  0.00    -0.004 A 
HETATM    4  C1  UNL     1      27.741   1.714  53.013  1.00  0.00     0.095 A 
HETATM    5  C2  UNL     1      28.608   0.931  53.738  1.00  0.00     0.069 A 
HETATM    6 CL1  UNL     1      29.792   1.690  54.805  1.00  0.00    -0.081 Cl
HETATM    7  C3  UNL     1      28.535  -0.425  53.624  1.00  0.00     0.050 A 
HETATM    8  C4  UNL     1      27.584  -1.005  52.780  1.00  0.00     0.036 A 
HETATM    9 CL2  UNL     1      27.462  -2.753  52.603  1.00  0.00    -0.084 Cl
HETATM   10  C5  UNL     1      26.731  -0.189  52.071  1.00  0.00     0.035 A 
BRANCH   4  11
HETATM   11  O1  UNL     1      27.858   3.091  53.168  1.00  0.00    -0.358 OA
HETATM   12  H1  UNL     1      28.685   3.627  53.217  1.00  0.00     0.217 HD
ENDBRANCH   4  11
ENDBRANCH   2   3
ENDBRANCH   1   2
BRANCH   1  13
HETATM   13  C8  UNL     1      23.538   1.583  51.316  1.00  0.00     0.157 C 
BRANCH  13  14
HETATM   14  C9  UNL     1      22.948   0.617  52.302  1.00  0.00    -0.041 A 
HETATM   15  C10 UNL     1      23.418  -0.096  53.380  1.00  0.00     0.012 A 
HETATM   16  C11 UNL     1      22.619  -0.891  54.137  1.00  0.00     0.043 A 
HETATM   17  C12 UNL     1      21.269  -1.036  53.873  1.00  0.00     0.116 A 
HETATM   18  F1  UNL     1      20.530  -1.856  54.686  1.00  0.00    -0.206 F 
HETATM   19  C13 UNL     1      20.717  -0.342  52.792  1.00  0.00     0.043 A 
HETATM   20  C14 UNL     1      21.575   0.451  52.057  1.00  0.00     0.012 A 
ENDBRANCH  13  14
ENDBRANCH   1  13
BRANCH   1  21
HETATM   21  C15 UNL     1      24.249   3.519  52.547  1.00  0.00     0.243 C 
BRANCH  21  22
HETATM   22  N2  UNL     1      23.679   4.542  51.655  1.00  0.00    -0.373 N 
HETATM   23  C16 UNL     1      22.286   4.744  51.820  1.00  0.00     0.094 C 
HETATM   24  C17 UNL     1      21.691   5.818  51.381  1.00  0.00     0.062 C 
HETATM   25  S1  UNL     1      22.588   7.110  50.539  1.00  0.00    -0.139 SA
HETATM   26  C18 UNL     1      24.345   6.740  50.699  1.00  0.00     0.098 C 
HETATM   27  C19 UNL     1      24.501   5.244  50.728  1.00  0.00     0.134 C 
ENDBRANCH  21  22
ENDBRANCH   1  21
TORSDOF 7
ENDMDL
MODEL 2
REMARK VINA RESULT:      -7.9      3.118      5.396
REMARK  7 active torsions:
REMARK  status: ('A' for Active; 'I' for Inactive)
REMARK    1  A    between atoms: O1_1  and  C1_2 
REMARK    2  A    between atoms: C6_9  and  C7_10 
REMARK    3  A    between atoms: C7_10  and  N1_11 
REMARK    4  A    between atoms: N1_11  and  C8_12 
REMARK    5  A    between atoms: N1_11  and  C15_20 
REMARK    6  A    between atoms: C8_12  and  C9_13 
REMARK    7  A    between atoms: C15_20  and  N2_21 
ROOT
HETATM    1  N1  UNL     1      24.399   2.428  51.613  1.00  0.00    -0.389 N 
ENDROOT
BRANCH   1   2
HETATM    2  C7  UNL     1      23.583   1.366  51.196  1.00  0.00     0.160 C 
BRANCH   2   3
HETATM    3  C6  UNL     1      22.867   0.606  52.225  1.00  0.00    -0.004 A 
HETATM    4  C1  UNL     1      21.471   0.474  52.113  1.00  0.00     0.095 A 
HETATM    5  C2  UNL     1      20.684  -0.197  53.019  1.00  0.00     0.069 A 
HETATM    6 CL1  UNL     1      18.941  -0.302  52.758  1.00  0.00    -0.081 Cl
HETATM    7  C3  UNL     1      21.266  -0.778  54.105  1.00  0.00     0.050 A 
HETATM    8  C4  UNL     1      22.649  -0.691  54.288  1.00  0.00     0.036 A 
HETATM    9 CL2  UNL     1      23.437  -1.425  55.681  1.00  0.00    -0.084 Cl
HETATM   10  C5  UNL     1      23.406  -0.012  53.358  1.00  0.00     0.035 A 
BRANCH   4  11
HETATM   11  O1  UNL     1      20.827   1.047  51.022  1.00  0.00    -0.358 OA
HETATM   12  H1  UNL     1      21.111   1.830  50.493  1.00  0.00     0.217 HD
ENDBRANCH   4  11
ENDBRANCH   2   3
ENDBRANCH   1   2
BRANCH   1  13
HETATM   13  C8  UNL     1      25.766   2.462  51.282  1.00  0.00     0.157 C 
BRANCH  13  14
HETATM   14  C9  UNL     1      26.571   1.451  52.044  1.00  0.00    -0.041 A 
HETATM   15  C10 UNL     1      26.674   0.079  52.049  1.00  0.00     0.012 A 
HETATM   16  C11 UNL     1      27.546  -0.588  52.848  1.00  0.00     0.043 A 
HETATM   17  C12 UNL     1      28.395   0.074  53.716  1.00  0.00     0.116 A 
HETATM   18  F1  UNL     1      29.249  -0.671  54.489  1.00  0.00    -0.206 F 
HETATM   19  C13 UNL     1      28.349   1.471  53.769  1.00  0.00     0.043 A 
HETATM   20  C14 UNL     1      27.445   2.096  52.935  1.00  0.00     0.012 A 
ENDBRANCH  13  14
ENDBRANCH   1  13
BRANCH   1  21
HETATM   21  C15 UNL     1      23.976   3.247  52.680  1.00  0.00     0.243 C 
BRANCH  21  22
HETATM   22  N2  UNL     1      23.097   4.340  52.236  1.00  0.00    -0.373 N 
HETATM   23  C16 UNL     1      23.784   5.449  51.683  1.00  0.00     0.094 C 
HETATM   24  C17 UNL     1      23.179   6.332  50.939  1.00  0.00     0.062 C 
HETATM   25  S1  UNL     1      21.438   6.208  50.565  1.00  0.00    -0.139 SA
HETATM   26  C18 UNL     1      20.874   4.599  51.150  1.00  0.00     0.098 C 
HETATM   27  C19 UNL     1      21.682   4.240  52.366  1.00  0.00     0.134 C 
ENDBRANCH  21  22
ENDBRANCH   1  21
TORSDOF 7
ENDMDL
MODEL 3
REMARK VINA RESULT:      -7.6      3.404      5.632
REMARK  7 active torsions:
REMARK  status: ('A' for Active; 'I' for Inactive)
REMARK    1  A    between atoms: O1_1  and  C1_2 
REMARK    2  A    between atoms: C6_9  and  C7_10 
REMARK    3  A    between atoms: C7_10  and  N1_11 
REMARK    4  A    between atoms: N1_11  and  C8_12 
REMARK    5  A    between atoms: N1_11  and  C15_20 
REMARK    6  A    between atoms: C8_12  and  C9_13 
REMARK    7  A    between atoms: C15_20  and  N2_21 
ROOT
HETATM    1  N1  UNL     1      25.288   2.265  52.096  1.00  0.00    -0.389 N 
ENDROOT
BRANCH   1   2
HETATM    2  C7  UNL     1      24.262   2.575  53.001  1.00  0.00     0.160 C 
BRANCH   2   3
HETATM    3  C6  UNL     1      23.058   1.737  52.986  1.00  0.00    -0.004 A 
HETATM    4  C1  UNL     1      21.867   2.282  52.475  1.00  0.00     0.095 A 
HETATM    5  C2  UNL     1      20.670   1.608  52.424  1.00  0.00     0.069 A 
HETATM    6 CL1  UNL     1      19.245   2.401  51.746  1.00  0.00    -0.081 Cl
HETATM    7  C3  UNL     1      20.604   0.330  52.892  1.00  0.00     0.050 A 
HETATM    8  C4  UNL     1      21.746  -0.282  53.415  1.00  0.00     0.036 A 
HETATM    9 CL2  UNL     1      21.699  -1.930  54.035  1.00  0.00    -0.084 Cl
HETATM   10  C5  UNL     1      22.928   0.424  53.450  1.00  0.00     0.035 A 
BRANCH   4  11
HETATM   11  O1  UNL     1      21.879   3.582  51.983  1.00  0.00    -0.358 OA
HETATM   12  H1  UNL     1      22.512   4.307  52.201  1.00  0.00     0.217 HD
ENDBRANCH   4  11
ENDBRANCH   2   3
ENDBRANCH   1   2
BRANCH   1  13
HETATM   13  C8  UNL     1      26.613   2.097  52.536  1.00  0.00     0.157 C 
BRANCH  13  14
HETATM   14  C9  UNL     1      27.000   0.653  52.670  1.00  0.00    -0.041 A 
HETATM   15  C10 UNL     1      26.410  -0.554  52.373  1.00  0.00     0.012 A 
HETATM   16  C11 UNL     1      27.032  -1.743  52.576  1.00  0.00     0.043 A 
HETATM   17  C12 UNL     1      28.310  -1.820  53.098  1.00  0.00     0.116 A 
HETATM   18  F1  UNL     1      28.871  -3.060  53.271  1.00  0.00    -0.206 F 
HETATM   19  C13 UNL     1      28.977  -0.635  53.426  1.00  0.00     0.043 A 
HETATM   20  C14 UNL     1      28.297   0.545  53.199  1.00  0.00     0.012 A 
ENDBRANCH  13  14
ENDBRANCH   1  13
BRANCH   1  21
HETATM   21  C15 UNL     1      25.095   2.508  50.720  1.00  0.00     0.243 C 
BRANCH  21  22
HETATM   22  N2  UNL     1      25.583   3.835  50.310  1.00  0.00    -0.373 N 
HETATM   23  C16 UNL     1      26.785   3.804  49.561  1.00  0.00     0.094 C 
HETATM   24  C17 UNL     1      27.169   4.816  48.835  1.00  0.00     0.062 C 
HETATM   25  S1  UNL     1      26.208   6.316  48.734  1.00  0.00    -0.139 SA
HETATM   26  C18 UNL     1      24.628   6.000  49.543  1.00  0.00     0.098 C 
HETATM   27  C19 UNL     1      24.867   5.017  50.656  1.00  0.00     0.134 C 
ENDBRANCH  21  22
ENDBRANCH   1  21
TORSDOF 7
ENDMDL
MODEL 4
REMARK VINA RESULT:      -7.6      3.539      5.462
REMARK  7 active torsions:
REMARK  status: ('A' for Active; 'I' for Inactive)
REMARK    1  A    between atoms: O1_1  and  C1_2 
REMARK    2  A    between atoms: C6_9  and  C7_10 
REMARK    3  A    between atoms: C7_10  and  N1_11 
REMARK    4  A    between atoms: N1_11  and  C8_12 
REMARK    5  A    between atoms: N1_11  and  C15_20 
REMARK    6  A    between atoms: C8_12  and  C9_13 
REMARK    7  A    between atoms: C15_20  and  N2_21 
ROOT
HETATM    1  N1  UNL     1      22.925   3.827  51.540  1.00  0.00    -0.389 N 
ENDROOT
BRANCH   1   2
HETATM    2  C7  UNL     1      23.812   3.598  52.601  1.00  0.00     0.160 C 
BRANCH   2   3
HETATM    3  C6  UNL     1      24.040   2.210  53.017  1.00  0.00    -0.004 A 
HETATM    4  C1  UNL     1      25.342   1.826  53.387  1.00  0.00     0.095 A 
HETATM    5  C2  UNL     1      25.689   0.554  53.777  1.00  0.00     0.069 A 
HETATM    6 CL1  UNL     1      27.358   0.200  54.229  1.00  0.00    -0.081 Cl
HETATM    7  C3  UNL     1      24.732  -0.416  53.816  1.00  0.00     0.050 A 
HETATM    8  C4  UNL     1      23.414  -0.112  53.463  1.00  0.00     0.036 A 
HETATM    9 CL2  UNL     1      22.152  -1.339  53.495  1.00  0.00    -0.084 Cl
HETATM   10  C5  UNL     1      23.104   1.173  53.078  1.00  0.00     0.035 A 
BRANCH   4  11
HETATM   11  O1  UNL     1      26.356   2.777  53.367  1.00  0.00    -0.358 OA
HETATM   12  H1  UNL     1      26.840   3.130  52.583  1.00  0.00     0.217 HD
ENDBRANCH   4  11
ENDBRANCH   2   3
ENDBRANCH   1   2
BRANCH   1  13
HETATM   13  C8  UNL     1      23.249   3.435  50.229  1.00  0.00     0.157 C 
BRANCH  13  14
HETATM   14  C9  UNL     1      24.468   4.131  49.701  1.00  0.00    -0.041 A 
HETATM   15  C10 UNL     1      24.764   5.404  49.269  1.00  0.00     0.012 A 
HETATM   16  C11 UNL     1      26.008   5.772  48.869  1.00  0.00     0.043 A 
HETATM   17  C12 UNL     1      27.069   4.884  48.869  1.00  0.00     0.116 A 
HETATM   18  F1  UNL     1      28.295   5.333  48.452  1.00  0.00    -0.206 F 
HETATM   19  C13 UNL     1      26.847   3.570  49.295  1.00  0.00     0.043 A 
HETATM   20  C14 UNL     1      25.564   3.252  49.691  1.00  0.00     0.012 A 
ENDBRANCH  13  14
ENDBRANCH   1  13
BRANCH   1  21
HETATM   21  C15 UNL     1      21.904   4.789  51.688  1.00  0.00     0.243 C 
BRANCH  21  22
HETATM   22  N2  UNL     1      20.565   4.230  51.440  1.00  0.00    -0.373 N 
HETATM   23  C16 UNL     1      19.858   4.861  50.386  1.00  0.00     0.094 C 
HETATM   24  C17 UNL     1      18.836   4.296  49.808  1.00  0.00     0.062 C 
HETATM   25  S1  UNL     1      18.250   2.685  50.305  1.00  0.00    -0.139 SA
HETATM   26  C18 UNL     1      19.462   2.000  51.451  1.00  0.00     0.098 C 
HETATM   27  C19 UNL     1      20.071   3.143  52.216  1.00  0.00     0.134 C 
ENDBRANCH  21  22
ENDBRANCH   1  21
TORSDOF 7
ENDMDL
MODEL 5
REMARK VINA RESULT:      -7.5      3.433      5.590
REMARK  7 active torsions:
REMARK  status: ('A' for Active; 'I' for Inactive)
REMARK    1  A    between atoms: O1_1  and  C1_2 
REMARK    2  A    between atoms: C6_9  and  C7_10 
REMARK    3  A    between atoms: C7_10  and  N1_11 
REMARK    4  A    between atoms: N1_11  and  C8_12 
REMARK    5  A    between atoms: N1_11  and  C15_20 
REMARK    6  A    between atoms: C8_12  and  C9_13 
REMARK    7  A    between atoms: C15_20  and  N2_21 
ROOT
HETATM    1  N1  UNL     1      24.406   2.681  52.157  1.00  0.00    -0.389 N 
ENDROOT
BRANCH   1   2
HETATM    2  C7  UNL     1      24.012   1.448  51.617  1.00  0.00     0.160 C 
BRANCH   2   3
HETATM    3  C6  UNL     1      23.017   0.663  52.354  1.00  0.00    -0.004 A 
HETATM    4  C1  UNL     1      21.672   0.735  51.948  1.00  0.00     0.095 A 
HETATM    5  C2  UNL     1      20.643   0.063  52.566  1.00  0.00     0.069 A 
HETATM    6 CL1  UNL     1      18.996   0.227  51.952  1.00  0.00    -0.081 Cl
HETATM    7  C3  UNL     1      20.914  -0.726  53.643  1.00  0.00     0.050 A 
HETATM    8  C4  UNL     1      22.227  -0.849  54.107  1.00  0.00     0.036 A 
HETATM    9 CL2  UNL     1      22.616  -1.856  55.498  1.00  0.00    -0.084 Cl
HETATM   10  C5  UNL     1      23.232  -0.163  53.462  1.00  0.00     0.035 A 
BRANCH   4  11
HETATM   11  O1  UNL     1      21.340   1.525  50.854  1.00  0.00    -0.358 OA
HETATM   12  H1  UNL     1      21.681   2.424  50.630  1.00  0.00     0.217 HD
ENDBRANCH   4  11
ENDBRANCH   2   3
ENDBRANCH   1   2
BRANCH   1  13
HETATM   13  C8  UNL     1      25.000   2.757  53.430  1.00  0.00     0.157 C 
BRANCH  13  14
HETATM   14  C9  UNL     1      26.315   2.037  53.499  1.00  0.00    -0.041 A 
HETATM   15  C10 UNL     1      27.535   2.158  52.874  1.00  0.00     0.012 A 
HETATM   16  C11 UNL     1      28.593   1.363  53.174  1.00  0.00     0.043 A 
HETATM   17  C12 UNL     1      28.514   0.371  54.135  1.00  0.00     0.116 A 
HETATM   18  F1  UNL     1      29.629  -0.389  54.382  1.00  0.00    -0.206 F 
HETATM   19  C13 UNL     1      27.306   0.186  54.814  1.00  0.00     0.043 A 
HETATM   20  C14 UNL     1      26.263   1.023  54.469  1.00  0.00     0.012 A 
ENDBRANCH  13  14
ENDBRANCH   1  13
BRANCH   1  21
HETATM   21  C15 UNL     1      23.863   3.872  51.631  1.00  0.00     0.243 C 
BRANCH  21  22
HETATM   22  N2  UNL     1      24.666   4.414  50.523  1.00  0.00    -0.373 N 
HETATM   23  C16 UNL     1      24.674   5.830  50.451  1.00  0.00     0.094 C 
HETATM   24  C17 UNL     1      25.580   6.479  49.775  1.00  0.00     0.062 C 
HETATM   25  S1  UNL     1      26.876   5.631  48.890  1.00  0.00    -0.139 SA
HETATM   26  C18 UNL     1      26.801   3.892  49.358  1.00  0.00     0.098 C 
HETATM   27  C19 UNL     1      25.362   3.549  49.632  1.00  0.00     0.134 C 
ENDBRANCH  21  22
ENDBRANCH   1  21
TORSDOF 7
ENDMDL
MODEL 6
REMARK VINA RESULT:      -7.4      4.285      6.544
REMARK  7 active torsions:
REMARK  status: ('A' for Active; 'I' for Inactive)
REMARK    1  A    between atoms: O1_1  and  C1_2 
REMARK    2  A    between atoms: C6_9  and  C7_10 
REMARK    3  A    between atoms: C7_10  and  N1_11 
REMARK    4  A    between atoms: N1_11  and  C8_12 
REMARK    5  A    between atoms: N1_11  and  C15_20 
REMARK    6  A    between atoms: C8_12  and  C9_13 
REMARK    7  A    between atoms: C15_20  and  N2_21 
ROOT
HETATM    1  N1  UNL     1      23.131   0.791  53.103  1.00  0.00    -0.389 N 
ENDROOT
BRANCH   1   2
HETATM    2  C7  UNL     1      21.941   0.801  53.845  1.00  0.00     0.160 C 
BRANCH   2   3
HETATM    3  C6  UNL     1      20.709   0.379  53.171  1.00  0.00    -0.004 A 
HETATM    4  C1  UNL     1      20.011  -0.730  53.683  1.00  0.00     0.095 A 
HETATM    5  C2  UNL     1      18.856  -1.235  53.133  1.00  0.00     0.069 A 
HETATM    6 CL1  UNL     1      18.067  -2.627  53.878  1.00  0.00    -0.081 Cl
HETATM    7  C3  UNL     1      18.334  -0.645  52.021  1.00  0.00     0.050 A 
HETATM    8  C4  UNL     1      18.970   0.462  51.453  1.00  0.00     0.036 A 
HETATM    9 CL2  UNL     1      18.329   1.248  50.013  1.00  0.00    -0.084 Cl
HETATM   10  C5  UNL     1      20.125   0.941  52.031  1.00  0.00     0.035 A 
BRANCH   4  11
HETATM   11  O1  UNL     1      20.499  -1.368  54.817  1.00  0.00    -0.358 OA
HETATM   12  H1  UNL     1      21.148  -2.110  54.863  1.00  0.00     0.217 HD
ENDBRANCH   4  11
ENDBRANCH   2   3
ENDBRANCH   1   2
BRANCH   1  13
HETATM   13  C8  UNL     1      23.880  -0.391  52.954  1.00  0.00     0.157 C 
BRANCH  13  14
HETATM   14  C9  UNL     1      25.270  -0.268  53.506  1.00  0.00    -0.041 A 
HETATM   15  C10 UNL     1      25.820   0.113  54.708  1.00  0.00     0.012 A 
HETATM   16  C11 UNL     1      27.156   0.089  54.944  1.00  0.00     0.043 A 
HETATM   17  C12 UNL     1      28.061  -0.326  53.983  1.00  0.00     0.116 A 
HETATM   18  F1  UNL     1      29.395  -0.325  54.299  1.00  0.00    -0.206 F 
HETATM   19  C13 UNL     1      27.579  -0.730  52.734  1.00  0.00     0.043 A 
HETATM   20  C14 UNL     1      26.211  -0.685  52.550  1.00  0.00     0.012 A 
ENDBRANCH  13  14
ENDBRANCH   1  13
BRANCH   1  21
HETATM   21  C15 UNL     1      23.795   2.007  52.842  1.00  0.00     0.243 C 
BRANCH  21  22
HETATM   22  N2  UNL     1      23.144   2.786  51.776  1.00  0.00    -0.373 N 
HETATM   23  C16 UNL     1      23.192   2.173  50.499  1.00  0.00     0.094 C 
HETATM   24  C17 UNL     1      22.393   2.531  49.534  1.00  0.00     0.062 C 
HETATM   25  S1  UNL     1      21.179   3.821  49.752  1.00  0.00    -0.139 SA
HETATM   26  C18 UNL     1      21.142   4.236  51.506  1.00  0.00     0.098 C 
HETATM   27  C19 UNL     1      22.527   4.038  52.057  1.00  0.00     0.134 C 
ENDBRANCH  21  22
ENDBRANCH   1  21
TORSDOF 7
ENDMDL
MODEL 7
REMARK VINA RESULT:      -7.3      8.205     10.900
REMARK  7 active torsions:
REMARK  status: ('A' for Active; 'I' for Inactive)
REMARK    1  A    between atoms: O1_1  and  C1_2 
REMARK    2  A    between atoms: C6_9  and  C7_10 
REMARK    3  A    between atoms: C7_10  and  N1_11 
REMARK    4  A    between atoms: N1_11  and  C8_12 
REMARK    5  A    between atoms: N1_11  and  C15_20 
REMARK    6  A    between atoms: C8_12  and  C9_13 
REMARK    7  A    between atoms: C15_20  and  N2_21 
ROOT
HETATM    1  N1  UNL     1      31.039   6.912  48.643  1.00  0.00    -0.389 N 
ENDROOT
BRANCH   1   2
HETATM    2  C7  UNL     1      31.180   8.063  49.430  1.00  0.00     0.160 C 
BRANCH   2   3
HETATM    3  C6  UNL     1      31.134   9.365  48.756  1.00  0.00    -0.004 A 
HETATM    4  C1  UNL     1      30.115  10.268  49.111  1.00  0.00     0.095 A 
HETATM    5  C2  UNL     1      29.953  11.509  48.541  1.00  0.00     0.069 A 
HETATM    6 CL1  UNL     1      28.638  12.556  49.082  1.00  0.00    -0.081 Cl
HETATM    7  C3  UNL     1      30.817  11.915  47.570  1.00  0.00     0.050 A 
HETATM    8  C4  UNL     1      31.857  11.074  47.163  1.00  0.00     0.036 A 
HETATM    9 CL2  UNL     1      32.990  11.561  45.906  1.00  0.00    -0.084 Cl
HETATM   10  C5  UNL     1      31.989   9.838  47.756  1.00  0.00     0.035 A 
BRANCH   4  11
HETATM   11  O1  UNL     1      29.207   9.904  50.098  1.00  0.00    -0.358 OA
HETATM   12  H1  UNL     1      28.305  10.271  50.256  1.00  0.00     0.217 HD
ENDBRANCH   4  11
ENDBRANCH   2   3
ENDBRANCH   1   2
BRANCH   1  13
HETATM   13  C8  UNL     1      30.117   6.870  47.581  1.00  0.00     0.157 C 
BRANCH  13  14
HETATM   14  C9  UNL     1      28.773   6.352  48.004  1.00  0.00    -0.041 A 
HETATM   15  C10 UNL     1      28.286   5.157  48.482  1.00  0.00     0.012 A 
HETATM   16  C11 UNL     1      26.985   4.982  48.828  1.00  0.00     0.043 A 
HETATM   17  C12 UNL     1      26.056   6.001  48.723  1.00  0.00     0.116 A 
HETATM   18  F1  UNL     1      24.762   5.745  49.095  1.00  0.00    -0.206 F 
HETATM   19  C13 UNL     1      26.475   7.247  48.244  1.00  0.00     0.043 A 
HETATM   20  C14 UNL     1      27.808   7.369  47.907  1.00  0.00     0.012 A 
ENDBRANCH  13  14
ENDBRANCH   1  13
BRANCH   1  21
HETATM   21  C15 UNL     1      31.507   5.675  49.134  1.00  0.00     0.243 C 
BRANCH  21  22
HETATM   22  N2  UNL     1      32.532   5.076  48.264  1.00  0.00    -0.373 N 
HETATM   23  C16 UNL     1      33.797   5.711  48.335  1.00  0.00     0.094 C 
HETATM   24  C17 UNL     1      34.884   5.126  47.918  1.00  0.00     0.062 C 
HETATM   25  S1  UNL     1      34.858   3.482  47.225  1.00  0.00    -0.139 SA
HETATM   26  C18 UNL     1      33.208   2.809  47.496  1.00  0.00     0.098 C 
HETATM   27  C19 UNL     1      32.229   3.950  47.446  1.00  0.00     0.134 C 
ENDBRANCH  21  22
ENDBRANCH   1  21
TORSDOF 7
ENDMDL
MODEL 8
REMARK VINA RESULT:      -7.3      3.976      6.161
REMARK  7 active torsions:
REMARK  status: ('A' for Active; 'I' for Inactive)
REMARK    1  A    between atoms: O1_1  and  C1_2 
REMARK    2  A    between atoms: C6_9  and  C7_10 
REMARK    3  A    between atoms: C7_10  and  N1_11 
REMARK    4  A    between atoms: N1_11  and  C8_12 
REMARK    5  A    between atoms: N1_11  and  C15_20 
REMARK    6  A    between atoms: C8_12  and  C9_13 
REMARK    7  A    between atoms: C15_20  and  N2_21 
ROOT
HETATM    1  N1  UNL     1      22.633   3.438  50.990  1.00  0.00    -0.389 N 
ENDROOT
BRANCH   1   2
HETATM    2  C7  UNL     1      22.210   2.925  52.225  1.00  0.00     0.160 C 
BRANCH   2   3
HETATM    3  C6  UNL     1      22.791   1.656  52.676  1.00  0.00    -0.004 A 
HETATM    4  C1  UNL     1      21.949   0.716  53.296  1.00  0.00     0.095 A 
HETATM    5  C2  UNL     1      22.373  -0.500  53.778  1.00  0.00     0.069 A 
HETATM    6 CL1  UNL     1      21.213  -1.600  54.527  1.00  0.00    -0.081 Cl
HETATM    7  C3  UNL     1      23.687  -0.841  53.663  1.00  0.00     0.050 A 
HETATM    8  C4  UNL     1      24.588   0.041  53.058  1.00  0.00     0.036 A 
HETATM    9 CL2  UNL     1      26.294  -0.361  52.896  1.00  0.00    -0.084 Cl
HETATM   10  C5  UNL     1      24.126   1.250  52.586  1.00  0.00     0.035 A 
BRANCH   4  11
HETATM   11  O1  UNL     1      20.598   1.012  53.437  1.00  0.00    -0.358 OA
HETATM   12  H1  UNL     1      19.876   0.415  53.748  1.00  0.00     0.217 HD
ENDBRANCH   4  11
ENDBRANCH   2   3
ENDBRANCH   1   2
BRANCH   1  13
HETATM   13  C8  UNL     1      23.340   4.652  50.915  1.00  0.00     0.157 C 
BRANCH  13  14
HETATM   14  C9  UNL     1      24.692   4.496  50.285  1.00  0.00    -0.041 A 
HETATM   15  C10 UNL     1      25.616   3.481  50.179  1.00  0.00     0.012 A 
HETATM   16  C11 UNL     1      26.779   3.618  49.492  1.00  0.00     0.043 A 
HETATM   17  C12 UNL     1      27.114   4.796  48.848  1.00  0.00     0.116 A 
HETATM   18  F1  UNL     1      28.307   4.853  48.173  1.00  0.00    -0.206 F 
HETATM   19  C13 UNL     1      26.226   5.874  48.910  1.00  0.00     0.043 A 
HETATM   20  C14 UNL     1      25.058   5.679  49.621  1.00  0.00     0.012 A 
ENDBRANCH  13  14
ENDBRANCH   1  13
BRANCH   1  21
HETATM   21  C15 UNL     1      22.027   2.975  49.804  1.00  0.00     0.243 C 
BRANCH  21  22
HETATM   22  N2  UNL     1      20.577   2.773  49.956  1.00  0.00    -0.373 N 
HETATM   23  C16 UNL     1      20.165   1.421  49.854  1.00  0.00     0.094 C 
HETATM   24  C17 UNL     1      19.007   1.019  50.296  1.00  0.00     0.062 C 
HETATM   25  S1  UNL     1      17.853   2.146  51.060  1.00  0.00    -0.139 SA
HETATM   26  C18 UNL     1      18.711   3.712  51.308  1.00  0.00     0.098 C 
HETATM   27  C19 UNL     1      19.706   3.875  50.191  1.00  0.00     0.134 C 
ENDBRANCH  21  22
ENDBRANCH   1  21
TORSDOF 7
ENDMDL
MODEL 9
REMARK VINA RESULT:      -7.3      3.724      5.887
REMARK  7 active torsions:
REMARK  status: ('A' for Active; 'I' for Inactive)
REMARK    1  A    between atoms: O1_1  and  C1_2 
REMARK    2  A    between atoms: C6_9  and  C7_10 
REMARK    3  A    between atoms: C7_10  and  N1_11 
REMARK    4  A    between atoms: N1_11  and  C8_12 
REMARK    5  A    between atoms: N1_11  and  C15_20 
REMARK    6  A    between atoms: C8_12  and  C9_13 
REMARK    7  A    between atoms: C15_20  and  N2_21 
ROOT
HETATM    1  N1  UNL     1      24.632   1.846  52.180  1.00  0.00    -0.389 N 
ENDROOT
BRANCH   1   2
HETATM    2  C7  UNL     1      24.347   3.207  52.364  1.00  0.00     0.160 C 
BRANCH   2   3
HETATM    3  C6  UNL     1      23.811   3.956  51.223  1.00  0.00    -0.004 A 
HETATM    4  C1  UNL     1      23.711   5.355  51.326  1.00  0.00     0.095 A 
HETATM    5  C2  UNL     1      23.211   6.168  50.336  1.00  0.00     0.069 A 
HETATM    6 CL1  UNL     1      23.149   7.915  50.584  1.00  0.00    -0.081 Cl
HETATM    7  C3  UNL     1      22.775   5.610  49.173  1.00  0.00     0.050 A 
HETATM    8  C4  UNL     1      22.841   4.225  48.993  1.00  0.00     0.036 A 
HETATM    9 CL2  UNL     1      22.282   3.466  47.506  1.00  0.00    -0.084 Cl
HETATM   10  C5  UNL     1      23.350   3.443  50.007  1.00  0.00     0.035 A 
BRANCH   4  11
HETATM   11  O1  UNL     1      24.144   5.977  52.492  1.00  0.00    -0.358 OA
HETATM   12  H1  UNL     1      23.840   6.837  52.869  1.00  0.00     0.217 HD
ENDBRANCH   4  11
ENDBRANCH   2   3
ENDBRANCH   1   2
BRANCH   1  13
HETATM   13  C8  UNL     1      24.097   0.872  53.042  1.00  0.00     0.157 C 
BRANCH  13  14
HETATM   14  C9  UNL     1      22.651   0.584  52.764  1.00  0.00    -0.041 A 
HETATM   15  C10 UNL     1      21.852   0.562  51.644  1.00  0.00     0.012 A 
HETATM   16  C11 UNL     1      20.540   0.217  51.687  1.00  0.00     0.043 A 
HETATM   17  C12 UNL     1      19.915  -0.139  52.869  1.00  0.00     0.116 A 
HETATM   18  F1  UNL     1      18.587  -0.477  52.829  1.00  0.00    -0.206 F 
HETATM   19  C13 UNL     1      20.662  -0.140  54.052  1.00  0.00     0.043 A 
HETATM   20  C14 UNL     1      21.991   0.219  53.949  1.00  0.00     0.012 A 
ENDBRANCH  13  14
ENDBRANCH   1  13
BRANCH   1  21
HETATM   21  C15 UNL     1      25.749   1.472  51.404  1.00  0.00     0.243 C 
BRANCH  21  22
HETATM   22  N2  UNL     1      26.917   1.128  52.229  1.00  0.00    -0.373 N 
HETATM   23  C16 UNL     1      27.655   2.248  52.686  1.00  0.00     0.094 C 
HETATM   24  C17 UNL     1      28.488   2.162  53.685  1.00  0.00     0.062 C 
HETATM   25  S1  UNL     1      28.761   0.625  54.549  1.00  0.00    -0.139 SA
HETATM   26  C18 UNL     1      27.527  -0.551  53.961  1.00  0.00     0.098 C 
HETATM   27  C19 UNL     1      27.232  -0.230  52.521  1.00  0.00     0.134 C 
ENDBRANCH  21  22
ENDBRANCH   1  21
TORSDOF 7
ENDMDL
