MODEL 1
REMARK VINA RESULT:      -6.9      0.000      0.000
REMARK  13 active torsions:
REMARK  status: ('A' for Active; 'I' for Inactive)
REMARK    1  A    between atoms: C2_2  and  C3_3 
REMARK    2  A    between atoms: C3_3  and  N1_5 
REMARK    3  A    between atoms: N1_5  and  C5_6 
REMARK    4  A    between atoms: C6_7  and  N2_8 
REMARK    5  A    between atoms: N2_8  and  C7_9 
REMARK    6  A    between atoms: C7_9  and  C8_10 
REMARK    7  A    between atoms: C8_10  and  C9_11 
REMARK    8  A    between atoms: N3_12  and  C10_13 
REMARK    9  A    between atoms: C10_13  and  C11_14 
REMARK   10  A    between atoms: C11_14  and  N4_15 
REMARK   11  A    between atoms: N5_16  and  C12_17 
REMARK   12  A    between atoms: C13_18  and  C14_19 
REMARK   13  A    between atoms: C16_21  and  C17_22 
ROOT
HETATM    1  C7  UNL     1      24.713   0.929  52.629  1.00  0.00     0.105 C 
HETATM    2  N5  UNL     1      25.664   0.053  52.579  1.00  0.00    -0.257 NA
ENDROOT
BRANCH   1   3
HETATM    3  N2  UNL     1      23.415   0.683  52.155  1.00  0.00    -0.343 N 
HETATM    4  H11 UNL     1      23.100   0.770  51.147  1.00  0.00     0.167 HD
BRANCH   3   5
HETATM    5  C6  UNL     1      22.398   0.278  53.067  1.00  0.00     0.056 A 
HETATM    6  C5  UNL     1      21.241   0.937  53.257  1.00  0.00     0.035 A 
HETATM    7  C20 UNL     1      20.493   0.189  54.268  1.00  0.00     0.086 A 
HETATM    8  C19 UNL     1      21.414  -0.960  54.589  1.00  0.00    -0.018 A 
HETATM    9  C18 UNL     1      22.523  -0.896  53.881  1.00  0.00     0.028 A 
BRANCH   6  10
HETATM   10  N1  UNL     1      20.986   2.122  52.513  1.00  0.00    -0.387 N 
HETATM   11  H10 UNL     1      21.450   3.042  52.787  1.00  0.00     0.159 HD
BRANCH  10  12
HETATM   12  C3  UNL     1      20.106   2.150  51.375  1.00  0.00     0.077 C 
HETATM   13  C4  UNL     1      19.139   3.298  51.571  1.00  0.00     0.032 C 
BRANCH  12  14
HETATM   14  C2  UNL     1      20.891   2.277  50.103  1.00  0.00     0.020 C 
HETATM   15  C1  UNL     1      21.105   0.966  49.410  1.00  0.00     0.007 C 
ENDBRANCH  12  14
ENDBRANCH  10  12
ENDBRANCH   6  10
ENDBRANCH   3   5
ENDBRANCH   1   3
BRANCH   1  16
HETATM   16  C8  UNL     1      24.973   2.280  53.215  1.00  0.00     0.124 C 
BRANCH  16  17
HETATM   17  C9  UNL     1      24.544   3.356  52.283  1.00  0.00     0.097 C 
HETATM   18  N3  UNL     1      23.393   3.926  52.393  1.00  0.00    -0.267 NA
BRANCH  18  19
HETATM   19  C10 UNL     1      23.041   4.943  51.478  1.00  0.00     0.191 C 
BRANCH  19  20
HETATM   20  C11 UNL     1      23.743   6.062  51.533  1.00  0.00    -0.006 C 
BRANCH  20  21
HETATM   21  N4  UNL     1      24.501   7.055  51.835  1.00  0.00    -0.257 NA
HETATM   22  H16 UNL     1      25.433   7.150  51.373  1.00  0.00     0.197 HD
ENDBRANCH  20  21
ENDBRANCH  19  20
ENDBRANCH  18  19
ENDBRANCH  16  17
ENDBRANCH   1  16
BRANCH   2  23
HETATM   23  C12 UNL     1      26.968   0.254  53.039  1.00  0.00     0.120 A 
HETATM   24  C13 UNL     1      27.937  -0.350  53.226  1.00  0.00    -0.035 A 
HETATM   25  C17 UNL     1      27.134  -1.328  52.766  1.00  0.00     0.064 A 
BRANCH  24  26
HETATM   26  C14 UNL     1      28.855  -0.950  53.396  1.00  0.00    -0.063 A 
HETATM   27  C15 UNL     1      29.873  -1.585  53.586  1.00  0.00     0.033 A 
HETATM   28  C16 UNL     1      29.739  -0.052  53.584  1.00  0.00     0.035 A 
ENDBRANCH  24  26
ENDBRANCH   2  23
TORSDOF 13
ENDMDL
MODEL 2
REMARK VINA RESULT:      -6.8      3.239      5.969
REMARK  13 active torsions:
REMARK  status: ('A' for Active; 'I' for Inactive)
REMARK    1  A    between atoms: C2_2  and  C3_3 
REMARK    2  A    between atoms: C3_3  and  N1_5 
REMARK    3  A    between atoms: N1_5  and  C5_6 
REMARK    4  A    between atoms: C6_7  and  N2_8 
REMARK    5  A    between atoms: N2_8  and  C7_9 
REMARK    6  A    between atoms: C7_9  and  C8_10 
REMARK    7  A    between atoms: C8_10  and  C9_11 
REMARK    8  A    between atoms: N3_12  and  C10_13 
REMARK    9  A    between atoms: C10_13  and  C11_14 
REMARK   10  A    between atoms: C11_14  and  N4_15 
REMARK   11  A    between atoms: N5_16  and  C12_17 
REMARK   12  A    between atoms: C13_18  and  C14_19 
REMARK   13  A    between atoms: C16_21  and  C17_22 
ROOT
HETATM    1  C7  UNL     1      25.497   3.232  50.514  1.00  0.00     0.105 C 
HETATM    2  N5  UNL     1      25.823   4.259  49.795  1.00  0.00    -0.257 NA
ENDROOT
BRANCH   1   3
HETATM    3  N2  UNL     1      24.271   3.123  51.187  1.00  0.00    -0.343 N 
HETATM    4  H11 UNL     1      24.018   3.612  52.092  1.00  0.00     0.167 HD
BRANCH   3   5
HETATM    5  C6  UNL     1      23.244   2.296  50.647  1.00  0.00     0.056 A 
HETATM    6  C5  UNL     1      22.607   1.330  51.333  1.00  0.00     0.035 A 
HETATM    7  C20 UNL     1      21.638   0.732  50.413  1.00  0.00     0.086 A 
HETATM    8  C19 UNL     1      21.849   1.514  49.143  1.00  0.00    -0.018 A 
HETATM    9  C18 UNL     1      22.790   2.424  49.293  1.00  0.00     0.028 A 
BRANCH   6  10
HETATM   10  N1  UNL     1      22.959   1.093  52.690  1.00  0.00    -0.387 N 
HETATM   11  H10 UNL     1      23.137   1.910  53.352  1.00  0.00     0.159 HD
BRANCH  10  12
HETATM   12  C3  UNL     1      23.097  -0.230  53.237  1.00  0.00     0.077 C 
HETATM   13  C4  UNL     1      24.544  -0.412  53.642  1.00  0.00     0.032 C 
BRANCH  12  14
HETATM   14  C2  UNL     1      22.155  -0.427  54.388  1.00  0.00     0.020 C 
HETATM   15  C1  UNL     1      21.367  -1.699  54.294  1.00  0.00     0.007 C 
ENDBRANCH  12  14
ENDBRANCH  10  12
ENDBRANCH   6  10
ENDBRANCH   3   5
ENDBRANCH   1   3
BRANCH   1  16
HETATM   16  C8  UNL     1      26.451   2.089  50.656  1.00  0.00     0.124 C 
BRANCH  16  17
HETATM   17  C9  UNL     1      26.924   1.962  52.059  1.00  0.00     0.097 C 
HETATM   18  N3  UNL     1      28.096   2.362  52.416  1.00  0.00    -0.267 NA
BRANCH  18  19
HETATM   19  C10 UNL     1      28.489   2.215  53.765  1.00  0.00     0.191 C 
BRANCH  19  20
HETATM   20  C11 UNL     1      28.453   0.992  54.267  1.00  0.00    -0.006 C 
BRANCH  20  21
HETATM   21  N4  UNL     1      28.389  -0.065  54.995  1.00  0.00    -0.257 NA
HETATM   22  H16 UNL     1      28.271   0.030  56.028  1.00  0.00     0.197 HD
ENDBRANCH  20  21
ENDBRANCH  19  20
ENDBRANCH  18  19
ENDBRANCH  16  17
ENDBRANCH   1  16
BRANCH   2  23
HETATM   23  C12 UNL     1      27.030   4.409  49.108  1.00  0.00     0.120 A 
HETATM   24  C13 UNL     1      27.637   5.235  48.571  1.00  0.00    -0.035 A 
HETATM   25  C17 UNL     1      26.567   5.949  48.964  1.00  0.00     0.064 A 
BRANCH  24  26
HETATM   26  C14 UNL     1      28.203   6.042  48.061  1.00  0.00    -0.063 A 
HETATM   27  C15 UNL     1      28.843   6.914  47.509  1.00  0.00     0.033 A 
HETATM   28  C16 UNL     1      29.413   5.675  48.221  1.00  0.00     0.035 A 
ENDBRANCH  24  26
ENDBRANCH   2  23
TORSDOF 13
ENDMDL
MODEL 3
REMARK VINA RESULT:      -6.6      2.147      5.985
REMARK  13 active torsions:
REMARK  status: ('A' for Active; 'I' for Inactive)
REMARK    1  A    between atoms: C2_2  and  C3_3 
REMARK    2  A    between atoms: C3_3  and  N1_5 
REMARK    3  A    between atoms: N1_5  and  C5_6 
REMARK    4  A    between atoms: C6_7  and  N2_8 
REMARK    5  A    between atoms: N2_8  and  C7_9 
REMARK    6  A    between atoms: C7_9  and  C8_10 
REMARK    7  A    between atoms: C8_10  and  C9_11 
REMARK    8  A    between atoms: N3_12  and  C10_13 
REMARK    9  A    between atoms: C10_13  and  C11_14 
REMARK   10  A    between atoms: C11_14  and  N4_15 
REMARK   11  A    between atoms: N5_16  and  C12_17 
REMARK   12  A    between atoms: C13_18  and  C14_19 
REMARK   13  A    between atoms: C16_21  and  C17_22 
ROOT
HETATM    1  C7  UNL     1      25.564   2.411  52.109  1.00  0.00     0.105 C 
HETATM    2  N5  UNL     1      24.300   2.131  52.100  1.00  0.00    -0.257 NA
ENDROOT
BRANCH   1   3
HETATM    3  N2  UNL     1      26.254   2.812  53.263  1.00  0.00    -0.343 N 
HETATM    4  H11 UNL     1      26.052   3.683  53.832  1.00  0.00     0.167 HD
BRANCH   3   5
HETATM    5  C6  UNL     1      27.328   2.013  53.753  1.00  0.00     0.056 A 
HETATM    6  C5  UNL     1      27.173   0.829  54.373  1.00  0.00     0.035 A 
HETATM    7  C20 UNL     1      28.516   0.352  54.708  1.00  0.00     0.086 A 
HETATM    8  C19 UNL     1      29.405   1.447  54.180  1.00  0.00    -0.018 A 
HETATM    9  C18 UNL     1      28.699   2.411  53.625  1.00  0.00     0.028 A 
BRANCH   6  10
HETATM   10  N1  UNL     1      25.863   0.313  54.569  1.00  0.00    -0.387 N 
HETATM   11  H10 UNL     1      25.168   0.826  55.194  1.00  0.00     0.159 HD
BRANCH  10  12
HETATM   12  C3  UNL     1      25.407  -0.904  53.951  1.00  0.00     0.077 C 
HETATM   13  C4  UNL     1      23.894  -0.862  53.916  1.00  0.00     0.032 C 
BRANCH  12  14
HETATM   14  C2  UNL     1      26.004  -1.059  52.584  1.00  0.00     0.020 C 
HETATM   15  C1  UNL     1      26.934  -2.229  52.477  1.00  0.00     0.007 C 
ENDBRANCH  12  14
ENDBRANCH  10  12
ENDBRANCH   6  10
ENDBRANCH   3   5
ENDBRANCH   1   3
BRANCH   1  16
HETATM   16  C8  UNL     1      26.358   2.314  50.846  1.00  0.00     0.124 C 
BRANCH  16  17
HETATM   17  C9  UNL     1      26.594   3.659  50.260  1.00  0.00     0.097 C 
HETATM   18  N3  UNL     1      25.749   4.201  49.451  1.00  0.00    -0.267 NA
BRANCH  18  19
HETATM   19  C10 UNL     1      26.028   5.483  48.927  1.00  0.00     0.191 C 
BRANCH  19  20
HETATM   20  C11 UNL     1      25.960   6.499  49.771  1.00  0.00    -0.006 C 
BRANCH  20  21
HETATM   21  N4  UNL     1      25.986   7.301  50.775  1.00  0.00    -0.257 NA
HETATM   22  H16 UNL     1      26.170   8.316  50.617  1.00  0.00     0.197 HD
ENDBRANCH  20  21
ENDBRANCH  19  20
ENDBRANCH  18  19
ENDBRANCH  16  17
ENDBRANCH   1  16
BRANCH   2  23
HETATM   23  C12 UNL     1      23.573   1.729  50.976  1.00  0.00     0.120 A 
HETATM   24  C13 UNL     1      22.485   1.472  50.680  1.00  0.00    -0.035 A 
HETATM   25  C17 UNL     1      22.311   1.767  51.982  1.00  0.00     0.064 A 
BRANCH  24  26
HETATM   26  C14 UNL     1      21.434   1.229  50.419  1.00  0.00    -0.063 A 
HETATM   27  C15 UNL     1      20.284   0.946  50.150  1.00  0.00     0.033 A 
HETATM   28  C16 UNL     1      21.173   0.256  51.199  1.00  0.00     0.035 A 
ENDBRANCH  24  26
ENDBRANCH   2  23
TORSDOF 13
ENDMDL
MODEL 4
REMARK VINA RESULT:      -6.5      2.004      5.089
REMARK  13 active torsions:
REMARK  status: ('A' for Active; 'I' for Inactive)
REMARK    1  A    between atoms: C2_2  and  C3_3 
REMARK    2  A    between atoms: C3_3  and  N1_5 
REMARK    3  A    between atoms: N1_5  and  C5_6 
REMARK    4  A    between atoms: C6_7  and  N2_8 
REMARK    5  A    between atoms: N2_8  and  C7_9 
REMARK    6  A    between atoms: C7_9  and  C8_10 
REMARK    7  A    between atoms: C8_10  and  C9_11 
REMARK    8  A    between atoms: N3_12  and  C10_13 
REMARK    9  A    between atoms: C10_13  and  C11_14 
REMARK   10  A    between atoms: C11_14  and  N4_15 
REMARK   11  A    between atoms: N5_16  and  C12_17 
REMARK   12  A    between atoms: C13_18  and  C14_19 
REMARK   13  A    between atoms: C16_21  and  C17_22 
ROOT
HETATM    1  C7  UNL     1      24.909   2.566  52.923  1.00  0.00     0.105 C 
HETATM    2  N5  UNL     1      26.117   2.313  53.312  1.00  0.00    -0.257 NA
ENDROOT
BRANCH   1   3
HETATM    3  N2  UNL     1      24.282   3.806  53.118  1.00  0.00    -0.343 N 
HETATM    4  H11 UNL     1      24.422   4.444  53.953  1.00  0.00     0.167 HD
BRANCH   3   5
HETATM    5  C6  UNL     1      23.371   4.296  52.138  1.00  0.00     0.056 A 
HETATM    6  C5  UNL     1      23.737   4.929  51.009  1.00  0.00     0.035 A 
HETATM    7  C20 UNL     1      22.503   5.257  50.293  1.00  0.00     0.086 A 
HETATM    8  C19 UNL     1      21.430   4.711  51.200  1.00  0.00    -0.018 A 
HETATM    9  C18 UNL     1      21.951   4.153  52.273  1.00  0.00     0.028 A 
BRANCH   6  10
HETATM   10  N1  UNL     1      25.118   5.140  50.747  1.00  0.00    -0.387 N 
HETATM   11  H10 UNL     1      25.798   5.318  51.548  1.00  0.00     0.159 HD
BRANCH  10  12
HETATM   12  C3  UNL     1      25.667   5.127  49.417  1.00  0.00     0.077 C 
HETATM   13  C4  UNL     1      26.000   6.556  49.044  1.00  0.00     0.032 C 
BRANCH  12  14
HETATM   14  C2  UNL     1      26.866   4.227  49.348  1.00  0.00     0.020 C 
HETATM   15  C1  UNL     1      26.551   2.801  49.682  1.00  0.00     0.007 C 
ENDBRANCH  12  14
ENDBRANCH  10  12
ENDBRANCH   6  10
ENDBRANCH   3   5
ENDBRANCH   1   3
BRANCH   1  16
HETATM   16  C8  UNL     1      24.112   1.508  52.228  1.00  0.00     0.124 C 
BRANCH  16  17
HETATM   17  C9  UNL     1      23.285   0.743  53.197  1.00  0.00     0.097 C 
HETATM   18  N3  UNL     1      22.530  -0.233  52.820  1.00  0.00    -0.267 NA
BRANCH  18  19
HETATM   19  C10 UNL     1      21.768  -0.923  53.788  1.00  0.00     0.191 C 
BRANCH  19  20
HETATM   20  C11 UNL     1      22.390  -1.266  54.904  1.00  0.00    -0.006 C 
BRANCH  20  21
HETATM   21  N4  UNL     1      23.064  -1.825  55.844  1.00  0.00    -0.257 NA
HETATM   22  H16 UNL     1      23.567  -1.230  56.540  1.00  0.00     0.197 HD
ENDBRANCH  20  21
ENDBRANCH  19  20
ENDBRANCH  18  19
ENDBRANCH  16  17
ENDBRANCH   1  16
BRANCH   2  23
HETATM   23  C12 UNL     1      26.779   1.095  53.138  1.00  0.00     0.120 A 
HETATM   24  C13 UNL     1      27.840   0.647  53.256  1.00  0.00    -0.035 A 
HETATM   25  C17 UNL     1      28.075   1.915  53.642  1.00  0.00     0.064 A 
BRANCH  24  26
HETATM   26  C14 UNL     1      28.865   0.239  53.376  1.00  0.00    -0.063 A 
HETATM   27  C15 UNL     1      29.977  -0.230  53.506  1.00  0.00     0.033 A 
HETATM   28  C16 UNL     1      28.668  -1.018  53.328  1.00  0.00     0.035 A 
ENDBRANCH  24  26
ENDBRANCH   2  23
TORSDOF 13
ENDMDL
MODEL 5
REMARK VINA RESULT:      -6.5      2.084      4.782
REMARK  13 active torsions:
REMARK  status: ('A' for Active; 'I' for Inactive)
REMARK    1  A    between atoms: C2_2  and  C3_3 
REMARK    2  A    between atoms: C3_3  and  N1_5 
REMARK    3  A    between atoms: N1_5  and  C5_6 
REMARK    4  A    between atoms: C6_7  and  N2_8 
REMARK    5  A    between atoms: N2_8  and  C7_9 
REMARK    6  A    between atoms: C7_9  and  C8_10 
REMARK    7  A    between atoms: C8_10  and  C9_11 
REMARK    8  A    between atoms: N3_12  and  C10_13 
REMARK    9  A    between atoms: C10_13  and  C11_14 
REMARK   10  A    between atoms: C11_14  and  N4_15 
REMARK   11  A    between atoms: N5_16  and  C12_17 
REMARK   12  A    between atoms: C13_18  and  C14_19 
REMARK   13  A    between atoms: C16_21  and  C17_22 
ROOT
HETATM    1  C7  UNL     1      23.933   0.495  52.809  1.00  0.00     0.105 C 
HETATM    2  N5  UNL     1      25.163   0.396  52.419  1.00  0.00    -0.257 NA
ENDROOT
BRANCH   1   3
HETATM    3  N2  UNL     1      23.071   1.516  52.381  1.00  0.00    -0.343 N 
HETATM    4  H11 UNL     1      22.644   2.264  53.000  1.00  0.00     0.167 HD
BRANCH   3   5
HETATM    5  C6  UNL     1      22.707   1.599  51.006  1.00  0.00     0.056 A 
HETATM    6  C5  UNL     1      23.350   2.350  50.093  1.00  0.00     0.035 A 
HETATM    7  C20 UNL     1      22.658   2.146  48.820  1.00  0.00     0.086 A 
HETATM    8  C19 UNL     1      21.558   1.183  49.182  1.00  0.00    -0.018 A 
HETATM    9  C18 UNL     1      21.598   0.872  50.462  1.00  0.00     0.028 A 
BRANCH   6  10
HETATM   10  N1  UNL     1      24.471   3.125  50.497  1.00  0.00    -0.387 N 
HETATM   11  H10 UNL     1      24.831   3.073  51.499  1.00  0.00     0.159 HD
BRANCH  10  12
HETATM   12  C3  UNL     1      25.170   4.006  49.600  1.00  0.00     0.077 C 
HETATM   13  C4  UNL     1      24.956   5.423  50.088  1.00  0.00     0.032 C 
BRANCH  12  14
HETATM   14  C2  UNL     1      26.624   3.642  49.527  1.00  0.00     0.020 C 
HETATM   15  C1  UNL     1      27.449   4.657  48.795  1.00  0.00     0.007 C 
ENDBRANCH  12  14
ENDBRANCH  10  12
ENDBRANCH   6  10
ENDBRANCH   3   5
ENDBRANCH   1   3
BRANCH   1  16
HETATM   16  C8  UNL     1      23.369  -0.510  53.763  1.00  0.00     0.124 C 
BRANCH  16  17
HETATM   17  C9  UNL     1      21.927  -0.253  54.016  1.00  0.00     0.097 C 
HETATM   18  N3  UNL     1      21.006  -0.825  53.318  1.00  0.00    -0.267 NA
BRANCH  18  19
HETATM   19  C10 UNL     1      19.653  -0.541  53.606  1.00  0.00     0.191 C 
BRANCH  19  20
HETATM   20  C11 UNL     1      18.852  -0.345  52.572  1.00  0.00    -0.006 C 
BRANCH  20  21
HETATM   21  N4  UNL     1      18.147  -0.412  51.500  1.00  0.00    -0.257 NA
HETATM   22  H16 UNL     1      17.690  -1.314  51.240  1.00  0.00     0.197 HD
ENDBRANCH  20  21
ENDBRANCH  19  20
ENDBRANCH  18  19
ENDBRANCH  16  17
ENDBRANCH   1  16
BRANCH   2  23
HETATM   23  C12 UNL     1      26.056  -0.602  52.819  1.00  0.00     0.120 A 
HETATM   24  C13 UNL     1      27.186  -0.739  53.021  1.00  0.00    -0.035 A 
HETATM   25  C17 UNL     1      27.166   0.559  52.669  1.00  0.00     0.064 A 
BRANCH  24  26
HETATM   26  C14 UNL     1      28.275  -0.848  53.210  1.00  0.00    -0.063 A 
HETATM   27  C15 UNL     1      29.464  -0.951  53.435  1.00  0.00     0.033 A 
HETATM   28  C16 UNL     1      28.456  -0.094  54.221  1.00  0.00     0.035 A 
ENDBRANCH  24  26
ENDBRANCH   2  23
TORSDOF 13
ENDMDL
MODEL 6
REMARK VINA RESULT:      -6.3      2.205      5.215
REMARK  13 active torsions:
REMARK  status: ('A' for Active; 'I' for Inactive)
REMARK    1  A    between atoms: C2_2  and  C3_3 
REMARK    2  A    between atoms: C3_3  and  N1_5 
REMARK    3  A    between atoms: N1_5  and  C5_6 
REMARK    4  A    between atoms: C6_7  and  N2_8 
REMARK    5  A    between atoms: N2_8  and  C7_9 
REMARK    6  A    between atoms: C7_9  and  C8_10 
REMARK    7  A    between atoms: C8_10  and  C9_11 
REMARK    8  A    between atoms: N3_12  and  C10_13 
REMARK    9  A    between atoms: C10_13  and  C11_14 
REMARK   10  A    between atoms: C11_14  and  N4_15 
REMARK   11  A    between atoms: N5_16  and  C12_17 
REMARK   12  A    between atoms: C13_18  and  C14_19 
REMARK   13  A    between atoms: C16_21  and  C17_22 
ROOT
HETATM    1  C7  UNL     1      23.389   2.244  51.579  1.00  0.00     0.105 C 
HETATM    2  N5  UNL     1      24.399   2.409  50.786  1.00  0.00    -0.257 NA
ENDROOT
BRANCH   1   3
HETATM    3  N2  UNL     1      22.649   1.054  51.645  1.00  0.00    -0.343 N 
HETATM    4  H11 UNL     1      22.163   0.583  50.830  1.00  0.00     0.167 HD
BRANCH   3   5
HETATM    5  C6  UNL     1      22.510   0.381  52.893  1.00  0.00     0.056 A 
HETATM    6  C5  UNL     1      23.517  -0.227  53.546  1.00  0.00     0.035 A 
HETATM    7  C20 UNL     1      22.945  -0.785  54.773  1.00  0.00     0.086 A 
HETATM    8  C19 UNL     1      21.495  -0.390  54.681  1.00  0.00    -0.018 A 
HETATM    9  C18 UNL     1      21.253   0.290  53.579  1.00  0.00     0.028 A 
BRANCH   6  10
HETATM   10  N1  UNL     1      24.820  -0.215  52.978  1.00  0.00    -0.387 N 
HETATM   11  H10 UNL     1      24.971   0.128  51.980  1.00  0.00     0.159 HD
BRANCH  10  12
HETATM   12  C3  UNL     1      25.985  -0.656  53.698  1.00  0.00     0.077 C 
HETATM   13  C4  UNL     1      26.940  -1.267  52.695  1.00  0.00     0.032 C 
BRANCH  12  14
HETATM   14  C2  UNL     1      26.604   0.484  54.452  1.00  0.00     0.020 C 
HETATM   15  C1  UNL     1      26.484   1.796  53.738  1.00  0.00     0.007 C 
ENDBRANCH  12  14
ENDBRANCH  10  12
ENDBRANCH   6  10
ENDBRANCH   3   5
ENDBRANCH   1   3
BRANCH   1  16
HETATM   16  C8  UNL     1      22.962   3.356  52.484  1.00  0.00     0.124 C 
BRANCH  16  17
HETATM   17  C9  UNL     1      21.717   3.997  51.988  1.00  0.00     0.097 C 
HETATM   18  N3  UNL     1      20.934   3.400  51.156  1.00  0.00    -0.267 NA
BRANCH  18  19
HETATM   19  C10 UNL     1      19.764   4.060  50.720  1.00  0.00     0.191 C 
BRANCH  19  20
HETATM   20  C11 UNL     1      18.643   3.769  51.359  1.00  0.00    -0.006 C 
BRANCH  20  21
HETATM   21  N4  UNL     1      17.503   3.756  51.954  1.00  0.00    -0.257 NA
HETATM   22  H16 UNL     1      17.393   3.219  52.842  1.00  0.00     0.197 HD
ENDBRANCH  20  21
ENDBRANCH  19  20
ENDBRANCH  18  19
ENDBRANCH  16  17
ENDBRANCH   1  16
BRANCH   2  23
HETATM   23  C12 UNL     1      25.163   3.575  50.688  1.00  0.00     0.120 A 
HETATM   24  C13 UNL     1      26.004   4.020  50.030  1.00  0.00    -0.035 A 
HETATM   25  C17 UNL     1      25.842   2.827  49.429  1.00  0.00     0.064 A 
BRANCH  24  26
HETATM   26  C14 UNL     1      26.810   4.428  49.386  1.00  0.00    -0.063 A 
HETATM   27  C15 UNL     1      27.678   4.894  48.677  1.00  0.00     0.033 A 
HETATM   28  C16 UNL     1      26.312   5.530  48.986  1.00  0.00     0.035 A 
ENDBRANCH  24  26
ENDBRANCH   2  23
TORSDOF 13
ENDMDL
MODEL 7
REMARK VINA RESULT:      -6.2      2.083      3.617
REMARK  13 active torsions:
REMARK  status: ('A' for Active; 'I' for Inactive)
REMARK    1  A    between atoms: C2_2  and  C3_3 
REMARK    2  A    between atoms: C3_3  and  N1_5 
REMARK    3  A    between atoms: N1_5  and  C5_6 
REMARK    4  A    between atoms: C6_7  and  N2_8 
REMARK    5  A    between atoms: N2_8  and  C7_9 
REMARK    6  A    between atoms: C7_9  and  C8_10 
REMARK    7  A    between atoms: C8_10  and  C9_11 
REMARK    8  A    between atoms: N3_12  and  C10_13 
REMARK    9  A    between atoms: C10_13  and  C11_14 
REMARK   10  A    between atoms: C11_14  and  N4_15 
REMARK   11  A    between atoms: N5_16  and  C12_17 
REMARK   12  A    between atoms: C13_18  and  C14_19 
REMARK   13  A    between atoms: C16_21  and  C17_22 
ROOT
HETATM    1  C7  UNL     1      25.061   3.171  50.737  1.00  0.00     0.105 C 
HETATM    2  N5  UNL     1      25.549   2.584  51.782  1.00  0.00    -0.257 NA
ENDROOT
BRANCH   1   3
HETATM    3  N2  UNL     1      23.696   3.455  50.583  1.00  0.00    -0.343 N 
HETATM    4  H11 UNL     1      23.212   4.347  50.889  1.00  0.00     0.167 HD
BRANCH   3   5
HETATM    5  C6  UNL     1      22.843   2.494  49.966  1.00  0.00     0.056 A 
HETATM    6  C5  UNL     1      22.243   1.481  50.618  1.00  0.00     0.035 A 
HETATM    7  C20 UNL     1      21.468   0.742  49.621  1.00  0.00     0.086 A 
HETATM    8  C19 UNL     1      21.739   1.502  48.349  1.00  0.00    -0.018 A 
HETATM    9  C18 UNL     1      22.544   2.523  48.564  1.00  0.00     0.028 A 
BRANCH   6  10
HETATM   10  N1  UNL     1      22.455   1.333  52.016  1.00  0.00    -0.387 N 
HETATM   11  H10 UNL     1      23.443   1.243  52.406  1.00  0.00     0.159 HD
BRANCH  10  12
HETATM   12  C3  UNL     1      21.374   1.294  52.965  1.00  0.00     0.077 C 
HETATM   13  C4  UNL     1      20.356   2.331  52.544  1.00  0.00     0.032 C 
BRANCH  12  14
HETATM   14  C2  UNL     1      20.785  -0.084  53.040  1.00  0.00     0.020 C 
HETATM   15  C1  UNL     1      21.456  -0.956  54.057  1.00  0.00     0.007 C 
ENDBRANCH  12  14
ENDBRANCH  10  12
ENDBRANCH   6  10
ENDBRANCH   3   5
ENDBRANCH   1   3
BRANCH   1  16
HETATM   16  C8  UNL     1      25.968   3.582  49.621  1.00  0.00     0.124 C 
BRANCH  16  17
HETATM   17  C9  UNL     1      25.786   5.020  49.289  1.00  0.00     0.097 C 
HETATM   18  N3  UNL     1      25.338   5.862  50.157  1.00  0.00    -0.267 NA
BRANCH  18  19
HETATM   19  C10 UNL     1      25.187   7.216  49.783  1.00  0.00     0.191 C 
BRANCH  19  20
HETATM   20  C11 UNL     1      26.177   8.035  50.097  1.00  0.00    -0.006 C 
BRANCH  20  21
HETATM   21  N4  UNL     1      27.186   8.647  50.604  1.00  0.00    -0.257 NA
HETATM   22  H16 UNL     1      27.323   9.663  50.408  1.00  0.00     0.197 HD
ENDBRANCH  20  21
ENDBRANCH  19  20
ENDBRANCH  18  19
ENDBRANCH  16  17
ENDBRANCH   1  16
BRANCH   2  23
HETATM   23  C12 UNL     1      26.900   2.282  51.978  1.00  0.00     0.120 A 
HETATM   24  C13 UNL     1      27.593   1.852  52.798  1.00  0.00    -0.035 A 
HETATM   25  C17 UNL     1      26.411   1.802  53.440  1.00  0.00     0.064 A 
BRANCH  24  26
HETATM   26  C14 UNL     1      28.239   1.436  53.599  1.00  0.00    -0.063 A 
HETATM   27  C15 UNL     1      28.959   1.002  54.475  1.00  0.00     0.033 A 
HETATM   28  C16 UNL     1      29.057   2.389  53.816  1.00  0.00     0.035 A 
ENDBRANCH  24  26
ENDBRANCH   2  23
TORSDOF 13
ENDMDL
MODEL 8
REMARK VINA RESULT:      -6.2      2.628      5.392
REMARK  13 active torsions:
REMARK  status: ('A' for Active; 'I' for Inactive)
REMARK    1  A    between atoms: C2_2  and  C3_3 
REMARK    2  A    between atoms: C3_3  and  N1_5 
REMARK    3  A    between atoms: N1_5  and  C5_6 
REMARK    4  A    between atoms: C6_7  and  N2_8 
REMARK    5  A    between atoms: N2_8  and  C7_9 
REMARK    6  A    between atoms: C7_9  and  C8_10 
REMARK    7  A    between atoms: C8_10  and  C9_11 
REMARK    8  A    between atoms: N3_12  and  C10_13 
REMARK    9  A    between atoms: C10_13  and  C11_14 
REMARK   10  A    between atoms: C11_14  and  N4_15 
REMARK   11  A    between atoms: N5_16  and  C12_17 
REMARK   12  A    between atoms: C13_18  and  C14_19 
REMARK   13  A    between atoms: C16_21  and  C17_22 
ROOT
HETATM    1  C7  UNL     1      24.898   3.044  50.964  1.00  0.00     0.105 C 
HETATM    2  N5  UNL     1      25.620   3.439  49.965  1.00  0.00    -0.257 NA
ENDROOT
BRANCH   1   3
HETATM    3  N2  UNL     1      24.815   1.703  51.370  1.00  0.00    -0.343 N 
HETATM    4  H11 UNL     1      24.250   0.947  50.888  1.00  0.00     0.167 HD
BRANCH   3   5
HETATM    5  C6  UNL     1      25.532   1.272  52.523  1.00  0.00     0.056 A 
HETATM    6  C5  UNL     1      25.104   0.320  53.372  1.00  0.00     0.035 A 
HETATM    7  C20 UNL     1      26.132   0.187  54.406  1.00  0.00     0.086 A 
HETATM    8  C19 UNL     1      27.165   1.201  53.988  1.00  0.00    -0.018 A 
HETATM    9  C18 UNL     1      26.802   1.828  52.888  1.00  0.00     0.028 A 
BRANCH   6  10
HETATM   10  N1  UNL     1      23.856  -0.317  53.130  1.00  0.00    -0.387 N 
HETATM   11  H10 UNL     1      23.787  -1.126  52.439  1.00  0.00     0.159 HD
BRANCH  10  12
HETATM   12  C3  UNL     1      22.640   0.083  53.786  1.00  0.00     0.077 C 
HETATM   13  C4  UNL     1      21.595   0.312  52.716  1.00  0.00     0.032 C 
BRANCH  12  14
HETATM   14  C2  UNL     1      22.214  -0.951  54.786  1.00  0.00     0.020 C 
HETATM   15  C1  UNL     1      20.999  -1.717  54.360  1.00  0.00     0.007 C 
ENDBRANCH  12  14
ENDBRANCH  10  12
ENDBRANCH   6  10
ENDBRANCH   3   5
ENDBRANCH   1   3
BRANCH   1  16
HETATM   16  C8  UNL     1      24.102   4.038  51.748  1.00  0.00     0.124 C 
BRANCH  16  17
HETATM   17  C9  UNL     1      22.665   3.984  51.372  1.00  0.00     0.097 C 
HETATM   18  N3  UNL     1      22.235   3.178  50.462  1.00  0.00    -0.267 NA
BRANCH  18  19
HETATM   19  C10 UNL     1      20.857   3.171  50.149  1.00  0.00     0.191 C 
BRANCH  19  20
HETATM   20  C11 UNL     1      20.015   3.233  51.166  1.00  0.00    -0.006 C 
BRANCH  20  21
HETATM   21  N4  UNL     1      19.152   3.551  52.064  1.00  0.00    -0.257 NA
HETATM   22  H16 UNL     1      19.415   3.494  53.073  1.00  0.00     0.197 HD
ENDBRANCH  20  21
ENDBRANCH  19  20
ENDBRANCH  18  19
ENDBRANCH  16  17
ENDBRANCH   1  16
BRANCH   2  23
HETATM   23  C12 UNL     1      25.733   4.761  49.527  1.00  0.00     0.120 A 
HETATM   24  C13 UNL     1      26.496   5.446  48.991  1.00  0.00    -0.035 A 
HETATM   25  C17 UNL     1      27.194   4.296  49.021  1.00  0.00     0.064 A 
BRANCH  24  26
HETATM   26  C14 UNL     1      27.243   6.085  48.475  1.00  0.00    -0.063 A 
HETATM   27  C15 UNL     1      28.076   6.766  47.913  1.00  0.00     0.033 A 
HETATM   28  C16 UNL     1      28.272   5.335  48.443  1.00  0.00     0.035 A 
ENDBRANCH  24  26
ENDBRANCH   2  23
TORSDOF 13
ENDMDL
MODEL 9
REMARK VINA RESULT:      -6.2      1.950      5.805
REMARK  13 active torsions:
REMARK  status: ('A' for Active; 'I' for Inactive)
REMARK    1  A    between atoms: C2_2  and  C3_3 
REMARK    2  A    between atoms: C3_3  and  N1_5 
REMARK    3  A    between atoms: N1_5  and  C5_6 
REMARK    4  A    between atoms: C6_7  and  N2_8 
REMARK    5  A    between atoms: N2_8  and  C7_9 
REMARK    6  A    between atoms: C7_9  and  C8_10 
REMARK    7  A    between atoms: C8_10  and  C9_11 
REMARK    8  A    between atoms: N3_12  and  C10_13 
REMARK    9  A    between atoms: C10_13  and  C11_14 
REMARK   10  A    between atoms: C11_14  and  N4_15 
REMARK   11  A    between atoms: N5_16  and  C12_17 
REMARK   12  A    between atoms: C13_18  and  C14_19 
REMARK   13  A    between atoms: C16_21  and  C17_22 
ROOT
HETATM    1  C7  UNL     1      25.170   1.706  52.002  1.00  0.00     0.105 C 
HETATM    2  N5  UNL     1      24.238   0.824  52.174  1.00  0.00    -0.257 NA
ENDROOT
BRANCH   1   3
HETATM    3  N2  UNL     1      25.681   2.048  50.741  1.00  0.00    -0.343 N 
HETATM    4  H11 UNL     1      26.392   1.487  50.190  1.00  0.00     0.167 HD
BRANCH   3   5
HETATM    5  C6  UNL     1      25.239   3.243  50.104  1.00  0.00     0.056 A 
HETATM    6  C5  UNL     1      24.004   3.426  49.603  1.00  0.00     0.035 A 
HETATM    7  C20 UNL     1      23.973   4.778  49.045  1.00  0.00     0.086 A 
HETATM    8  C19 UNL     1      25.363   5.290  49.319  1.00  0.00    -0.018 A 
HETATM    9  C18 UNL     1      26.092   4.384  49.937  1.00  0.00     0.028 A 
BRANCH   6  10
HETATM   10  N1  UNL     1      23.053   2.373  49.699  1.00  0.00    -0.387 N 
HETATM   11  H10 UNL     1      23.326   1.374  49.447  1.00  0.00     0.159 HD
BRANCH  10  12
HETATM   12  C3  UNL     1      21.697   2.588  50.131  1.00  0.00     0.077 C 
HETATM   13  C4  UNL     1      20.952   1.280  49.972  1.00  0.00     0.032 C 
BRANCH  12  14
HETATM   14  C2  UNL     1      21.665   3.094  51.542  1.00  0.00     0.020 C 
HETATM   15  C1  UNL     1      20.305   3.014  52.166  1.00  0.00     0.007 C 
ENDBRANCH  12  14
ENDBRANCH  10  12
ENDBRANCH   6  10
ENDBRANCH   3   5
ENDBRANCH   1   3
BRANCH   1  16
HETATM   16  C8  UNL     1      25.753   2.414  53.183  1.00  0.00     0.124 C 
BRANCH  16  17
HETATM   17  C9  UNL     1      27.122   1.917  53.479  1.00  0.00     0.097 C 
HETATM   18  N3  UNL     1      27.351   1.106  54.455  1.00  0.00    -0.267 NA
BRANCH  18  19
HETATM   19  C10 UNL     1      28.674   0.668  54.686  1.00  0.00     0.191 C 
BRANCH  19  20
HETATM   20  C11 UNL     1      29.012  -0.503  54.172  1.00  0.00    -0.006 C 
BRANCH  20  21
HETATM   21  N4  UNL     1      29.102  -1.615  53.534  1.00  0.00    -0.257 NA
HETATM   22  H16 UNL     1      28.276  -2.252  53.492  1.00  0.00     0.197 HD
ENDBRANCH  20  21
ENDBRANCH  19  20
ENDBRANCH  18  19
ENDBRANCH  16  17
ENDBRANCH   1  16
BRANCH   2  23
HETATM   23  C12 UNL     1      23.699   0.453  53.409  1.00  0.00     0.120 A 
HETATM   24  C13 UNL     1      22.849  -0.207  53.833  1.00  0.00    -0.035 A 
HETATM   25  C17 UNL     1      22.671  -0.413  52.515  1.00  0.00     0.064 A 
BRANCH  24  26
HETATM   26  C14 UNL     1      22.027  -0.846  54.217  1.00  0.00    -0.063 A 
HETATM   27  C15 UNL     1      21.111  -1.526  54.635  1.00  0.00     0.033 A 
HETATM   28  C16 UNL     1      21.019  -0.068  54.151  1.00  0.00     0.035 A 
ENDBRANCH  24  26
ENDBRANCH   2  23
TORSDOF 13
ENDMDL
