MODEL 1
REMARK VINA RESULT:      -8.7      0.000      0.000
REMARK  3 active torsions:
REMARK  status: ('A' for Active; 'I' for Inactive)
REMARK    1  A    between atoms: C4_4  and  C5_5 
REMARK    2  A    between atoms: C5_5  and  N1_6 
REMARK    3  A    between atoms: N1_6  and  C6_7 
ROOT
HETATM    1  C6  UNL     1      23.684   0.348  53.346  1.00  0.00     0.025 C 
HETATM    2  C7  UNL     1      22.497   0.030  53.910  1.00  0.00    -0.056 C 
HETATM    3  C8  UNL     1      22.618  -1.379  54.441  1.00  0.00     0.046 C 
HETATM    4  C9  UNL     1      21.191   0.608  54.206  1.00  0.00     0.076 C 
HETATM    5  C10 UNL     1      20.043   0.125  53.414  1.00  0.00    -0.027 A 
HETATM    6  C11 UNL     1      19.230  -0.978  53.458  1.00  0.00     0.011 A 
HETATM    7  C12 UNL     1      18.209  -1.180  52.554  1.00  0.00     0.024 A 
HETATM    8  C13 UNL     1      17.958  -0.254  51.540  1.00  0.00     0.036 A 
HETATM    9 CL1  UNL     1      16.664  -0.517  50.394  1.00  0.00    -0.084 Cl
HETATM   10  C14 UNL     1      18.740   0.885  51.434  1.00  0.00     0.053 A 
HETATM   11  C15 UNL     1      19.750   1.044  52.361  1.00  0.00     0.042 A 
HETATM   12  N2  UNL     1      20.478   2.244  52.219  1.00  0.00    -0.340 N 
HETATM   13  C16 UNL     1      21.767   2.372  51.773  1.00  0.00     0.135 C 
HETATM   14  N3  UNL     1      21.749   2.606  50.541  1.00  0.00    -0.225 NA
HETATM   15  C17 UNL     1      23.030   2.821  49.874  1.00  0.00     0.229 C 
HETATM   16  N4  UNL     1      24.293   2.858  50.362  1.00  0.00    -0.271 NA
HETATM   17  C18 UNL     1      24.385   2.679  51.813  1.00  0.00     0.164 A 
HETATM   18  C19 UNL     1      23.117   2.099  52.123  1.00  0.00     0.011 A 
HETATM   19  C20 UNL     1      24.282   1.491  52.623  1.00  0.00     0.077 A 
HETATM   20  H15 UNL     1      19.888   3.050  52.484  1.00  0.00     0.167 HD
ENDROOT
BRANCH   1  21
HETATM   21  N1  UNL     1      24.686  -0.700  53.413  1.00  0.00    -0.388 N 
HETATM   22  H6  UNL     1      24.695  -1.657  53.882  1.00  0.00     0.159 HD
BRANCH  21  23
HETATM   23  C5  UNL     1      25.960  -0.520  52.722  1.00  0.00     0.159 C 
BRANCH  23  24
HETATM   24  C4  UNL     1      27.102  -0.304  53.606  1.00  0.00    -0.030 A 
HETATM   25  C2  UNL     1      28.533  -0.462  53.949  1.00  0.00    -0.037 A 
HETATM   26  C1  UNL     1      29.640  -1.009  53.457  1.00  0.00     0.024 C 
HETATM   27  C3  UNL     1      27.571   0.233  54.768  1.00  0.00     0.021 A 
ENDBRANCH  23  24
ENDBRANCH  21  23
ENDBRANCH   1  21
TORSDOF 3
ENDMDL
MODEL 2
REMARK VINA RESULT:      -8.6      3.113      5.649
REMARK  3 active torsions:
REMARK  status: ('A' for Active; 'I' for Inactive)
REMARK    1  A    between atoms: C4_4  and  C5_5 
REMARK    2  A    between atoms: C5_5  and  N1_6 
REMARK    3  A    between atoms: N1_6  and  C6_7 
ROOT
HETATM    1  C6  UNL     1      25.431   1.490  52.575  1.00  0.00     0.025 C 
HETATM    2  C7  UNL     1      26.151   2.004  51.552  1.00  0.00    -0.056 C 
HETATM    3  C8  UNL     1      27.468   2.474  52.124  1.00  0.00     0.046 C 
HETATM    4  C9  UNL     1      26.089   2.201  50.108  1.00  0.00     0.076 C 
HETATM    5  C10 UNL     1      25.900   3.583  49.622  1.00  0.00    -0.027 A 
HETATM    6  C11 UNL     1      26.720   4.665  49.433  1.00  0.00     0.011 A 
HETATM    7  C12 UNL     1      26.252   5.872  48.961  1.00  0.00     0.024 A 
HETATM    8  C13 UNL     1      24.902   6.045  48.652  1.00  0.00     0.036 A 
HETATM    9 CL1  UNL     1      24.313   7.581  48.058  1.00  0.00    -0.084 Cl
HETATM   10  C14 UNL     1      24.014   4.995  48.820  1.00  0.00     0.053 A 
HETATM   11  C15 UNL     1      24.528   3.806  49.295  1.00  0.00     0.042 A 
HETATM   12  N2  UNL     1      23.577   2.770  49.401  1.00  0.00    -0.340 N 
HETATM   13  C16 UNL     1      23.062   2.245  50.558  1.00  0.00     0.135 C 
HETATM   14  N3  UNL     1      21.988   2.832  50.827  1.00  0.00    -0.225 NA
HETATM   15  C17 UNL     1      21.251   2.389  52.007  1.00  0.00     0.229 C 
HETATM   16  N4  UNL     1      21.498   1.389  52.887  1.00  0.00    -0.271 NA
HETATM   17  C18 UNL     1      22.695   0.601  52.586  1.00  0.00     0.164 A 
HETATM   18  C19 UNL     1      23.404   1.464  51.695  1.00  0.00     0.011 A 
HETATM   19  C20 UNL     1      24.092   0.898  52.782  1.00  0.00     0.077 A 
HETATM   20  H15 UNL     1      23.288   2.455  48.460  1.00  0.00     0.167 HD
ENDROOT
BRANCH   1  21
HETATM   21  N1  UNL     1      26.097   1.530  53.864  1.00  0.00    -0.388 N 
HETATM   22  H6  UNL     1      26.401   2.336  54.491  1.00  0.00     0.159 HD
BRANCH  21  23
HETATM   23  C5  UNL     1      26.446   0.279  54.531  1.00  0.00     0.159 C 
BRANCH  23  24
HETATM   24  C4  UNL     1      27.307  -0.604  53.749  1.00  0.00    -0.030 A 
HETATM   25  C2  UNL     1      28.641  -1.078  53.319  1.00  0.00    -0.037 A 
HETATM   26  C1  UNL     1      29.927  -0.818  53.531  1.00  0.00     0.024 C 
HETATM   27  C3  UNL     1      27.392  -1.628  52.852  1.00  0.00     0.021 A 
ENDBRANCH  23  24
ENDBRANCH  21  23
ENDBRANCH   1  21
TORSDOF 3
ENDMDL
MODEL 3
REMARK VINA RESULT:      -8.4      2.051      3.820
REMARK  3 active torsions:
REMARK  status: ('A' for Active; 'I' for Inactive)
REMARK    1  A    between atoms: C4_4  and  C5_5 
REMARK    2  A    between atoms: C5_5  and  N1_6 
REMARK    3  A    between atoms: N1_6  and  C6_7 
ROOT
HETATM    1  C6  UNL     1      24.264   1.245  52.772  1.00  0.00     0.025 C 
HETATM    2  C7  UNL     1      23.745   1.917  51.720  1.00  0.00    -0.056 C 
HETATM    3  C8  UNL     1      24.486   3.231  51.621  1.00  0.00     0.046 C 
HETATM    4  C9  UNL     1      22.764   1.770  50.650  1.00  0.00     0.076 C 
HETATM    5  C10 UNL     1      21.527   2.569  50.754  1.00  0.00    -0.027 A 
HETATM    6  C11 UNL     1      21.186   3.868  50.479  1.00  0.00     0.011 A 
HETATM    7  C12 UNL     1      19.915   4.358  50.690  1.00  0.00     0.024 A 
HETATM    8  C13 UNL     1      18.908   3.538  51.201  1.00  0.00     0.036 A 
HETATM    9 CL1  UNL     1      17.298   4.167  51.470  1.00  0.00    -0.084 Cl
HETATM   10  C14 UNL     1      19.180   2.214  51.502  1.00  0.00     0.053 A 
HETATM   11  C15 UNL     1      20.466   1.768  51.275  1.00  0.00     0.042 A 
HETATM   12  N2  UNL     1      20.661   0.401  51.565  1.00  0.00    -0.340 N 
HETATM   13  C16 UNL     1      21.372  -0.121  52.613  1.00  0.00     0.135 C 
HETATM   14  N3  UNL     1      20.585  -0.356  53.560  1.00  0.00    -0.225 NA
HETATM   15  C17 UNL     1      21.140  -0.962  54.768  1.00  0.00     0.229 C 
HETATM   16  N4  UNL     1      22.397  -1.375  55.059  1.00  0.00    -0.271 NA
HETATM   17  C18 UNL     1      23.355  -1.211  53.964  1.00  0.00     0.164 A 
HETATM   18  C19 UNL     1      22.690  -0.268  53.123  1.00  0.00     0.011 A 
HETATM   19  C20 UNL     1      24.032  -0.037  53.473  1.00  0.00     0.077 A 
HETATM   20  H15 UNL     1      20.163  -0.183  50.872  1.00  0.00     0.167 HD
ENDROOT
BRANCH   1  21
HETATM   21  N1  UNL     1      25.332   1.937  53.467  1.00  0.00    -0.388 N 
HETATM   22  H6  UNL     1      25.578   2.970  53.560  1.00  0.00     0.159 HD
BRANCH  21  23
HETATM   23  C5  UNL     1      26.306   1.167  54.236  1.00  0.00     0.159 C 
BRANCH  23  24
HETATM   24  C4  UNL     1      27.698   1.422  53.877  1.00  0.00    -0.030 A 
HETATM   25  C2  UNL     1      29.080   0.965  53.612  1.00  0.00    -0.037 A 
HETATM   26  C1  UNL     1      29.791  -0.158  53.590  1.00  0.00     0.024 C 
HETATM   27  C3  UNL     1      28.648   2.339  53.538  1.00  0.00     0.021 A 
ENDBRANCH  23  24
ENDBRANCH  21  23
ENDBRANCH   1  21
TORSDOF 3
ENDMDL
MODEL 4
REMARK VINA RESULT:      -8.2      2.381      4.394
REMARK  3 active torsions:
REMARK  status: ('A' for Active; 'I' for Inactive)
REMARK    1  A    between atoms: C4_4  and  C5_5 
REMARK    2  A    between atoms: C5_5  and  N1_6 
REMARK    3  A    between atoms: N1_6  and  C6_7 
ROOT
HETATM    1  C6  UNL     1      24.909   0.885  53.198  1.00  0.00     0.025 C 
HETATM    2  C7  UNL     1      24.976   1.590  52.046  1.00  0.00    -0.056 C 
HETATM    3  C8  UNL     1      26.191   2.484  52.139  1.00  0.00     0.046 C 
HETATM    4  C9  UNL     1      24.302   1.728  50.759  1.00  0.00     0.076 C 
HETATM    5  C10 UNL     1      23.515   2.958  50.537  1.00  0.00    -0.027 A 
HETATM    6  C11 UNL     1      23.812   4.247  50.181  1.00  0.00     0.011 A 
HETATM    7  C12 UNL     1      22.844   5.221  50.055  1.00  0.00     0.024 A 
HETATM    8  C13 UNL     1      21.500   4.927  50.290  1.00  0.00     0.036 A 
HETATM    9 CL1  UNL     1      20.276   6.166  50.133  1.00  0.00    -0.084 Cl
HETATM   10  C14 UNL     1      21.126   3.644  50.655  1.00  0.00     0.053 A 
HETATM   11  C15 UNL     1      22.129   2.704  50.769  1.00  0.00     0.042 A 
HETATM   12  N2  UNL     1      21.672   1.411  51.102  1.00  0.00    -0.340 N 
HETATM   13  C16 UNL     1      21.838   0.767  52.300  1.00  0.00     0.135 C 
HETATM   14  N3  UNL     1      20.826   0.966  53.011  1.00  0.00    -0.225 NA
HETATM   15  C17 UNL     1      20.783   0.325  54.323  1.00  0.00     0.229 C 
HETATM   16  N4  UNL     1      21.652  -0.518  54.930  1.00  0.00    -0.271 NA
HETATM   17  C18 UNL     1      22.822  -0.866  54.120  1.00  0.00     0.164 A 
HETATM   18  C19 UNL     1      22.820   0.166  53.134  1.00  0.00     0.011 A 
HETATM   19  C20 UNL     1      24.015  -0.116  53.818  1.00  0.00     0.077 A 
HETATM   20  H15 UNL     1      21.157   1.001  50.305  1.00  0.00     0.167 HD
ENDROOT
BRANCH   1  21
HETATM   21  N1  UNL     1      25.972   1.169  54.144  1.00  0.00    -0.388 N 
HETATM   22  H6  UNL     1      26.341   2.079  54.558  1.00  0.00     0.159 HD
BRANCH  21  23
HETATM   23  C5  UNL     1      26.735   0.065  54.719  1.00  0.00     0.159 C 
BRANCH  23  24
HETATM   24  C4  UNL     1      28.074  -0.101  54.159  1.00  0.00    -0.030 A 
HETATM   25  C2  UNL     1      29.156  -0.937  53.593  1.00  0.00    -0.037 A 
HETATM   26  C1  UNL     1      29.403  -2.207  53.288  1.00  0.00     0.024 C 
HETATM   27  C3  UNL     1      29.246   0.489  53.789  1.00  0.00     0.021 A 
ENDBRANCH  23  24
ENDBRANCH  21  23
ENDBRANCH   1  21
TORSDOF 3
ENDMDL
MODEL 5
REMARK VINA RESULT:      -8.1     10.644     13.915
REMARK  3 active torsions:
REMARK  status: ('A' for Active; 'I' for Inactive)
REMARK    1  A    between atoms: C4_4  and  C5_5 
REMARK    2  A    between atoms: C5_5  and  N1_6 
REMARK    3  A    between atoms: N1_6  and  C6_7 
ROOT
HETATM    1  C6  UNL     1      31.289   6.352  48.541  1.00  0.00     0.025 C 
HETATM    2  C7  UNL     1      31.811   7.590  48.690  1.00  0.00    -0.056 C 
HETATM    3  C8  UNL     1      30.698   8.489  49.174  1.00  0.00     0.046 C 
HETATM    4  C9  UNL     1      33.077   8.308  48.585  1.00  0.00     0.076 C 
HETATM    5  C10 UNL     1      33.231   9.244  47.453  1.00  0.00    -0.027 A 
HETATM    6  C11 UNL     1      32.827  10.528  47.195  1.00  0.00     0.011 A 
HETATM    7  C12 UNL     1      33.114  11.169  46.009  1.00  0.00     0.024 A 
HETATM    8  C13 UNL     1      33.841  10.525  45.006  1.00  0.00     0.036 A 
HETATM    9 CL1  UNL     1      34.200  11.342  43.502  1.00  0.00    -0.084 Cl
HETATM   10  C14 UNL     1      34.282   9.226  45.197  1.00  0.00     0.053 A 
HETATM   11  C15 UNL     1      33.970   8.625  46.399  1.00  0.00     0.042 A 
HETATM   12  N2  UNL     1      34.486   7.320  46.541  1.00  0.00    -0.340 N 
HETATM   13  C16 UNL     1      33.771   6.151  46.528  1.00  0.00     0.135 C 
HETATM   14  N3  UNL     1      33.775   5.686  45.364  1.00  0.00    -0.225 NA
HETATM   15  C17 UNL     1      33.100   4.411  45.141  1.00  0.00     0.229 C 
HETATM   16  N4  UNL     1      32.475   3.573  46.002  1.00  0.00    -0.271 NA
HETATM   17  C18 UNL     1      32.506   4.009  47.399  1.00  0.00     0.164 A 
HETATM   18  C19 UNL     1      32.826   5.395  47.273  1.00  0.00     0.011 A 
HETATM   19  C20 UNL     1      31.744   5.020  48.088  1.00  0.00     0.077 A 
HETATM   20  H15 UNL     1      35.514   7.354  46.641  1.00  0.00     0.167 HD
ENDROOT
BRANCH   1  21
HETATM   21  N1  UNL     1      29.882   6.244  48.875  1.00  0.00    -0.388 N 
HETATM   22  H6  UNL     1      29.282   6.715  49.620  1.00  0.00     0.159 HD
BRANCH  21  23
HETATM   23  C5  UNL     1      29.023   5.360  48.093  1.00  0.00     0.159 C 
BRANCH  23  24
HETATM   24  C4  UNL     1      27.676   5.191  48.631  1.00  0.00    -0.030 A 
HETATM   25  C2  UNL     1      26.625   4.378  49.282  1.00  0.00    -0.037 A 
HETATM   26  C1  UNL     1      26.443   3.153  49.763  1.00  0.00     0.024 C 
HETATM   27  C3  UNL     1      26.458   5.752  48.875  1.00  0.00     0.021 A 
ENDBRANCH  23  24
ENDBRANCH  21  23
ENDBRANCH   1  21
TORSDOF 3
ENDMDL
MODEL 6
REMARK VINA RESULT:      -7.9     11.171     14.420
REMARK  3 active torsions:
REMARK  status: ('A' for Active; 'I' for Inactive)
REMARK    1  A    between atoms: C4_4  and  C5_5 
REMARK    2  A    between atoms: C5_5  and  N1_6 
REMARK    3  A    between atoms: N1_6  and  C6_7 
ROOT
HETATM    1  C6  UNL     1      31.666   6.378  48.662  1.00  0.00     0.025 C 
HETATM    2  C7  UNL     1      32.215   7.611  48.747  1.00  0.00    -0.056 C 
HETATM    3  C8  UNL     1      31.192   8.511  49.400  1.00  0.00     0.046 C 
HETATM    4  C9  UNL     1      33.457   8.322  48.464  1.00  0.00     0.076 C 
HETATM    5  C10 UNL     1      33.451   9.270  47.333  1.00  0.00    -0.027 A 
HETATM    6  C11 UNL     1      33.023  10.560  47.151  1.00  0.00     0.011 A 
HETATM    7  C12 UNL     1      33.138  11.213  45.943  1.00  0.00     0.024 A 
HETATM    8  C13 UNL     1      33.704  10.577  44.837  1.00  0.00     0.036 A 
HETATM    9 CL1  UNL     1      33.844  11.409  43.306  1.00  0.00    -0.084 Cl
HETATM   10  C14 UNL     1      34.158   9.273  44.947  1.00  0.00     0.053 A 
HETATM   11  C15 UNL     1      34.021   8.659  46.175  1.00  0.00     0.042 A 
HETATM   12  N2  UNL     1      34.541   7.349  46.225  1.00  0.00    -0.340 N 
HETATM   13  C16 UNL     1      33.823   6.185  46.304  1.00  0.00     0.135 C 
HETATM   14  N3  UNL     1      33.652   5.735  45.147  1.00  0.00    -0.225 NA
HETATM   15  C17 UNL     1      32.941   4.466  45.012  1.00  0.00     0.229 C 
HETATM   16  N4  UNL     1      32.443   3.622  45.946  1.00  0.00    -0.271 NA
HETATM   17  C18 UNL     1      32.683   4.041  47.329  1.00  0.00     0.164 A 
HETATM   18  C19 UNL     1      32.992   5.426  47.172  1.00  0.00     0.011 A 
HETATM   19  C20 UNL     1      32.039   5.048  48.133  1.00  0.00     0.077 A 
HETATM   20  H15 UNL     1      35.574   7.375  46.173  1.00  0.00     0.167 HD
ENDROOT
BRANCH   1  21
HETATM   21  N1  UNL     1      30.322   6.275  49.200  1.00  0.00    -0.388 N 
HETATM   22  H6  UNL     1      29.931   6.392  50.185  1.00  0.00     0.159 HD
BRANCH  21  23
HETATM   23  C5  UNL     1      29.211   5.974  48.302  1.00  0.00     0.159 C 
BRANCH  23  24
HETATM   24  C4  UNL     1      28.938   7.009  47.309  1.00  0.00    -0.030 A 
HETATM   25  C2  UNL     1      29.349   7.873  46.180  1.00  0.00    -0.037 A 
HETATM   26  C1  UNL     1      30.413   8.113  45.421  1.00  0.00     0.024 C 
HETATM   27  C3  UNL     1      28.039   7.888  46.782  1.00  0.00     0.021 A 
ENDBRANCH  23  24
ENDBRANCH  21  23
ENDBRANCH   1  21
TORSDOF 3
ENDMDL
MODEL 7
REMARK VINA RESULT:      -7.8      3.220      6.877
REMARK  3 active torsions:
REMARK  status: ('A' for Active; 'I' for Inactive)
REMARK    1  A    between atoms: C4_4  and  C5_5 
REMARK    2  A    between atoms: C5_5  and  N1_6 
REMARK    3  A    between atoms: N1_6  and  C6_7 
ROOT
HETATM    1  C6  UNL     1      22.518   3.533  51.054  1.00  0.00     0.025 C 
HETATM    2  C7  UNL     1      23.774   3.451  51.549  1.00  0.00    -0.056 C 
HETATM    3  C8  UNL     1      24.695   4.095  50.539  1.00  0.00     0.046 C 
HETATM    4  C9  UNL     1      24.501   3.000  52.731  1.00  0.00     0.076 C 
HETATM    5  C10 UNL     1      25.329   1.786  52.592  1.00  0.00    -0.027 A 
HETATM    6  C11 UNL     1      26.576   1.514  52.091  1.00  0.00     0.011 A 
HETATM    7  C12 UNL     1      27.107   0.243  52.081  1.00  0.00     0.024 A 
HETATM    8  C13 UNL     1      26.385  -0.838  52.589  1.00  0.00     0.036 A 
HETATM    9 CL1  UNL     1      27.063  -2.450  52.571  1.00  0.00    -0.084 Cl
HETATM   10  C14 UNL     1      25.117  -0.639  53.111  1.00  0.00     0.053 A 
HETATM   11  C15 UNL     1      24.626   0.650  53.099  1.00  0.00     0.042 A 
HETATM   12  N2  UNL     1      23.349   0.786  53.683  1.00  0.00    -0.340 N 
HETATM   13  C16 UNL     1      22.172   1.037  53.028  1.00  0.00     0.135 C 
HETATM   14  N3  UNL     1      21.601  -0.053  52.790  1.00  0.00    -0.225 NA
HETATM   15  C17 UNL     1      20.298  -0.005  52.131  1.00  0.00     0.229 C 
HETATM   16  N4  UNL     1      19.534   1.046  51.746  1.00  0.00    -0.271 NA
HETATM   17  C18 UNL     1      20.100   2.356  52.073  1.00  0.00     0.164 A 
HETATM   18  C19 UNL     1      21.473   2.039  52.304  1.00  0.00     0.011 A 
HETATM   19  C20 UNL     1      21.157   3.108  51.446  1.00  0.00     0.077 A 
HETATM   20  H15 UNL     1      23.410   0.647  54.706  1.00  0.00     0.167 HD
ENDROOT
BRANCH   1  21
HETATM   21  N1  UNL     1      22.418   4.186  49.762  1.00  0.00    -0.388 N 
HETATM   22  H6  UNL     1      22.955   4.062  48.850  1.00  0.00     0.159 HD
BRANCH  21  23
HETATM   23  C5  UNL     1      21.404   5.217  49.556  1.00  0.00     0.159 C 
BRANCH  23  24
HETATM   24  C4  UNL     1      21.728   6.511  50.149  1.00  0.00    -0.030 A 
HETATM   25  C2  UNL     1      22.693   7.564  50.534  1.00  0.00    -0.037 A 
HETATM   26  C1  UNL     1      23.997   7.815  50.476  1.00  0.00     0.024 C 
HETATM   27  C3  UNL     1      21.272   7.637  50.769  1.00  0.00     0.021 A 
ENDBRANCH  23  24
ENDBRANCH  21  23
ENDBRANCH   1  21
TORSDOF 3
ENDMDL
MODEL 8
REMARK VINA RESULT:      -7.7      3.467      5.794
REMARK  3 active torsions:
REMARK  status: ('A' for Active; 'I' for Inactive)
REMARK    1  A    between atoms: C4_4  and  C5_5 
REMARK    2  A    between atoms: C5_5  and  N1_6 
REMARK    3  A    between atoms: N1_6  and  C6_7 
ROOT
HETATM    1  C6  UNL     1      23.069   2.201  51.610  1.00  0.00     0.025 C 
HETATM    2  C7  UNL     1      23.918   3.253  51.567  1.00  0.00    -0.056 C 
HETATM    3  C8  UNL     1      24.245   3.621  52.996  1.00  0.00     0.046 C 
HETATM    4  C9  UNL     1      24.639   4.092  50.616  1.00  0.00     0.076 C 
HETATM    5  C10 UNL     1      24.169   5.482  50.450  1.00  0.00    -0.027 A 
HETATM    6  C11 UNL     1      24.335   6.651  51.147  1.00  0.00     0.011 A 
HETATM    7  C12 UNL     1      23.751   7.836  50.753  1.00  0.00     0.024 A 
HETATM    8  C13 UNL     1      22.954   7.893  49.608  1.00  0.00     0.036 A 
HETATM    9 CL1  UNL     1      22.212   9.398  49.114  1.00  0.00    -0.084 Cl
HETATM   10  C14 UNL     1      22.742   6.751  48.854  1.00  0.00     0.053 A 
HETATM   11  C15 UNL     1      23.346   5.589  49.289  1.00  0.00     0.042 A 
HETATM   12  N2  UNL     1      23.121   4.476  48.451  1.00  0.00    -0.340 N 
HETATM   13  C16 UNL     1      22.336   3.388  48.728  1.00  0.00     0.135 C 
HETATM   14  N3  UNL     1      21.193   3.581  48.249  1.00  0.00    -0.225 NA
HETATM   15  C17 UNL     1      20.208   2.513  48.397  1.00  0.00     0.229 C 
HETATM   16  N4  UNL     1      20.309   1.278  48.944  1.00  0.00    -0.271 NA
HETATM   17  C18 UNL     1      21.644   0.948  49.447  1.00  0.00     0.164 A 
HETATM   18  C19 UNL     1      22.249   2.238  49.557  1.00  0.00     0.011 A 
HETATM   19  C20 UNL     1      22.324   1.357  50.650  1.00  0.00     0.077 A 
HETATM   20  H15 UNL     1      23.628   4.596  47.558  1.00  0.00     0.167 HD
ENDROOT
BRANCH   1  21
HETATM   21  N1  UNL     1      22.735   1.746  52.946  1.00  0.00    -0.388 N 
HETATM   22  H6  UNL     1      22.318   2.244  53.791  1.00  0.00     0.159 HD
BRANCH  21  23
HETATM   23  C5  UNL     1      22.954   0.348  53.304  1.00  0.00     0.159 C 
BRANCH  23  24
HETATM   24  C4  UNL     1      24.359  -0.036  53.414  1.00  0.00    -0.030 A 
HETATM   25  C2  UNL     1      25.752  -0.038  52.918  1.00  0.00    -0.037 A 
HETATM   26  C1  UNL     1      26.468   0.436  51.903  1.00  0.00     0.024 C 
HETATM   27  C3  UNL     1      25.317  -0.696  54.125  1.00  0.00     0.021 A 
ENDBRANCH  23  24
ENDBRANCH  21  23
ENDBRANCH   1  21
TORSDOF 3
ENDMDL
MODEL 9
REMARK VINA RESULT:      -7.7      3.580      6.783
REMARK  3 active torsions:
REMARK  status: ('A' for Active; 'I' for Inactive)
REMARK    1  A    between atoms: C4_4  and  C5_5 
REMARK    2  A    between atoms: C5_5  and  N1_6 
REMARK    3  A    between atoms: N1_6  and  C6_7 
ROOT
HETATM    1  C6  UNL     1      20.299   2.652  52.164  1.00  0.00     0.025 C 
HETATM    2  C7  UNL     1      20.959   3.804  51.912  1.00  0.00    -0.056 C 
HETATM    3  C8  UNL     1      20.148   4.570  50.892  1.00  0.00     0.046 C 
HETATM    4  C9  UNL     1      22.142   4.550  52.329  1.00  0.00     0.076 C 
HETATM    5  C10 UNL     1      23.264   4.626  51.374  1.00  0.00    -0.027 A 
HETATM    6  C11 UNL     1      23.546   5.386  50.268  1.00  0.00     0.011 A 
HETATM    7  C12 UNL     1      24.705   5.228  49.538  1.00  0.00     0.024 A 
HETATM    8  C13 UNL     1      25.655   4.272  49.903  1.00  0.00     0.036 A 
HETATM    9 CL1  UNL     1      27.122   4.074  48.973  1.00  0.00    -0.084 Cl
HETATM   10  C14 UNL     1      25.437   3.469  51.010  1.00  0.00     0.053 A 
HETATM   11  C15 UNL     1      24.263   3.662  51.708  1.00  0.00     0.042 A 
HETATM   12  N2  UNL     1      24.127   2.839  52.846  1.00  0.00    -0.340 N 
HETATM   13  C16 UNL     1      23.267   1.783  52.995  1.00  0.00     0.135 C 
HETATM   14  N3  UNL     1      23.867   0.725  52.690  1.00  0.00    -0.225 NA
HETATM   15  C17 UNL     1      23.135  -0.531  52.824  1.00  0.00     0.229 C 
HETATM   16  N4  UNL     1      21.883  -0.789  53.274  1.00  0.00    -0.271 NA
HETATM   17  C18 UNL     1      21.151   0.394  53.731  1.00  0.00     0.164 A 
HETATM   18  C19 UNL     1      21.890   1.456  53.126  1.00  0.00     0.011 A 
HETATM   19  C20 UNL     1      20.491   1.438  52.988  1.00  0.00     0.077 A 
HETATM   20  H15 UNL     1      24.798   3.130  53.577  1.00  0.00     0.167 HD
ENDROOT
BRANCH   1  21
HETATM   21  N1  UNL     1      19.061   2.488  51.426  1.00  0.00    -0.388 N 
HETATM   22  H6  UNL     1      18.112   2.968  51.499  1.00  0.00     0.159 HD
BRANCH  21  23
HETATM   23  C5  UNL     1      18.997   1.518  50.336  1.00  0.00     0.159 C 
BRANCH  23  24
HETATM   24  C4  UNL     1      20.262   1.307  49.639  1.00  0.00    -0.030 A 
HETATM   25  C2  UNL     1      21.305   1.724  48.675  1.00  0.00    -0.037 A 
HETATM   26  C1  UNL     1      21.573   2.722  47.839  1.00  0.00     0.024 C 
HETATM   27  C3  UNL     1      21.349   0.506  49.446  1.00  0.00     0.021 A 
ENDBRANCH  23  24
ENDBRANCH  21  23
ENDBRANCH   1  21
TORSDOF 3
ENDMDL
