MODEL 1
REMARK VINA RESULT:      -7.9      0.000      0.000
REMARK  10 active torsions:
REMARK  status: ('A' for Active; 'I' for Inactive)
REMARK    1  A    between atoms: C2_2  and  C3_3 
REMARK    2  A    between atoms: C5_5  and  C6_6 
REMARK    3  A    between atoms: C6_6  and  O1_7 
REMARK    4  A    between atoms: O1_7  and  C7_8 
REMARK    5  A    between atoms: C8_9  and  C9_10 
REMARK    6  A    between atoms: C9_10  and  C10_11 
REMARK    7  A    between atoms: C17_18  and  N1_19 
REMARK    8  A    between atoms: N1_19  and  C18_20 
REMARK    9  A    between atoms: C18_20  and  O2_21 
REMARK   10  A    between atoms: C20_23  and  O3_24 
ROOT
HETATM    1  C3  UNL     1      28.157   6.364  48.305  1.00  0.00    -0.005 A 
HETATM    2  C4  UNL     1      27.721   5.154  48.606  1.00  0.00     0.029 A 
HETATM    3  C5  UNL     1      26.417   4.991  49.241  1.00  0.00     0.016 A 
HETATM    4  C17 UNL     1      25.698   6.221  49.490  1.00  0.00     0.068 A 
HETATM    5  C19 UNL     1      26.265   7.515  49.122  1.00  0.00     0.069 A 
HETATM    6  C20 UNL     1      27.460   7.621  48.544  1.00  0.00     0.080 A 
ENDROOT
BRANCH   3   7
HETATM    7  C6  UNL     1      25.955   3.799  49.550  1.00  0.00     0.155 C 
BRANCH   7   8
HETATM    8  O1  UNL     1      26.789   2.772  50.009  1.00  0.00    -0.334 OA
BRANCH   8   9
HETATM    9  C7  UNL     1      26.458   2.245  51.263  1.00  0.00     0.137 C 
HETATM   10  C8  UNL     1      27.210   2.051  52.337  1.00  0.00    -0.002 C 
BRANCH  10  11
HETATM   11  C9  UNL     1      26.843   1.491  53.657  1.00  0.00     0.035 C 
BRANCH  11  12
HETATM   12  C10 UNL     1      27.722   0.328  54.026  1.00  0.00     0.004 C 
HETATM   13  C11 UNL     1      29.210   0.873  53.813  1.00  0.00     0.033 C 
HETATM   14  C12 UNL     1      29.862  -0.490  53.598  1.00  0.00    -0.019 C 
HETATM   15  C13 UNL     1      29.001  -1.519  53.311  1.00  0.00    -0.054 A 
HETATM   16  C14 UNL     1      28.207  -2.705  52.999  1.00  0.00     0.004 A 
HETATM   17  C16 UNL     1      27.772  -0.652  52.936  1.00  0.00     0.045 A 
HETATM   18  C15 UNL     1      27.199  -1.914  52.716  1.00  0.00    -0.016 A 
ENDBRANCH  11  12
ENDBRANCH  10  11
ENDBRANCH   8   9
ENDBRANCH   7   8
ENDBRANCH   3   7
BRANCH   4  19
HETATM   19  N1  UNL     1      24.538   6.162  50.050  1.00  0.00    -0.263 NA
BRANCH  19  20
HETATM   20  C18 UNL     1      24.155   7.171  51.026  1.00  0.00     0.314 C 
BRANCH  20  21
HETATM   21  O2  UNL     1      24.505   6.732  52.311  1.00  0.00    -0.380 OA
HETATM   22  H19 UNL     1      23.869   6.091  52.673  1.00  0.00     0.211 HD
ENDBRANCH  20  21
ENDBRANCH  19  20
ENDBRANCH   4  19
BRANCH   1  23
HETATM   23  C2  UNL     1      29.471   6.435  47.672  1.00  0.00    -0.012 C 
HETATM   24  C1  UNL     1      30.505   5.637  47.855  1.00  0.00     0.032 C 
ENDBRANCH   1  23
BRANCH   6  25
HETATM   25  O3  UNL     1      28.019   8.836  48.184  1.00  0.00    -0.355 OA
HETATM   26  C21 UNL     1      27.340  10.067  48.462  1.00  0.00     0.210 C 
ENDBRANCH   6  25
TORSDOF 10
ENDMDL
MODEL 2
REMARK VINA RESULT:      -7.6      5.106      8.124
REMARK  10 active torsions:
REMARK  status: ('A' for Active; 'I' for Inactive)
REMARK    1  A    between atoms: C2_2  and  C3_3 
REMARK    2  A    between atoms: C5_5  and  C6_6 
REMARK    3  A    between atoms: C6_6  and  O1_7 
REMARK    4  A    between atoms: O1_7  and  C7_8 
REMARK    5  A    between atoms: C8_9  and  C9_10 
REMARK    6  A    between atoms: C9_10  and  C10_11 
REMARK    7  A    between atoms: C17_18  and  N1_19 
REMARK    8  A    between atoms: N1_19  and  C18_20 
REMARK    9  A    between atoms: C18_20  and  O2_21 
REMARK   10  A    between atoms: C20_23  and  O3_24 
ROOT
HETATM    1  C3  UNL     1      25.134   1.992  52.471  1.00  0.00    -0.005 A 
HETATM    2  C4  UNL     1      24.530   1.113  53.251  1.00  0.00     0.029 A 
HETATM    3  C5  UNL     1      25.229  -0.106  53.645  1.00  0.00     0.016 A 
HETATM    4  C17 UNL     1      26.571  -0.240  53.123  1.00  0.00     0.068 A 
HETATM    5  C19 UNL     1      27.154   0.787  52.265  1.00  0.00     0.069 A 
HETATM    6  C20 UNL     1      26.482   1.887  51.928  1.00  0.00     0.080 A 
ENDROOT
BRANCH   3   7
HETATM    7  C6  UNL     1      24.655  -0.998  54.423  1.00  0.00     0.155 C 
BRANCH   7   8
HETATM    8  O1  UNL     1      23.457  -0.736  55.100  1.00  0.00    -0.334 OA
BRANCH   8   9
HETATM    9  C7  UNL     1      22.289  -0.983  54.371  1.00  0.00     0.137 C 
HETATM   10  C8  UNL     1      21.170  -0.276  54.277  1.00  0.00    -0.002 C 
BRANCH  10  11
HETATM   11  C9  UNL     1      19.941  -0.552  53.500  1.00  0.00     0.035 C 
BRANCH  11  12
HETATM   12  C10 UNL     1      19.731   0.472  52.419  1.00  0.00     0.004 C 
HETATM   13  C11 UNL     1      18.399  -0.007  51.674  1.00  0.00     0.033 C 
HETATM   14  C12 UNL     1      18.692   0.676  50.343  1.00  0.00    -0.019 C 
HETATM   15  C13 UNL     1      19.993   1.070  50.154  1.00  0.00    -0.054 A 
HETATM   16  C14 UNL     1      21.334   1.544  49.817  1.00  0.00     0.004 A 
HETATM   17  C16 UNL     1      20.626   0.219  51.284  1.00  0.00     0.045 A 
HETATM   18  C15 UNL     1      21.801   0.815  50.803  1.00  0.00    -0.016 A 
ENDBRANCH  11  12
ENDBRANCH  10  11
ENDBRANCH   8   9
ENDBRANCH   7   8
ENDBRANCH   3   7
BRANCH   4  19
HETATM   19  N1  UNL     1      27.255  -1.291  53.424  1.00  0.00    -0.263 NA
BRANCH  19  20
HETATM   20  C18 UNL     1      27.304  -2.412  52.497  1.00  0.00     0.314 C 
BRANCH  20  21
HETATM   21  O2  UNL     1      28.319  -3.295  52.889  1.00  0.00    -0.380 OA
HETATM   22  H19 UNL     1      29.004  -3.405  52.206  1.00  0.00     0.211 HD
ENDBRANCH  20  21
ENDBRANCH  19  20
ENDBRANCH   4  19
BRANCH   1  23
HETATM   23  C2  UNL     1      24.363   3.183  52.126  1.00  0.00    -0.012 C 
HETATM   24  C1  UNL     1      23.341   3.706  52.777  1.00  0.00     0.032 C 
ENDBRANCH   1  23
BRANCH   6  25
HETATM   25  O3  UNL     1      27.012   2.876  51.116  1.00  0.00    -0.355 OA
HETATM   26  C21 UNL     1      26.582   3.017  49.757  1.00  0.00     0.210 C 
ENDBRANCH   6  25
TORSDOF 10
ENDMDL
MODEL 3
REMARK VINA RESULT:      -7.6      5.119      7.812
REMARK  10 active torsions:
REMARK  status: ('A' for Active; 'I' for Inactive)
REMARK    1  A    between atoms: C2_2  and  C3_3 
REMARK    2  A    between atoms: C5_5  and  C6_6 
REMARK    3  A    between atoms: C6_6  and  O1_7 
REMARK    4  A    between atoms: O1_7  and  C7_8 
REMARK    5  A    between atoms: C8_9  and  C9_10 
REMARK    6  A    between atoms: C9_10  and  C10_11 
REMARK    7  A    between atoms: C17_18  and  N1_19 
REMARK    8  A    between atoms: N1_19  and  C18_20 
REMARK    9  A    between atoms: C18_20  and  O2_21 
REMARK   10  A    between atoms: C20_23  and  O3_24 
ROOT
HETATM    1  C3  UNL     1      24.994   2.445  52.763  1.00  0.00    -0.005 A 
HETATM    2  C4  UNL     1      25.115   1.806  53.913  1.00  0.00     0.029 A 
HETATM    3  C5  UNL     1      25.977   0.632  54.001  1.00  0.00     0.016 A 
HETATM    4  C17 UNL     1      26.644   0.266  52.771  1.00  0.00     0.068 A 
HETATM    5  C19 UNL     1      26.446   1.037  51.547  1.00  0.00     0.069 A 
HETATM    6  C20 UNL     1      25.650   2.104  51.507  1.00  0.00     0.080 A 
ENDROOT
BRANCH   3   7
HETATM    7  C6  UNL     1      26.119  -0.024  55.132  1.00  0.00     0.155 C 
BRANCH   7   8
HETATM    8  O1  UNL     1      25.450  -1.227  55.386  1.00  0.00    -0.334 OA
BRANCH   8   9
HETATM    9  C7  UNL     1      24.057  -1.130  55.486  1.00  0.00     0.137 C 
HETATM   10  C8  UNL     1      23.123  -1.195  54.547  1.00  0.00    -0.002 C 
BRANCH  10  11
HETATM   11  C9  UNL     1      21.652  -1.089  54.669  1.00  0.00     0.035 C 
BRANCH  11  12
HETATM   12  C10 UNL     1      20.997  -0.930  53.326  1.00  0.00     0.004 C 
HETATM   13  C11 UNL     1      21.530   0.480  52.790  1.00  0.00     0.033 C 
HETATM   14  C12 UNL     1      20.365   0.755  51.844  1.00  0.00    -0.019 C 
HETATM   15  C13 UNL     1      19.241  -0.003  52.054  1.00  0.00    -0.054 A 
HETATM   16  C14 UNL     1      17.981  -0.736  52.160  1.00  0.00     0.004 A 
HETATM   17  C16 UNL     1      19.601  -0.504  53.476  1.00  0.00     0.045 A 
HETATM   18  C15 UNL     1      18.356  -1.140  53.350  1.00  0.00    -0.016 A 
ENDBRANCH  11  12
ENDBRANCH  10  11
ENDBRANCH   8   9
ENDBRANCH   7   8
ENDBRANCH   3   7
BRANCH   4  19
HETATM   19  N1  UNL     1      27.423  -0.761  52.766  1.00  0.00    -0.263 NA
BRANCH  19  20
HETATM   20  C18 UNL     1      26.906  -2.057  52.351  1.00  0.00     0.314 C 
BRANCH  20  21
HETATM   21  O2  UNL     1      27.781  -3.065  52.780  1.00  0.00    -0.380 OA
HETATM   22  H19 UNL     1      28.468  -3.269  52.120  1.00  0.00     0.211 HD
ENDBRANCH  20  21
ENDBRANCH  19  20
ENDBRANCH   4  19
BRANCH   1  23
HETATM   23  C2  UNL     1      24.112   3.610  52.764  1.00  0.00    -0.012 C 
HETATM   24  C1  UNL     1      22.878   3.694  52.303  1.00  0.00     0.032 C 
ENDBRANCH   1  23
BRANCH   6  25
HETATM   25  O3  UNL     1      25.446   2.851  50.360  1.00  0.00    -0.355 OA
HETATM   26  C21 UNL     1      26.555   3.329  49.589  1.00  0.00     0.210 C 
ENDBRANCH   6  25
TORSDOF 10
ENDMDL
MODEL 4
REMARK VINA RESULT:      -7.5      3.040      3.826
REMARK  10 active torsions:
REMARK  status: ('A' for Active; 'I' for Inactive)
REMARK    1  A    between atoms: C2_2  and  C3_3 
REMARK    2  A    between atoms: C5_5  and  C6_6 
REMARK    3  A    between atoms: C6_6  and  O1_7 
REMARK    4  A    between atoms: O1_7  and  C7_8 
REMARK    5  A    between atoms: C8_9  and  C9_10 
REMARK    6  A    between atoms: C9_10  and  C10_11 
REMARK    7  A    between atoms: C17_18  and  N1_19 
REMARK    8  A    between atoms: N1_19  and  C18_20 
REMARK    9  A    between atoms: C18_20  and  O2_21 
REMARK   10  A    between atoms: C20_23  and  O3_24 
ROOT
HETATM    1  C3  UNL     1      27.237   6.019  48.584  1.00  0.00    -0.005 A 
HETATM    2  C4  UNL     1      27.373   4.767  48.979  1.00  0.00     0.029 A 
HETATM    3  C5  UNL     1      26.325   4.144  49.783  1.00  0.00     0.016 A 
HETATM    4  C17 UNL     1      25.194   4.994  50.081  1.00  0.00     0.068 A 
HETATM    5  C19 UNL     1      25.136   6.371  49.599  1.00  0.00     0.069 A 
HETATM    6  C20 UNL     1      26.113   6.902  48.867  1.00  0.00     0.080 A 
ENDROOT
BRANCH   3   7
HETATM    7  C6  UNL     1      26.430   2.898  50.189  1.00  0.00     0.155 C 
BRANCH   7   8
HETATM    8  O1  UNL     1      27.190   2.540  51.310  1.00  0.00    -0.334 OA
BRANCH   8   9
HETATM    9  C7  UNL     1      26.626   1.554  52.128  1.00  0.00     0.137 C 
HETATM   10  C8  UNL     1      25.357   1.224  52.324  1.00  0.00    -0.002 C 
BRANCH  10  11
HETATM   11  C9  UNL     1      24.777   0.178  53.194  1.00  0.00     0.035 C 
BRANCH  11  12
HETATM   12  C10 UNL     1      23.324  -0.055  52.884  1.00  0.00     0.004 C 
HETATM   13  C11 UNL     1      22.705   1.414  52.761  1.00  0.00     0.033 C 
HETATM   14  C12 UNL     1      21.268   1.022  53.088  1.00  0.00    -0.019 C 
HETATM   15  C13 UNL     1      21.109  -0.208  53.676  1.00  0.00    -0.054 A 
HETATM   16  C14 UNL     1      20.790  -1.489  54.303  1.00  0.00     0.004 A 
HETATM   17  C16 UNL     1      22.586  -0.419  54.098  1.00  0.00     0.045 A 
HETATM   18  C15 UNL     1      22.059  -1.614  54.612  1.00  0.00    -0.016 A 
ENDBRANCH  11  12
ENDBRANCH  10  11
ENDBRANCH   8   9
ENDBRANCH   7   8
ENDBRANCH   3   7
BRANCH   4  19
HETATM   19  N1  UNL     1      24.227   4.518  50.788  1.00  0.00    -0.263 NA
BRANCH  19  20
HETATM   20  C18 UNL     1      23.395   5.418  51.574  1.00  0.00     0.314 C 
BRANCH  20  21
HETATM   21  O2  UNL     1      23.959   5.581  52.847  1.00  0.00    -0.380 OA
HETATM   22  H19 UNL     1      23.782   6.460  53.225  1.00  0.00     0.211 HD
ENDBRANCH  20  21
ENDBRANCH  19  20
ENDBRANCH   4  19
BRANCH   1  23
HETATM   23  C2  UNL     1      28.332   6.563  47.783  1.00  0.00    -0.012 C 
HETATM   24  C1  UNL     1      29.601   6.201  47.790  1.00  0.00     0.032 C 
ENDBRANCH   1  23
BRANCH   6  25
HETATM   25  O3  UNL     1      26.082   8.205  48.398  1.00  0.00    -0.355 OA
HETATM   26  C21 UNL     1      25.768   9.293  49.275  1.00  0.00     0.210 C 
ENDBRANCH   6  25
TORSDOF 10
ENDMDL
MODEL 5
REMARK VINA RESULT:      -7.5      3.983      8.494
REMARK  10 active torsions:
REMARK  status: ('A' for Active; 'I' for Inactive)
REMARK    1  A    between atoms: C2_2  and  C3_3 
REMARK    2  A    between atoms: C5_5  and  C6_6 
REMARK    3  A    between atoms: C6_6  and  O1_7 
REMARK    4  A    between atoms: O1_7  and  C7_8 
REMARK    5  A    between atoms: C8_9  and  C9_10 
REMARK    6  A    between atoms: C9_10  and  C10_11 
REMARK    7  A    between atoms: C17_18  and  N1_19 
REMARK    8  A    between atoms: N1_19  and  C18_20 
REMARK    9  A    between atoms: C18_20  and  O2_21 
REMARK   10  A    between atoms: C20_23  and  O3_24 
ROOT
HETATM    1  C3  UNL     1      23.300   0.557  52.703  1.00  0.00    -0.005 A 
HETATM    2  C4  UNL     1      24.313   0.966  51.961  1.00  0.00     0.029 A 
HETATM    3  C5  UNL     1      25.676   0.596  52.330  1.00  0.00     0.016 A 
HETATM    4  C17 UNL     1      25.791  -0.215  53.522  1.00  0.00     0.068 A 
HETATM    5  C19 UNL     1      24.609  -0.617  54.278  1.00  0.00     0.069 A 
HETATM    6  C20 UNL     1      23.380  -0.259  53.908  1.00  0.00     0.080 A 
ENDROOT
BRANCH   3   7
HETATM    7  C6  UNL     1      26.705   0.986  51.610  1.00  0.00     0.155 C 
BRANCH   7   8
HETATM    8  O1  UNL     1      27.077   2.332  51.508  1.00  0.00    -0.334 OA
BRANCH   8   9
HETATM    9  C7  UNL     1      26.577   3.011  50.392  1.00  0.00     0.137 C 
HETATM   10  C8  UNL     1      25.658   3.964  50.308  1.00  0.00    -0.002 C 
BRANCH  10  11
HETATM   11  C9  UNL     1      25.139   4.673  49.117  1.00  0.00     0.035 C 
BRANCH  11  12
HETATM   12  C10 UNL     1      23.641   4.579  49.029  1.00  0.00     0.004 C 
HETATM   13  C11 UNL     1      23.138   4.848  50.523  1.00  0.00     0.033 C 
HETATM   14  C12 UNL     1      21.805   4.119  50.389  1.00  0.00    -0.019 C 
HETATM   15  C13 UNL     1      21.699   3.273  49.314  1.00  0.00    -0.054 A 
HETATM   16  C14 UNL     1      21.444   2.342  48.217  1.00  0.00     0.004 A 
HETATM   17  C16 UNL     1      23.211   3.177  48.985  1.00  0.00     0.045 A 
HETATM   18  C15 UNL     1      22.734   2.322  47.980  1.00  0.00    -0.016 A 
ENDBRANCH  11  12
ENDBRANCH  10  11
ENDBRANCH   8   9
ENDBRANCH   7   8
ENDBRANCH   3   7
BRANCH   4  19
HETATM   19  N1  UNL     1      26.962  -0.583  53.915  1.00  0.00    -0.263 NA
BRANCH  19  20
HETATM   20  C18 UNL     1      27.654   0.185  54.939  1.00  0.00     0.314 C 
BRANCH  20  21
HETATM   21  O2  UNL     1      29.006   0.312  54.592  1.00  0.00    -0.380 OA
HETATM   22  H19 UNL     1      29.151   0.263  53.630  1.00  0.00     0.211 HD
ENDBRANCH  20  21
ENDBRANCH  19  20
ENDBRANCH   4  19
BRANCH   1  23
HETATM   23  C2  UNL     1      21.971   0.972  52.261  1.00  0.00    -0.012 C 
HETATM   24  C1  UNL     1      21.176   0.368  51.399  1.00  0.00     0.032 C 
ENDBRANCH   1  23
BRANCH   6  25
HETATM   25  O3  UNL     1      22.244  -0.628  54.607  1.00  0.00    -0.355 OA
HETATM   26  C21 UNL     1      21.611  -1.890  54.365  1.00  0.00     0.210 C 
ENDBRANCH   6  25
TORSDOF 10
ENDMDL
MODEL 6
REMARK VINA RESULT:      -7.4      3.495      8.058
REMARK  10 active torsions:
REMARK  status: ('A' for Active; 'I' for Inactive)
REMARK    1  A    between atoms: C2_2  and  C3_3 
REMARK    2  A    between atoms: C5_5  and  C6_6 
REMARK    3  A    between atoms: C6_6  and  O1_7 
REMARK    4  A    between atoms: O1_7  and  C7_8 
REMARK    5  A    between atoms: C8_9  and  C9_10 
REMARK    6  A    between atoms: C9_10  and  C10_11 
REMARK    7  A    between atoms: C17_18  and  N1_19 
REMARK    8  A    between atoms: N1_19  and  C18_20 
REMARK    9  A    between atoms: C18_20  and  O2_21 
REMARK   10  A    between atoms: C20_23  and  O3_24 
ROOT
HETATM    1  C3  UNL     1      26.188   1.057  52.886  1.00  0.00    -0.005 A 
HETATM    2  C4  UNL     1      25.128   1.835  52.766  1.00  0.00     0.029 A 
HETATM    3  C5  UNL     1      23.797   1.287  53.010  1.00  0.00     0.016 A 
HETATM    4  C17 UNL     1      23.767  -0.112  53.374  1.00  0.00     0.068 A 
HETATM    5  C19 UNL     1      24.997  -0.891  53.481  1.00  0.00     0.069 A 
HETATM    6  C20 UNL     1      26.193  -0.354  53.249  1.00  0.00     0.080 A 
ENDROOT
BRANCH   3   7
HETATM    7  C6  UNL     1      22.722   2.037  52.901  1.00  0.00     0.155 C 
BRANCH   7   8
HETATM    8  O1  UNL     1      22.166   2.367  51.659  1.00  0.00    -0.334 OA
BRANCH   8   9
HETATM    9  C7  UNL     1      22.583   3.590  51.120  1.00  0.00     0.137 C 
HETATM   10  C8  UNL     1      23.398   3.847  50.106  1.00  0.00    -0.002 C 
BRANCH  10  11
HETATM   11  C9  UNL     1      23.830   5.148  49.548  1.00  0.00     0.035 C 
BRANCH  11  12
HETATM   12  C10 UNL     1      25.114   5.018  48.776  1.00  0.00     0.004 C 
HETATM   13  C11 UNL     1      25.887   3.816  49.494  1.00  0.00     0.033 C 
HETATM   14  C12 UNL     1      27.290   4.235  49.064  1.00  0.00    -0.019 C 
HETATM   15  C13 UNL     1      27.410   5.525  48.614  1.00  0.00    -0.054 A 
HETATM   16  C14 UNL     1      27.686   6.870  48.113  1.00  0.00     0.004 A 
HETATM   17  C16 UNL     1      26.067   6.059  49.176  1.00  0.00     0.045 A 
HETATM   18  C15 UNL     1      26.527   7.251  48.596  1.00  0.00    -0.016 A 
ENDBRANCH  11  12
ENDBRANCH  10  11
ENDBRANCH   8   9
ENDBRANCH   7   8
ENDBRANCH   3   7
BRANCH   4  19
HETATM   19  N1  UNL     1      22.629  -0.672  53.605  1.00  0.00    -0.263 NA
BRANCH  19  20
HETATM   20  C18 UNL     1      22.366  -1.263  54.909  1.00  0.00     0.314 C 
BRANCH  20  21
HETATM   21  O2  UNL     1      21.023  -1.659  54.978  1.00  0.00    -0.380 OA
HETATM   22  H19 UNL     1      20.770  -2.251  54.249  1.00  0.00     0.211 HD
ENDBRANCH  20  21
ENDBRANCH  19  20
ENDBRANCH   4  19
BRANCH   1  23
HETATM   23  C2  UNL     1      27.480   1.687  52.624  1.00  0.00    -0.012 C 
HETATM   24  C1  UNL     1      28.267   2.314  53.478  1.00  0.00     0.032 C 
ENDBRANCH   1  23
BRANCH   6  25
HETATM   25  O3  UNL     1      27.374  -1.071  53.344  1.00  0.00    -0.355 OA
HETATM   26  C21 UNL     1      27.524  -2.328  52.673  1.00  0.00     0.210 C 
ENDBRANCH   6  25
TORSDOF 10
ENDMDL
MODEL 7
REMARK VINA RESULT:      -7.4      4.844      7.787
REMARK  10 active torsions:
REMARK  status: ('A' for Active; 'I' for Inactive)
REMARK    1  A    between atoms: C2_2  and  C3_3 
REMARK    2  A    between atoms: C5_5  and  C6_6 
REMARK    3  A    between atoms: C6_6  and  O1_7 
REMARK    4  A    between atoms: O1_7  and  C7_8 
REMARK    5  A    between atoms: C8_9  and  C9_10 
REMARK    6  A    between atoms: C9_10  and  C10_11 
REMARK    7  A    between atoms: C17_18  and  N1_19 
REMARK    8  A    between atoms: N1_19  and  C18_20 
REMARK    9  A    between atoms: C18_20  and  O2_21 
REMARK   10  A    between atoms: C20_23  and  O3_24 
ROOT
HETATM    1  C3  UNL     1      21.513  -0.351  53.745  1.00  0.00    -0.005 A 
HETATM    2  C4  UNL     1      22.340   0.596  53.340  1.00  0.00     0.029 A 
HETATM    3  C5  UNL     1      21.882   1.592  52.376  1.00  0.00     0.016 A 
HETATM    4  C17 UNL     1      20.512   1.440  51.940  1.00  0.00     0.068 A 
HETATM    5  C19 UNL     1      19.674   0.358  52.446  1.00  0.00     0.069 A 
HETATM    6  C20 UNL     1      20.129  -0.533  53.326  1.00  0.00     0.080 A 
ENDROOT
BRANCH   3   7
HETATM    7  C6  UNL     1      22.682   2.548  51.955  1.00  0.00     0.155 C 
BRANCH   7   8
HETATM    8  O1  UNL     1      23.303   3.442  52.836  1.00  0.00    -0.334 OA
BRANCH   8   9
HETATM    9  C7  UNL     1      24.683   3.272  52.991  1.00  0.00     0.137 C 
HETATM   10  C8  UNL     1      25.402   2.165  53.114  1.00  0.00    -0.002 C 
BRANCH  10  11
HETATM   11  C9  UNL     1      26.864   2.001  53.278  1.00  0.00     0.035 C 
BRANCH  11  12
HETATM   12  C10 UNL     1      27.344   0.706  52.685  1.00  0.00     0.004 C 
HETATM   13  C11 UNL     1      26.043  -0.225  52.660  1.00  0.00     0.033 C 
HETATM   14  C12 UNL     1      26.786  -1.557  52.669  1.00  0.00    -0.019 C 
HETATM   15  C13 UNL     1      28.105  -1.497  53.042  1.00  0.00    -0.054 A 
HETATM   16  C14 UNL     1      29.515  -1.583  53.418  1.00  0.00     0.004 A 
HETATM   17  C16 UNL     1      28.067  -0.087  53.686  1.00  0.00     0.045 A 
HETATM   18  C15 UNL     1      29.418  -0.378  53.927  1.00  0.00    -0.016 A 
ENDBRANCH  11  12
ENDBRANCH  10  11
ENDBRANCH   8   9
ENDBRANCH   7   8
ENDBRANCH   3   7
BRANCH   4  19
HETATM   19  N1  UNL     1      20.033   2.280  51.088  1.00  0.00    -0.263 NA
BRANCH  19  20
HETATM   20  C18 UNL     1      19.325   3.462  51.558  1.00  0.00     0.314 C 
BRANCH  20  21
HETATM   21  O2  UNL     1      19.913   4.608  51.005  1.00  0.00    -0.380 OA
HETATM   22  H19 UNL     1      20.334   4.433  50.144  1.00  0.00     0.211 HD
ENDBRANCH  20  21
ENDBRANCH  19  20
ENDBRANCH   4  19
BRANCH   1  23
HETATM   23  C2  UNL     1      22.052  -1.306  54.710  1.00  0.00    -0.012 C 
HETATM   24  C1  UNL     1      23.213  -1.260  55.336  1.00  0.00     0.032 C 
ENDBRANCH   1  23
BRANCH   6  25
HETATM   25  O3  UNL     1      19.355  -1.568  53.822  1.00  0.00    -0.355 OA
HETATM   26  C21 UNL     1      17.982  -1.706  53.436  1.00  0.00     0.210 C 
ENDBRANCH   6  25
TORSDOF 10
ENDMDL
MODEL 8
REMARK VINA RESULT:      -7.2      4.009      8.368
REMARK  10 active torsions:
REMARK  status: ('A' for Active; 'I' for Inactive)
REMARK    1  A    between atoms: C2_2  and  C3_3 
REMARK    2  A    between atoms: C5_5  and  C6_6 
REMARK    3  A    between atoms: C6_6  and  O1_7 
REMARK    4  A    between atoms: O1_7  and  C7_8 
REMARK    5  A    between atoms: C8_9  and  C9_10 
REMARK    6  A    between atoms: C9_10  and  C10_11 
REMARK    7  A    between atoms: C17_18  and  N1_19 
REMARK    8  A    between atoms: N1_19  and  C18_20 
REMARK    9  A    between atoms: C18_20  and  O2_21 
REMARK   10  A    between atoms: C20_23  and  O3_24 
ROOT
HETATM    1  C3  UNL     1      24.462  -0.168  53.289  1.00  0.00    -0.005 A 
HETATM    2  C4  UNL     1      24.776   0.569  52.239  1.00  0.00     0.029 A 
HETATM    3  C5  UNL     1      26.137   1.076  52.091  1.00  0.00     0.016 A 
HETATM    4  C17 UNL     1      27.047   0.707  53.152  1.00  0.00     0.068 A 
HETATM    5  C19 UNL     1      26.606  -0.113  54.276  1.00  0.00     0.069 A 
HETATM    6  C20 UNL     1      25.353  -0.557  54.374  1.00  0.00     0.080 A 
ENDROOT
BRANCH   3   7
HETATM    7  C6  UNL     1      26.480   1.811  51.056  1.00  0.00     0.155 C 
BRANCH   7   8
HETATM    8  O1  UNL     1      26.465   3.211  51.097  1.00  0.00    -0.334 OA
BRANCH   8   9
HETATM    9  C7  UNL     1      25.318   3.814  50.568  1.00  0.00     0.137 C 
HETATM   10  C8  UNL     1      24.360   3.313  49.800  1.00  0.00    -0.002 C 
BRANCH  10  11
HETATM   11  C9  UNL     1      23.153   3.967  49.249  1.00  0.00     0.035 C 
BRANCH  11  12
HETATM   12  C10 UNL     1      21.903   3.475  49.924  1.00  0.00     0.004 C 
HETATM   13  C11 UNL     1      21.965   4.118  51.388  1.00  0.00     0.033 C 
HETATM   14  C12 UNL     1      21.078   3.080  52.068  1.00  0.00    -0.019 C 
HETATM   15  C13 UNL     1      20.894   1.912  51.372  1.00  0.00    -0.054 A 
HETATM   16  C14 UNL     1      20.610   0.622  50.746  1.00  0.00     0.004 A 
HETATM   17  C16 UNL     1      22.065   2.088  50.372  1.00  0.00     0.045 A 
HETATM   18  C15 UNL     1      21.602   0.843  49.918  1.00  0.00    -0.016 A 
ENDBRANCH  11  12
ENDBRANCH  10  11
ENDBRANCH   8   9
ENDBRANCH   7   8
ENDBRANCH   3   7
BRANCH   4  19
HETATM   19  N1  UNL     1      28.268   1.117  53.096  1.00  0.00    -0.263 NA
BRANCH  19  20
HETATM   20  C18 UNL     1      29.250   0.595  54.034  1.00  0.00     0.314 C 
BRANCH  20  21
HETATM   21  O2  UNL     1      30.500   0.514  53.404  1.00  0.00    -0.380 OA
HETATM   22  H19 UNL     1      30.635   1.222  52.750  1.00  0.00     0.211 HD
ENDBRANCH  20  21
ENDBRANCH  19  20
ENDBRANCH   4  19
BRANCH   1  23
HETATM   23  C2  UNL     1      23.079  -0.634  53.358  1.00  0.00    -0.012 C 
HETATM   24  C1  UNL     1      22.094  -0.149  54.090  1.00  0.00     0.032 C 
ENDBRANCH   1  23
BRANCH   6  25
HETATM   25  O3  UNL     1      24.910  -1.336  55.429  1.00  0.00    -0.355 OA
HETATM   26  C21 UNL     1      25.096  -0.911  56.784  1.00  0.00     0.210 C 
ENDBRANCH   6  25
TORSDOF 10
ENDMDL
MODEL 9
REMARK VINA RESULT:      -7.2      3.739      5.127
REMARK  10 active torsions:
REMARK  status: ('A' for Active; 'I' for Inactive)
REMARK    1  A    between atoms: C2_2  and  C3_3 
REMARK    2  A    between atoms: C5_5  and  C6_6 
REMARK    3  A    between atoms: C6_6  and  O1_7 
REMARK    4  A    between atoms: O1_7  and  C7_8 
REMARK    5  A    between atoms: C8_9  and  C9_10 
REMARK    6  A    between atoms: C9_10  and  C10_11 
REMARK    7  A    between atoms: C17_18  and  N1_19 
REMARK    8  A    between atoms: N1_19  and  C18_20 
REMARK    9  A    between atoms: C18_20  and  O2_21 
REMARK   10  A    between atoms: C20_23  and  O3_24 
ROOT
HETATM    1  C3  UNL     1      24.343   4.255  49.541  1.00  0.00    -0.005 A 
HETATM    2  C4  UNL     1      23.749   3.267  48.897  1.00  0.00     0.029 A 
HETATM    3  C5  UNL     1      22.303   3.298  48.701  1.00  0.00     0.016 A 
HETATM    4  C17 UNL     1      21.633   4.454  49.253  1.00  0.00     0.068 A 
HETATM    5  C19 UNL     1      22.378   5.497  49.951  1.00  0.00     0.069 A 
HETATM    6  C20 UNL     1      23.699   5.432  50.110  1.00  0.00     0.080 A 
ENDROOT
BRANCH   3   7
HETATM    7  C6  UNL     1      21.683   2.329  48.062  1.00  0.00     0.155 C 
BRANCH   7   8
HETATM    8  O1  UNL     1      20.829   1.431  48.715  1.00  0.00    -0.334 OA
BRANCH   8   9
HETATM    9  C7  UNL     1      21.415   0.686  49.744  1.00  0.00     0.137 C 
HETATM   10  C8  UNL     1      21.551   0.963  51.034  1.00  0.00    -0.002 C 
BRANCH  10  11
HETATM   11  C9  UNL     1      22.175   0.162  52.111  1.00  0.00     0.035 C 
BRANCH  11  12
HETATM   12  C10 UNL     1      23.157   0.978  52.906  1.00  0.00     0.004 C 
HETATM   13  C11 UNL     1      22.731   2.494  52.626  1.00  0.00     0.033 C 
HETATM   14  C12 UNL     1      24.094   3.112  52.923  1.00  0.00    -0.019 C 
HETATM   15  C13 UNL     1      25.150   2.236  52.935  1.00  0.00    -0.054 A 
HETATM   16  C14 UNL     1      26.364   1.424  52.982  1.00  0.00     0.004 A 
HETATM   17  C16 UNL     1      24.446   1.062  52.209  1.00  0.00     0.045 A 
HETATM   18  C15 UNL     1      25.703   0.463  52.383  1.00  0.00    -0.016 A 
ENDBRANCH  11  12
ENDBRANCH  10  11
ENDBRANCH   8   9
ENDBRANCH   7   8
ENDBRANCH   3   7
BRANCH   4  19
HETATM   19  N1  UNL     1      20.354   4.555  49.123  1.00  0.00    -0.263 NA
BRANCH  19  20
HETATM   20  C18 UNL     1      19.495   4.411  50.289  1.00  0.00     0.314 C 
BRANCH  20  21
HETATM   21  O2  UNL     1      18.885   3.150  50.265  1.00  0.00    -0.380 OA
HETATM   22  H19 UNL     1      18.905   2.741  49.382  1.00  0.00     0.211 HD
ENDBRANCH  20  21
ENDBRANCH  19  20
ENDBRANCH   4  19
BRANCH   1  23
HETATM   23  C2  UNL     1      25.792   4.144  49.692  1.00  0.00    -0.012 C 
HETATM   24  C1  UNL     1      26.532   3.053  49.646  1.00  0.00     0.032 C 
ENDBRANCH   1  23
BRANCH   6  25
HETATM   25  O3  UNL     1      24.429   6.408  50.767  1.00  0.00    -0.355 OA
HETATM   26  C21 UNL     1      23.931   7.746  50.878  1.00  0.00     0.210 C 
ENDBRANCH   6  25
TORSDOF 10
ENDMDL
