MODEL 1
REMARK VINA RESULT:      -6.5      0.000      0.000
REMARK  7 active torsions:
REMARK  status: ('A' for Active; 'I' for Inactive)
REMARK    1  A    between atoms: N1_2  and  C3_4 
REMARK    2  A    between atoms: C3_4  and  C4_5 
REMARK    3  A    between atoms: C5_6  and  C6_7 
REMARK       I    between atoms: C6_7  and  N2_9 
REMARK    4  A    between atoms: N2_9  and  C7_10 
REMARK    5  A    between atoms: C7_10  and  N3_11 
REMARK    6  A    between atoms: N3_11  and  C8_12 
REMARK    7  A    between atoms: C10_15  and  C11_16 
ROOT
HETATM    1  C7  UNL     1      25.023   3.009  51.745  1.00  0.00     0.275 C 
ENDROOT
BRANCH   1   2
HETATM    2  N2  UNL     1      26.228   3.636  51.244  1.00  0.00    -0.340 N 
HETATM    3  C6  UNL     1      26.099   3.843  49.837  1.00  0.00     0.242 C 
HETATM    4  O1  UNL     1      24.951   3.393  49.489  1.00  0.00    -0.269 OA
HETATM    5  H11 UNL     1      27.147   3.960  51.670  1.00  0.00     0.164 HD
BRANCH   3   6
HETATM    6  C5  UNL     1      27.094   4.456  48.932  1.00  0.00     0.072 C 
HETATM    7  C4  UNL     1      27.214   5.724  48.604  1.00  0.00     0.008 C 
BRANCH   7   8
HETATM    8  C3  UNL     1      26.922   7.167  48.572  1.00  0.00     0.299 C 
BRANCH   8   9
HETATM    9  N1  UNL     1      26.695   7.764  49.866  1.00  0.00     0.083 N 
HETATM   10  C1  UNL     1      27.060   9.144  49.869  1.00  0.00     0.309 C 
HETATM   11  C2  UNL     1      25.346   7.501  50.257  1.00  0.00     0.309 C 
ENDBRANCH   8   9
ENDBRANCH   7   8
ENDBRANCH   3   6
ENDBRANCH   1   2
BRANCH   1  12
HETATM   12  N3  UNL     1      25.248   2.468  53.081  1.00  0.00    -0.254 NA
BRANCH  12  13
HETATM   13  C8  UNL     1      26.365   1.769  53.233  1.00  0.00     0.141 A 
HETATM   14  N4  UNL     1      27.452   2.394  53.703  1.00  0.00    -0.244 NA
HETATM   15  C9  UNL     1      28.651   1.796  53.899  1.00  0.00     0.127 A 
HETATM   16  C10 UNL     1      28.665   0.460  53.569  1.00  0.00    -0.023 A 
HETATM   17  C12 UNL     1      27.583  -0.217  53.087  1.00  0.00    -0.030 A 
HETATM   18  C13 UNL     1      26.486  -0.935  52.590  1.00  0.00     0.007 A 
HETATM   19  C14 UNL     1      26.279   0.420  52.870  1.00  0.00     0.090 A 
BRANCH  16  20
HETATM   20  C11 UNL     1      29.925  -0.347  53.726  1.00  0.00     0.125 C 
HETATM   21 BR1  UNL     1      29.564  -2.189  53.272  1.00  0.00    -0.091 Br
ENDBRANCH  16  20
ENDBRANCH  12  13
ENDBRANCH   1  12
TORSDOF 7
ENDMDL
MODEL 2
REMARK VINA RESULT:      -6.3      2.751      3.774
REMARK  7 active torsions:
REMARK  status: ('A' for Active; 'I' for Inactive)
REMARK    1  A    between atoms: N1_2  and  C3_4 
REMARK    2  A    between atoms: C3_4  and  C4_5 
REMARK    3  A    between atoms: C5_6  and  C6_7 
REMARK       I    between atoms: C6_7  and  N2_9 
REMARK    4  A    between atoms: N2_9  and  C7_10 
REMARK    5  A    between atoms: C7_10  and  N3_11 
REMARK    6  A    between atoms: N3_11  and  C8_12 
REMARK    7  A    between atoms: C10_15  and  C11_16 
ROOT
HETATM    1  C7  UNL     1      26.580   3.135  50.147  1.00  0.00     0.275 C 
ENDROOT
BRANCH   1   2
HETATM    2  N2  UNL     1      25.978   4.418  50.445  1.00  0.00    -0.340 N 
HETATM    3  C6  UNL     1      26.365   5.361  49.445  1.00  0.00     0.242 C 
HETATM    4  O1  UNL     1      27.127   4.747  48.617  1.00  0.00    -0.269 OA
HETATM    5  H11 UNL     1      25.343   4.798  51.208  1.00  0.00     0.164 HD
BRANCH   3   6
HETATM    6  C5  UNL     1      25.974   6.783  49.362  1.00  0.00     0.072 C 
HETATM    7  C4  UNL     1      24.999   7.392  50.001  1.00  0.00     0.008 C 
BRANCH   7   8
HETATM    8  C3  UNL     1      23.851   7.567  50.908  1.00  0.00     0.299 C 
BRANCH   8   9
HETATM    9  N1  UNL     1      22.757   6.656  50.676  1.00  0.00     0.083 N 
HETATM   10  C1  UNL     1      22.822   5.536  51.559  1.00  0.00     0.309 C 
HETATM   11  C2  UNL     1      21.533   7.393  50.732  1.00  0.00     0.309 C 
ENDBRANCH   8   9
ENDBRANCH   7   8
ENDBRANCH   3   6
ENDBRANCH   1   2
BRANCH   1  12
HETATM   12  N3  UNL     1      27.059   2.501  51.370  1.00  0.00    -0.254 NA
BRANCH  12  13
HETATM   13  C8  UNL     1      26.185   1.718  51.988  1.00  0.00     0.141 A 
HETATM   14  N4  UNL     1      25.020   2.246  52.384  1.00  0.00    -0.244 NA
HETATM   15  C9  UNL     1      24.048   1.556  53.026  1.00  0.00     0.127 A 
HETATM   16  C10 UNL     1      24.360   0.233  53.246  1.00  0.00    -0.023 A 
HETATM   17  C12 UNL     1      25.533  -0.347  52.860  1.00  0.00    -0.030 A 
HETATM   18  C13 UNL     1      26.730  -0.967  52.474  1.00  0.00     0.007 A 
HETATM   19  C14 UNL     1      26.593   0.391  52.163  1.00  0.00     0.090 A 
BRANCH  16  20
HETATM   20  C11 UNL     1      23.385  -0.668  53.953  1.00  0.00     0.125 C 
HETATM   21 BR1  UNL     1      21.597  -0.284  53.331  1.00  0.00    -0.091 Br
ENDBRANCH  16  20
ENDBRANCH  12  13
ENDBRANCH   1  12
TORSDOF 7
ENDMDL
MODEL 3
REMARK VINA RESULT:      -6.3      1.854      2.406
REMARK  7 active torsions:
REMARK  status: ('A' for Active; 'I' for Inactive)
REMARK    1  A    between atoms: N1_2  and  C3_4 
REMARK    2  A    between atoms: C3_4  and  C4_5 
REMARK    3  A    between atoms: C5_6  and  C6_7 
REMARK       I    between atoms: C6_7  and  N2_9 
REMARK    4  A    between atoms: N2_9  and  C7_10 
REMARK    5  A    between atoms: C7_10  and  N3_11 
REMARK    6  A    between atoms: N3_11  and  C8_12 
REMARK    7  A    between atoms: C10_15  and  C11_16 
ROOT
HETATM    1  C7  UNL     1      23.735   4.346  51.119  1.00  0.00     0.275 C 
ENDROOT
BRANCH   1   2
HETATM    2  N2  UNL     1      25.112   4.718  50.869  1.00  0.00    -0.340 N 
HETATM    3  C6  UNL     1      25.605   3.971  49.757  1.00  0.00     0.242 C 
HETATM    4  O1  UNL     1      24.654   3.211  49.356  1.00  0.00    -0.269 OA
HETATM    5  H11 UNL     1      25.807   5.392  51.309  1.00  0.00     0.164 HD
BRANCH   3   6
HETATM    6  C5  UNL     1      26.957   4.042  49.164  1.00  0.00     0.072 C 
HETATM    7  C4  UNL     1      27.556   5.090  48.641  1.00  0.00     0.008 C 
BRANCH   7   8
HETATM    8  C3  UNL     1      27.751   6.482  48.200  1.00  0.00     0.299 C 
BRANCH   8   9
HETATM    9  N1  UNL     1      27.185   7.476  49.079  1.00  0.00     0.083 N 
HETATM   10  C1  UNL     1      28.015   8.635  49.151  1.00  0.00     0.309 C 
HETATM   11  C2  UNL     1      25.838   7.728  48.673  1.00  0.00     0.309 C 
ENDBRANCH   8   9
ENDBRANCH   7   8
ENDBRANCH   3   6
ENDBRANCH   1   2
BRANCH   1  12
HETATM   12  N3  UNL     1      23.552   3.989  52.521  1.00  0.00    -0.254 NA
BRANCH  12  13
HETATM   13  C8  UNL     1      24.082   2.830  52.889  1.00  0.00     0.141 A 
HETATM   14  N4  UNL     1      25.305   2.828  53.434  1.00  0.00    -0.244 NA
HETATM   15  C9  UNL     1      25.956   1.715  53.846  1.00  0.00     0.127 A 
HETATM   16  C10 UNL     1      25.243   0.553  53.655  1.00  0.00    -0.023 A 
HETATM   17  C12 UNL     1      23.996   0.506  53.104  1.00  0.00    -0.030 A 
HETATM   18  C13 UNL     1      22.714   0.432  52.541  1.00  0.00     0.007 A 
HETATM   19  C14 UNL     1      23.280   1.706  52.655  1.00  0.00     0.090 A 
BRANCH  16  20
HETATM   20  C11 UNL     1      25.832  -0.772  54.057  1.00  0.00     0.125 C 
HETATM   21 BR1  UNL     1      26.830  -1.502  52.573  1.00  0.00    -0.091 Br
ENDBRANCH  16  20
ENDBRANCH  12  13
ENDBRANCH   1  12
TORSDOF 7
ENDMDL
MODEL 4
REMARK VINA RESULT:      -6.3      3.382      7.561
REMARK  7 active torsions:
REMARK  status: ('A' for Active; 'I' for Inactive)
REMARK    1  A    between atoms: N1_2  and  C3_4 
REMARK    2  A    between atoms: C3_4  and  C4_5 
REMARK    3  A    between atoms: C5_6  and  C6_7 
REMARK       I    between atoms: C6_7  and  N2_9 
REMARK    4  A    between atoms: N2_9  and  C7_10 
REMARK    5  A    between atoms: C7_10  and  N3_11 
REMARK    6  A    between atoms: N3_11  and  C8_12 
REMARK    7  A    between atoms: C10_15  and  C11_16 
ROOT
HETATM    1  C7  UNL     1      26.316   3.151  50.631  1.00  0.00     0.275 C 
ENDROOT
BRANCH   1   2
HETATM    2  N2  UNL     1      26.882   2.040  51.369  1.00  0.00    -0.340 N 
HETATM    3  C6  UNL     1      25.824   1.227  51.877  1.00  0.00     0.242 C 
HETATM    4  O1  UNL     1      24.720   1.764  51.510  1.00  0.00    -0.269 OA
HETATM    5  H11 UNL     1      27.864   1.711  51.608  1.00  0.00     0.164 HD
BRANCH   3   6
HETATM    6  C5  UNL     1      25.955  -0.006  52.682  1.00  0.00     0.072 C 
HETATM    7  C4  UNL     1      26.651  -0.182  53.783  1.00  0.00     0.008 C 
BRANCH   7   8
HETATM    8  C3  UNL     1      27.538   0.144  54.914  1.00  0.00     0.299 C 
BRANCH   8   9
HETATM    9  N1  UNL     1      28.929   0.293  54.562  1.00  0.00     0.083 N 
HETATM   10  C1  UNL     1      29.355  -0.751  53.687  1.00  0.00     0.309 C 
HETATM   11  C2  UNL     1      29.132   1.616  54.061  1.00  0.00     0.309 C 
ENDBRANCH   8   9
ENDBRANCH   7   8
ENDBRANCH   3   6
ENDBRANCH   1   2
BRANCH   1  12
HETATM   12  N3  UNL     1      26.947   3.266  49.322  1.00  0.00    -0.254 NA
BRANCH  12  13
HETATM   13  C8  UNL     1      27.212   4.503  48.923  1.00  0.00     0.141 A 
HETATM   14  N4  UNL     1      28.473   4.813  48.593  1.00  0.00    -0.244 NA
HETATM   15  C9  UNL     1      28.873   6.038  48.175  1.00  0.00     0.127 A 
HETATM   16  C10 UNL     1      27.856   6.963  48.116  1.00  0.00    -0.023 A 
HETATM   17  C12 UNL     1      26.559   6.692  48.442  1.00  0.00    -0.030 A 
HETATM   18  C13 UNL     1      25.220   6.439  48.772  1.00  0.00     0.007 A 
HETATM   19  C14 UNL     1      26.113   5.369  48.895  1.00  0.00     0.090 A 
BRANCH  16  20
HETATM   20  C11 UNL     1      28.139   8.373  47.674  1.00  0.00     0.125 C 
HETATM   21 BR1  UNL     1      28.365   8.407  45.757  1.00  0.00    -0.091 Br
ENDBRANCH  16  20
ENDBRANCH  12  13
ENDBRANCH   1  12
TORSDOF 7
ENDMDL
MODEL 5
REMARK VINA RESULT:      -6.2      2.178      2.805
REMARK  7 active torsions:
REMARK  status: ('A' for Active; 'I' for Inactive)
REMARK    1  A    between atoms: N1_2  and  C3_4 
REMARK    2  A    between atoms: C3_4  and  C4_5 
REMARK    3  A    between atoms: C5_6  and  C6_7 
REMARK       I    between atoms: C6_7  and  N2_9 
REMARK    4  A    between atoms: N2_9  and  C7_10 
REMARK    5  A    between atoms: C7_10  and  N3_11 
REMARK    6  A    between atoms: N3_11  and  C8_12 
REMARK    7  A    between atoms: C10_15  and  C11_16 
ROOT
HETATM    1  C7  UNL     1      25.091   4.137  50.629  1.00  0.00     0.275 C 
ENDROOT
BRANCH   1   2
HETATM    2  N2  UNL     1      26.324   4.723  50.147  1.00  0.00    -0.340 N 
HETATM    3  C6  UNL     1      26.026   5.660  49.112  1.00  0.00     0.242 C 
HETATM    4  O1  UNL     1      24.754   5.661  48.953  1.00  0.00    -0.269 OA
HETATM    5  H11 UNL     1      27.356   4.616  50.381  1.00  0.00     0.164 HD
BRANCH   3   6
HETATM    6  C5  UNL     1      26.989   6.484  48.351  1.00  0.00     0.072 C 
HETATM    7  C4  UNL     1      28.259   6.236  48.121  1.00  0.00     0.008 C 
BRANCH   7   8
HETATM    8  C3  UNL     1      29.548   5.523  48.158  1.00  0.00     0.299 C 
BRANCH   8   9
HETATM    9  N1  UNL     1      30.648   6.295  48.683  1.00  0.00     0.083 N 
HETATM   10  C1  UNL     1      31.864   5.548  48.652  1.00  0.00     0.309 C 
HETATM   11  C2  UNL     1      30.695   7.546  47.992  1.00  0.00     0.309 C 
ENDBRANCH   8   9
ENDBRANCH   7   8
ENDBRANCH   3   6
ENDBRANCH   1   2
BRANCH   1  12
HETATM   12  N3  UNL     1      25.142   2.684  50.520  1.00  0.00    -0.254 NA
BRANCH  12  13
HETATM   13  C8  UNL     1      25.787   2.061  51.497  1.00  0.00     0.141 A 
HETATM   14  N4  UNL     1      27.053   2.414  51.755  1.00  0.00    -0.244 NA
HETATM   15  C9  UNL     1      27.820   1.854  52.720  1.00  0.00     0.127 A 
HETATM   16  C10 UNL     1      27.180   0.866  53.434  1.00  0.00    -0.023 A 
HETATM   17  C12 UNL     1      25.893   0.474  53.206  1.00  0.00    -0.030 A 
HETATM   18  C13 UNL     1      24.573   0.053  52.992  1.00  0.00     0.007 A 
HETATM   19  C14 UNL     1      25.052   1.074  52.164  1.00  0.00     0.090 A 
BRANCH  16  20
HETATM   20  C11 UNL     1      27.900   0.142  54.539  1.00  0.00     0.125 C 
HETATM   21 BR1  UNL     1      29.544  -0.600  53.849  1.00  0.00    -0.091 Br
ENDBRANCH  16  20
ENDBRANCH  12  13
ENDBRANCH   1  12
TORSDOF 7
ENDMDL
MODEL 6
REMARK VINA RESULT:      -6.2      2.813      3.739
REMARK  7 active torsions:
REMARK  status: ('A' for Active; 'I' for Inactive)
REMARK    1  A    between atoms: N1_2  and  C3_4 
REMARK    2  A    between atoms: C3_4  and  C4_5 
REMARK    3  A    between atoms: C5_6  and  C6_7 
REMARK       I    between atoms: C6_7  and  N2_9 
REMARK    4  A    between atoms: N2_9  and  C7_10 
REMARK    5  A    between atoms: C7_10  and  N3_11 
REMARK    6  A    between atoms: N3_11  and  C8_12 
REMARK    7  A    between atoms: C10_15  and  C11_16 
ROOT
HETATM    1  C7  UNL     1      26.440   3.271  49.907  1.00  0.00     0.275 C 
ENDROOT
BRANCH   1   2
HETATM    2  N2  UNL     1      27.297   4.331  49.419  1.00  0.00    -0.340 N 
HETATM    3  C6  UNL     1      26.488   5.388  48.902  1.00  0.00     0.242 C 
HETATM    4  O1  UNL     1      25.264   5.035  49.042  1.00  0.00    -0.269 OA
HETATM    5  H11 UNL     1      28.346   4.491  49.359  1.00  0.00     0.164 HD
BRANCH   3   6
HETATM    6  C5  UNL     1      26.954   6.660  48.310  1.00  0.00     0.072 C 
HETATM    7  C4  UNL     1      28.159   6.954  47.874  1.00  0.00     0.008 C 
BRANCH   7   8
HETATM    8  C3  UNL     1      29.585   6.773  47.553  1.00  0.00     0.299 C 
BRANCH   8   9
HETATM    9  N1  UNL     1      30.477   6.913  48.678  1.00  0.00     0.083 N 
HETATM   10  C1  UNL     1      31.729   6.275  48.427  1.00  0.00     0.309 C 
HETATM   11  C2  UNL     1      30.568   8.298  49.017  1.00  0.00     0.309 C 
ENDBRANCH   8   9
ENDBRANCH   7   8
ENDBRANCH   3   6
ENDBRANCH   1   2
BRANCH   1  12
HETATM   12  N3  UNL     1      26.961   2.730  51.157  1.00  0.00    -0.254 NA
BRANCH  12  13
HETATM   13  C8  UNL     1      26.144   1.918  51.813  1.00  0.00     0.141 A 
HETATM   14  N4  UNL     1      24.965   2.396  52.232  1.00  0.00    -0.244 NA
HETATM   15  C9  UNL     1      24.046   1.671  52.913  1.00  0.00     0.127 A 
HETATM   16  C10 UNL     1      24.429   0.370  53.148  1.00  0.00    -0.023 A 
HETATM   17  C12 UNL     1      25.618  -0.160  52.740  1.00  0.00    -0.030 A 
HETATM   18  C13 UNL     1      26.834  -0.727  52.332  1.00  0.00     0.007 A 
HETATM   19  C14 UNL     1      26.622   0.615  52.001  1.00  0.00     0.090 A 
BRANCH  16  20
HETATM   20  C11 UNL     1      23.519  -0.564  53.898  1.00  0.00     0.125 C 
HETATM   21 BR1  UNL     1      21.729  -0.417  53.186  1.00  0.00    -0.091 Br
ENDBRANCH  16  20
ENDBRANCH  12  13
ENDBRANCH   1  12
TORSDOF 7
ENDMDL
MODEL 7
REMARK VINA RESULT:      -5.9      3.860      7.459
REMARK  7 active torsions:
REMARK  status: ('A' for Active; 'I' for Inactive)
REMARK    1  A    between atoms: N1_2  and  C3_4 
REMARK    2  A    between atoms: C3_4  and  C4_5 
REMARK    3  A    between atoms: C5_6  and  C6_7 
REMARK       I    between atoms: C6_7  and  N2_9 
REMARK    4  A    between atoms: N2_9  and  C7_10 
REMARK    5  A    between atoms: C7_10  and  N3_11 
REMARK    6  A    between atoms: N3_11  and  C8_12 
REMARK    7  A    between atoms: C10_15  and  C11_16 
ROOT
HETATM    1  C7  UNL     1      26.731   2.415  51.287  1.00  0.00     0.275 C 
ENDROOT
BRANCH   1   2
HETATM    2  N2  UNL     1      25.435   1.976  51.761  1.00  0.00    -0.340 N 
HETATM    3  C6  UNL     1      25.602   0.821  52.584  1.00  0.00     0.242 C 
HETATM    4  O1  UNL     1      26.856   0.557  52.619  1.00  0.00    -0.269 OA
HETATM    5  H11 UNL     1      24.432   2.306  51.638  1.00  0.00     0.164 HD
BRANCH   3   6
HETATM    6  C5  UNL     1      24.542   0.056  53.273  1.00  0.00     0.072 C 
HETATM    7  C4  UNL     1      23.256   0.032  53.000  1.00  0.00     0.008 C 
BRANCH   7   8
HETATM    8  C3  UNL     1      21.992   0.352  52.315  1.00  0.00     0.299 C 
BRANCH   8   9
HETATM    9  N1  UNL     1      20.948   0.846  53.179  1.00  0.00     0.083 N 
HETATM   10  C1  UNL     1      20.417   2.080  52.695  1.00  0.00     0.309 C 
HETATM   11  C2  UNL     1      19.981  -0.190  53.364  1.00  0.00     0.309 C 
ENDBRANCH   8   9
ENDBRANCH   7   8
ENDBRANCH   3   6
ENDBRANCH   1   2
BRANCH   1  12
HETATM   12  N3  UNL     1      26.656   2.794  49.881  1.00  0.00    -0.254 NA
BRANCH  12  13
HETATM   13  C8  UNL     1      26.504   4.091  49.647  1.00  0.00     0.141 A 
HETATM   14  N4  UNL     1      25.413   4.704  50.124  1.00  0.00    -0.244 NA
HETATM   15  C9  UNL     1      25.139   6.019  49.951  1.00  0.00     0.127 A 
HETATM   16  C10 UNL     1      26.095   6.694  49.226  1.00  0.00    -0.023 A 
HETATM   17  C12 UNL     1      27.220   6.111  48.721  1.00  0.00    -0.030 A 
HETATM   18  C13 UNL     1      28.384   5.535  48.191  1.00  0.00     0.007 A 
HETATM   19  C14 UNL     1      27.528   4.687  48.902  1.00  0.00     0.090 A 
BRANCH  16  20
HETATM   20  C11 UNL     1      25.934   8.162  48.943  1.00  0.00     0.125 C 
HETATM   21 BR1  UNL     1      27.202   9.158  50.007  1.00  0.00    -0.091 Br
ENDBRANCH  16  20
ENDBRANCH  12  13
ENDBRANCH   1  12
TORSDOF 7
ENDMDL
MODEL 8
REMARK VINA RESULT:      -5.8      3.323      7.482
REMARK  7 active torsions:
REMARK  status: ('A' for Active; 'I' for Inactive)
REMARK    1  A    between atoms: N1_2  and  C3_4 
REMARK    2  A    between atoms: C3_4  and  C4_5 
REMARK    3  A    between atoms: C5_6  and  C6_7 
REMARK       I    between atoms: C6_7  and  N2_9 
REMARK    4  A    between atoms: N2_9  and  C7_10 
REMARK    5  A    between atoms: C7_10  and  N3_11 
REMARK    6  A    between atoms: N3_11  and  C8_12 
REMARK    7  A    between atoms: C10_15  and  C11_16 
ROOT
HETATM    1  C7  UNL     1      25.037   3.310  49.830  1.00  0.00     0.275 C 
ENDROOT
BRANCH   1   2
HETATM    2  N2  UNL     1      25.040   2.987  51.241  1.00  0.00    -0.340 N 
HETATM    3  C6  UNL     1      23.957   2.100  51.522  1.00  0.00     0.242 C 
HETATM    4  O1  UNL     1      23.339   1.892  50.419  1.00  0.00    -0.269 OA
HETATM    5  H11 UNL     1      25.640   3.253  52.078  1.00  0.00     0.164 HD
BRANCH   3   6
HETATM    6  C5  UNL     1      23.597   1.520  52.833  1.00  0.00     0.072 C 
HETATM    7  C4  UNL     1      24.093   0.445  53.405  1.00  0.00     0.008 C 
BRANCH   7   8
HETATM    8  C3  UNL     1      24.932  -0.753  53.581  1.00  0.00     0.299 C 
BRANCH   8   9
HETATM    9  N1  UNL     1      26.351  -0.495  53.600  1.00  0.00     0.083 N 
HETATM   10  C1  UNL     1      26.831  -0.148  52.302  1.00  0.00     0.309 C 
HETATM   11  C2  UNL     1      26.624   0.471  54.618  1.00  0.00     0.309 C 
ENDBRANCH   8   9
ENDBRANCH   7   8
ENDBRANCH   3   6
ENDBRANCH   1   2
BRANCH   1  12
HETATM   12  N3  UNL     1      26.399   3.520  49.353  1.00  0.00    -0.254 NA
BRANCH  12  13
HETATM   13  C8  UNL     1      26.706   4.769  49.032  1.00  0.00     0.141 A 
HETATM   14  N4  UNL     1      25.767   5.714  49.167  1.00  0.00    -0.244 NA
HETATM   15  C9  UNL     1      25.952   7.023  48.871  1.00  0.00     0.127 A 
HETATM   16  C10 UNL     1      27.215   7.313  48.406  1.00  0.00    -0.023 A 
HETATM   17  C12 UNL     1      28.202   6.384  48.252  1.00  0.00    -0.030 A 
HETATM   18  C13 UNL     1      29.232   5.448  48.085  1.00  0.00     0.007 A 
HETATM   19  C14 UNL     1      28.013   4.964  48.571  1.00  0.00     0.090 A 
BRANCH  16  20
HETATM   20  C11 UNL     1      27.577   8.723  48.029  1.00  0.00     0.125 C 
HETATM   21 BR1  UNL     1      28.533   9.548  49.491  1.00  0.00    -0.091 Br
ENDBRANCH  16  20
ENDBRANCH  12  13
ENDBRANCH   1  12
TORSDOF 7
ENDMDL
MODEL 9
REMARK VINA RESULT:      -5.8      3.530      7.615
REMARK  7 active torsions:
REMARK  status: ('A' for Active; 'I' for Inactive)
REMARK    1  A    between atoms: N1_2  and  C3_4 
REMARK    2  A    between atoms: C3_4  and  C4_5 
REMARK    3  A    between atoms: C5_6  and  C6_7 
REMARK       I    between atoms: C6_7  and  N2_9 
REMARK    4  A    between atoms: N2_9  and  C7_10 
REMARK    5  A    between atoms: C7_10  and  N3_11 
REMARK    6  A    between atoms: N3_11  and  C8_12 
REMARK    7  A    between atoms: C10_15  and  C11_16 
ROOT
HETATM    1  C7  UNL     1      26.167   4.354  49.667  1.00  0.00     0.275 C 
ENDROOT
BRANCH   1   2
HETATM    2  N2  UNL     1      26.138   3.671  50.944  1.00  0.00    -0.340 N 
HETATM    3  C6  UNL     1      24.959   2.868  51.020  1.00  0.00     0.242 C 
HETATM    4  O1  UNL     1      24.316   3.031  49.924  1.00  0.00    -0.269 OA
HETATM    5  H11 UNL     1      26.769   3.636  51.799  1.00  0.00     0.164 HD
BRANCH   3   6
HETATM    6  C5  UNL     1      24.539   2.006  52.145  1.00  0.00     0.072 C 
HETATM    7  C4  UNL     1      25.119   0.911  52.584  1.00  0.00     0.008 C 
BRANCH   7   8
HETATM    8  C3  UNL     1      26.100  -0.185  52.666  1.00  0.00     0.299 C 
BRANCH   8   9
HETATM    9  N1  UNL     1      27.147   0.017  53.637  1.00  0.00     0.083 N 
HETATM   10  C1  UNL     1      28.053   1.037  53.215  1.00  0.00     0.309 C 
HETATM   11  C2  UNL     1      26.546   0.241  54.914  1.00  0.00     0.309 C 
ENDBRANCH   8   9
ENDBRANCH   7   8
ENDBRANCH   3   6
ENDBRANCH   1   2
BRANCH   1  12
HETATM   12  N3  UNL     1      27.441   4.124  48.996  1.00  0.00    -0.254 NA
BRANCH  12  13
HETATM   13  C8  UNL     1      28.034   5.206  48.511  1.00  0.00     0.141 A 
HETATM   14  N4  UNL     1      29.357   5.174  48.305  1.00  0.00    -0.244 NA
HETATM   15  C9  UNL     1      30.080   6.210  47.819  1.00  0.00     0.127 A 
HETATM   16  C10 UNL     1      29.328   7.331  47.547  1.00  0.00    -0.023 A 
HETATM   17  C12 UNL     1      27.980   7.410  47.741  1.00  0.00    -0.030 A 
HETATM   18  C13 UNL     1      26.595   7.516  47.932  1.00  0.00     0.007 A 
HETATM   19  C14 UNL     1      27.186   6.293  48.266  1.00  0.00     0.090 A 
BRANCH  16  20
HETATM   20  C11 UNL     1      29.985   8.571  47.005  1.00  0.00     0.125 C 
HETATM   21 BR1  UNL     1      30.445   8.289  45.150  1.00  0.00    -0.091 Br
ENDBRANCH  16  20
ENDBRANCH  12  13
ENDBRANCH   1  12
TORSDOF 7
ENDMDL
