MODEL 1
REMARK VINA RESULT:      -8.0      0.000      0.000
REMARK  7 active torsions:
REMARK  status: ('A' for Active; 'I' for Inactive)
REMARK    1  A    between atoms: O1_2  and  C2_3 
REMARK    2  A    between atoms: C4_5  and  O2_6 
REMARK    3  A    between atoms: O2_6  and  C5_7 
REMARK    4  A    between atoms: C12_15  and  N2_16 
REMARK    5  A    between atoms: N2_16  and  C13_17 
REMARK    6  A    between atoms: C13_17  and  C14_18 
REMARK    7  A    between atoms: C15_19  and  C16_21 
ROOT
HETATM    1  C2  UNL     1      20.201  -0.420  53.142  1.00  0.00     0.073 A 
HETATM    2  C3  UNL     1      21.026   0.374  52.336  1.00  0.00     0.074 A 
HETATM    3  C4  UNL     1      22.380   0.522  52.524  1.00  0.00     0.088 A 
HETATM    4  C11 UNL     1      22.976  -0.148  53.568  1.00  0.00     0.072 A 
HETATM    5  C12 UNL     1      24.329  -0.028  53.790  1.00  0.00     0.140 A 
HETATM    6  N3  UNL     1      24.795  -0.725  54.831  1.00  0.00    -0.224 NA
HETATM    7  C17 UNL     1      24.033  -1.489  55.618  1.00  0.00     0.236 A 
HETATM    8  N4  UNL     1      22.733  -1.604  55.404  1.00  0.00    -0.241 NA
HETATM    9  C18 UNL     1      22.185  -0.936  54.377  1.00  0.00     0.077 A 
HETATM   10  C19 UNL     1      20.830  -1.084  54.190  1.00  0.00     0.069 A 
ENDROOT
BRANCH   3  11
HETATM   11  O2  UNL     1      23.093   1.308  51.697  1.00  0.00    -0.345 OA
BRANCH  11  12
HETATM   12  C5  UNL     1      22.821   2.490  51.044  1.00  0.00     0.132 C 
HETATM   13  C6  UNL     1      23.808   2.755  49.892  1.00  0.00     0.052 C 
HETATM   14  C7  UNL     1      23.490   4.155  49.413  1.00  0.00     0.119 C 
HETATM   15  N1  UNL     1      24.026   5.035  50.387  1.00  0.00    -0.416 N 
HETATM   16  C8  UNL     1      25.263   5.663  50.106  1.00  0.00     0.143 C 
HETATM   17  C9  UNL     1      23.749   4.736  51.740  1.00  0.00     0.119 C 
HETATM   18  C10 UNL     1      22.725   3.659  51.954  1.00  0.00     0.052 C 
ENDBRANCH  11  12
ENDBRANCH   3  11
BRANCH   1  19
HETATM   19  O1  UNL     1      18.840  -0.556  52.937  1.00  0.00    -0.356 OA
HETATM   20  C1  UNL     1      18.047  -1.608  53.389  1.00  0.00     0.210 C 
ENDBRANCH   1  19
BRANCH   5  21
HETATM   21  N2  UNL     1      25.222   0.760  53.016  1.00  0.00    -0.370 N 
HETATM   22  H17 UNL     1      25.435   1.762  52.904  1.00  0.00     0.161 HD
BRANCH  21  23
HETATM   23  C13 UNL     1      26.111   0.049  52.114  1.00  0.00     0.150 C 
BRANCH  23  24
HETATM   24  C14 UNL     1      27.397  -0.175  52.842  1.00  0.00     0.014 C 
HETATM   25  C15 UNL     1      28.255   0.701  53.340  1.00  0.00     0.038 C 
HETATM   26 CL1  UNL     1      28.321   2.436  53.399  1.00  0.00    -0.087 Cl
BRANCH  25  27
HETATM   27  C16 UNL     1      29.488   0.260  54.036  1.00  0.00     0.273 C 
HETATM   28  F1  UNL     1      30.168  -0.620  53.200  1.00  0.00    -0.250 F 
ENDBRANCH  25  27
ENDBRANCH  23  24
ENDBRANCH  21  23
ENDBRANCH   5  21
TORSDOF 7
ENDMDL
MODEL 2
REMARK VINA RESULT:      -7.7      3.952      6.185
REMARK  7 active torsions:
REMARK  status: ('A' for Active; 'I' for Inactive)
REMARK    1  A    between atoms: O1_2  and  C2_3 
REMARK    2  A    between atoms: C4_5  and  O2_6 
REMARK    3  A    between atoms: O2_6  and  C5_7 
REMARK    4  A    between atoms: C12_15  and  N2_16 
REMARK    5  A    between atoms: N2_16  and  C13_17 
REMARK    6  A    between atoms: C13_17  and  C14_18 
REMARK    7  A    between atoms: C15_19  and  C16_21 
ROOT
HETATM    1  C2  UNL     1      25.892  -0.209  54.513  1.00  0.00     0.073 A 
HETATM    2  C3  UNL     1      25.538   0.502  53.360  1.00  0.00     0.074 A 
HETATM    3  C4  UNL     1      24.273   0.521  52.821  1.00  0.00     0.088 A 
HETATM    4  C11 UNL     1      23.282  -0.201  53.445  1.00  0.00     0.072 A 
HETATM    5  C12 UNL     1      22.002  -0.207  52.938  1.00  0.00     0.140 A 
HETATM    6  N3  UNL     1      21.124  -0.943  53.629  1.00  0.00    -0.224 NA
HETATM    7  C17 UNL     1      21.433  -1.632  54.731  1.00  0.00     0.236 A 
HETATM    8  N4  UNL     1      22.663  -1.625  55.217  1.00  0.00    -0.241 NA
HETATM    9  C18 UNL     1      23.605  -0.911  54.583  1.00  0.00     0.077 A 
HETATM   10  C19 UNL     1      24.871  -0.930  55.122  1.00  0.00     0.069 A 
ENDROOT
BRANCH   3  11
HETATM   11  O2  UNL     1      24.026   1.234  51.708  1.00  0.00    -0.345 OA
BRANCH  11  12
HETATM   12  C5  UNL     1      24.182   2.562  51.378  1.00  0.00     0.132 C 
HETATM   13  C6  UNL     1      23.546   3.497  52.422  1.00  0.00     0.052 C 
HETATM   14  C7  UNL     1      23.639   4.884  51.821  1.00  0.00     0.119 C 
HETATM   15  N1  UNL     1      22.643   4.944  50.815  1.00  0.00    -0.416 N 
HETATM   16  C8  UNL     1      21.429   5.607  51.120  1.00  0.00     0.143 C 
HETATM   17  C9  UNL     1      22.572   3.855  49.918  1.00  0.00     0.119 C 
HETATM   18  C10 UNL     1      23.718   2.888  50.004  1.00  0.00     0.052 C 
ENDBRANCH  11  12
ENDBRANCH   3  11
BRANCH   1  19
HETATM   19  O1  UNL     1      27.170  -0.216  55.040  1.00  0.00    -0.356 OA
HETATM   20  C1  UNL     1      28.354  -0.087  54.318  1.00  0.00     0.210 C 
ENDBRANCH   1  19
BRANCH   5  21
HETATM   21  N2  UNL     1      21.575   0.486  51.775  1.00  0.00    -0.370 N 
HETATM   22  H17 UNL     1      21.832   0.508  50.777  1.00  0.00     0.161 HD
BRANCH  21  23
HETATM   23  C13 UNL     1      20.492   1.440  51.940  1.00  0.00     0.150 C 
BRANCH  23  24
HETATM   24  C14 UNL     1      19.414   1.061  50.975  1.00  0.00     0.014 C 
HETATM   25  C15 UNL     1      18.407   0.214  51.118  1.00  0.00     0.038 C 
HETATM   26 CL1  UNL     1      17.860  -0.817  52.405  1.00  0.00    -0.087 Cl
BRANCH  25  27
HETATM   27  C16 UNL     1      17.437  -0.018  50.020  1.00  0.00     0.273 C 
HETATM   28  F1  UNL     1      16.469  -0.907  50.477  1.00  0.00    -0.250 F 
ENDBRANCH  25  27
ENDBRANCH  23  24
ENDBRANCH  21  23
ENDBRANCH   5  21
TORSDOF 7
ENDMDL
MODEL 3
REMARK VINA RESULT:      -7.7      3.198      4.663
REMARK  7 active torsions:
REMARK  status: ('A' for Active; 'I' for Inactive)
REMARK    1  A    between atoms: O1_2  and  C2_3 
REMARK    2  A    between atoms: C4_5  and  O2_6 
REMARK    3  A    between atoms: O2_6  and  C5_7 
REMARK    4  A    between atoms: C12_15  and  N2_16 
REMARK    5  A    between atoms: N2_16  and  C13_17 
REMARK    6  A    between atoms: C13_17  and  C14_18 
REMARK    7  A    between atoms: C15_19  and  C16_21 
ROOT
HETATM    1  C2  UNL     1      23.933  -0.449  54.117  1.00  0.00     0.073 A 
HETATM    2  C3  UNL     1      23.432   0.540  53.261  1.00  0.00     0.074 A 
HETATM    3  C4  UNL     1      24.212   1.453  52.592  1.00  0.00     0.088 A 
HETATM    4  C11 UNL     1      25.576   1.403  52.765  1.00  0.00     0.072 A 
HETATM    5  C12 UNL     1      26.393   2.298  52.112  1.00  0.00     0.140 A 
HETATM    6  N3  UNL     1      27.700   2.153  52.356  1.00  0.00    -0.224 NA
HETATM    7  C17 UNL     1      28.208   1.221  53.166  1.00  0.00     0.236 A 
HETATM    8  N4  UNL     1      27.422   0.361  53.794  1.00  0.00    -0.241 NA
HETATM    9  C18 UNL     1      26.096   0.439  53.603  1.00  0.00     0.077 A 
HETATM   10  C19 UNL     1      25.315  -0.475  54.273  1.00  0.00     0.069 A 
ENDROOT
BRANCH   3  11
HETATM   11  O2  UNL     1      23.639   2.368  51.790  1.00  0.00    -0.345 OA
BRANCH  11  12
HETATM   12  C5  UNL     1      22.516   3.157  51.902  1.00  0.00     0.132 C 
HETATM   13  C6  UNL     1      21.702   3.195  50.596  1.00  0.00     0.052 C 
HETATM   14  C7  UNL     1      20.627   4.236  50.829  1.00  0.00     0.119 C 
HETATM   15  N1  UNL     1      21.274   5.495  50.739  1.00  0.00    -0.416 N 
HETATM   16  C8  UNL     1      21.141   6.224  49.533  1.00  0.00     0.143 C 
HETATM   17  C9  UNL     1      22.485   5.645  51.451  1.00  0.00     0.119 C 
HETATM   18  C10 UNL     1      22.803   4.527  52.401  1.00  0.00     0.052 C 
ENDBRANCH  11  12
ENDBRANCH   3  11
BRANCH   1  19
HETATM   19  O1  UNL     1      23.132  -1.358  54.782  1.00  0.00    -0.356 OA
HETATM   20  C1  UNL     1      21.774  -1.568  54.558  1.00  0.00     0.210 C 
ENDBRANCH   1  19
BRANCH   5  21
HETATM   21  N2  UNL     1      25.952   3.325  51.236  1.00  0.00    -0.370 N 
HETATM   22  H17 UNL     1      25.316   4.134  51.286  1.00  0.00     0.161 HD
BRANCH  21  23
HETATM   23  C13 UNL     1      26.490   3.312  49.886  1.00  0.00     0.150 C 
BRANCH  23  24
HETATM   24  C14 UNL     1      26.310   4.684  49.322  1.00  0.00     0.014 C 
HETATM   25  C15 UNL     1      27.176   5.464  48.693  1.00  0.00     0.038 C 
HETATM   26 CL1  UNL     1      28.844   5.304  48.235  1.00  0.00    -0.087 Cl
BRANCH  25  27
HETATM   27  C16 UNL     1      26.786   6.810  48.207  1.00  0.00     0.273 C 
HETATM   28  F1  UNL     1      25.454   6.759  47.807  1.00  0.00    -0.250 F 
ENDBRANCH  25  27
ENDBRANCH  23  24
ENDBRANCH  21  23
ENDBRANCH   5  21
TORSDOF 7
ENDMDL
MODEL 4
REMARK VINA RESULT:      -7.7      3.189      5.336
REMARK  7 active torsions:
REMARK  status: ('A' for Active; 'I' for Inactive)
REMARK    1  A    between atoms: O1_2  and  C2_3 
REMARK    2  A    between atoms: C4_5  and  O2_6 
REMARK    3  A    between atoms: O2_6  and  C5_7 
REMARK    4  A    between atoms: C12_15  and  N2_16 
REMARK    5  A    between atoms: N2_16  and  C13_17 
REMARK    6  A    between atoms: C13_17  and  C14_18 
REMARK    7  A    between atoms: C15_19  and  C16_21 
ROOT
HETATM    1  C2  UNL     1      25.871  -0.177  54.601  1.00  0.00     0.073 A 
HETATM    2  C3  UNL     1      25.584   0.679  53.532  1.00  0.00     0.074 A 
HETATM    3  C4  UNL     1      24.342   0.808  52.956  1.00  0.00     0.088 A 
HETATM    4  C11 UNL     1      23.305   0.053  53.454  1.00  0.00     0.072 A 
HETATM    5  C12 UNL     1      22.046   0.154  52.907  1.00  0.00     0.140 A 
HETATM    6  N3  UNL     1      21.119  -0.626  53.474  1.00  0.00    -0.224 NA
HETATM    7  C17 UNL     1      21.363  -1.452  54.494  1.00  0.00     0.236 A 
HETATM    8  N4  UNL     1      22.573  -1.549  55.019  1.00  0.00    -0.241 NA
HETATM    9  C18 UNL     1      23.561  -0.798  54.508  1.00  0.00     0.077 A 
HETATM   10  C19 UNL     1      24.804  -0.928  55.084  1.00  0.00     0.069 A 
ENDROOT
BRANCH   3  11
HETATM   11  O2  UNL     1      24.161   1.657  51.929  1.00  0.00    -0.345 OA
BRANCH  11  12
HETATM   12  C5  UNL     1      24.619   2.927  51.655  1.00  0.00     0.132 C 
HETATM   13  C6  UNL     1      23.478   3.959  51.616  1.00  0.00     0.052 C 
HETATM   14  C7  UNL     1      24.120   5.240  51.126  1.00  0.00     0.119 C 
HETATM   15  N1  UNL     1      24.328   5.068  49.734  1.00  0.00    -0.416 N 
HETATM   16  C8  UNL     1      23.408   5.674  48.845  1.00  0.00     0.143 C 
HETATM   17  C9  UNL     1      24.916   3.851  49.321  1.00  0.00     0.119 C 
HETATM   18  C10 UNL     1      25.460   3.001  50.433  1.00  0.00     0.052 C 
ENDBRANCH  11  12
ENDBRANCH   3  11
BRANCH   1  19
HETATM   19  O1  UNL     1      27.127  -0.294  55.168  1.00  0.00    -0.356 OA
HETATM   20  C1  UNL     1      28.340  -0.077  54.518  1.00  0.00     0.210 C 
ENDBRANCH   1  19
BRANCH   5  21
HETATM   21  N2  UNL     1      21.686   0.996  51.822  1.00  0.00    -0.370 N 
HETATM   22  H17 UNL     1      21.827   1.982  51.557  1.00  0.00     0.161 HD
BRANCH  21  23
HETATM   23  C13 UNL     1      20.912   0.392  50.750  1.00  0.00     0.150 C 
BRANCH  23  24
HETATM   24  C14 UNL     1      21.393   0.985  49.465  1.00  0.00     0.014 C 
HETATM   25  C15 UNL     1      21.234   2.208  48.983  1.00  0.00     0.038 C 
HETATM   26 CL1  UNL     1      20.445   3.646  49.555  1.00  0.00    -0.087 Cl
BRANCH  25  27
HETATM   27  C16 UNL     1      21.801   2.596  47.669  1.00  0.00     0.273 C 
HETATM   28  F1  UNL     1      22.881   1.761  47.398  1.00  0.00    -0.250 F 
ENDBRANCH  25  27
ENDBRANCH  23  24
ENDBRANCH  21  23
ENDBRANCH   5  21
TORSDOF 7
ENDMDL
MODEL 5
REMARK VINA RESULT:      -7.5      3.047      5.332
REMARK  7 active torsions:
REMARK  status: ('A' for Active; 'I' for Inactive)
REMARK    1  A    between atoms: O1_2  and  C2_3 
REMARK    2  A    between atoms: C4_5  and  O2_6 
REMARK    3  A    between atoms: O2_6  and  C5_7 
REMARK    4  A    between atoms: C12_15  and  N2_16 
REMARK    5  A    between atoms: N2_16  and  C13_17 
REMARK    6  A    between atoms: C13_17  and  C14_18 
REMARK    7  A    between atoms: C15_19  and  C16_21 
ROOT
HETATM    1  C2  UNL     1      26.108  -0.361  53.802  1.00  0.00     0.073 A 
HETATM    2  C3  UNL     1      25.801   0.654  52.887  1.00  0.00     0.074 A 
HETATM    3  C4  UNL     1      24.526   1.087  52.611  1.00  0.00     0.088 A 
HETATM    4  C11 UNL     1      23.473   0.495  53.270  1.00  0.00     0.072 A 
HETATM    5  C12 UNL     1      22.181   0.901  53.023  1.00  0.00     0.140 A 
HETATM    6  N3  UNL     1      21.242   0.254  53.722  1.00  0.00    -0.224 NA
HETATM    7  C17 UNL     1      21.504  -0.717  54.601  1.00  0.00     0.236 A 
HETATM    8  N4  UNL     1      22.746  -1.107  54.837  1.00  0.00    -0.241 NA
HETATM    9  C18 UNL     1      23.748  -0.508  54.176  1.00  0.00     0.077 A 
HETATM   10  C19 UNL     1      25.024  -0.942  54.452  1.00  0.00     0.069 A 
ENDROOT
BRANCH   3  11
HETATM   11  O2  UNL     1      24.328   2.070  51.714  1.00  0.00    -0.345 OA
BRANCH  11  12
HETATM   12  C5  UNL     1      24.972   2.438  50.553  1.00  0.00     0.132 C 
HETATM   13  C6  UNL     1      26.210   3.310  50.829  1.00  0.00     0.052 C 
HETATM   14  C7  UNL     1      26.679   3.774  49.466  1.00  0.00     0.119 C 
HETATM   15  N1  UNL     1      25.769   4.781  49.059  1.00  0.00    -0.416 N 
HETATM   16  C8  UNL     1      26.168   6.133  49.200  1.00  0.00     0.143 C 
HETATM   17  C9  UNL     1      24.393   4.499  49.208  1.00  0.00     0.119 C 
HETATM   18  C10 UNL     1      24.073   3.073  49.556  1.00  0.00     0.052 C 
ENDBRANCH  11  12
ENDBRANCH   3  11
BRANCH   1  19
HETATM   19  O1  UNL     1      27.397  -0.784  54.067  1.00  0.00    -0.356 OA
HETATM   20  C1  UNL     1      28.556  -0.301  53.463  1.00  0.00     0.210 C 
ENDBRANCH   1  19
BRANCH   5  21
HETATM   21  N2  UNL     1      21.800   1.918  52.108  1.00  0.00    -0.370 N 
HETATM   22  H17 UNL     1      22.131   2.274  51.200  1.00  0.00     0.161 HD
BRANCH  21  23
HETATM   23  C13 UNL     1      20.643   2.721  52.466  1.00  0.00     0.150 C 
BRANCH  23  24
HETATM   24  C14 UNL     1      20.802   4.050  51.800  1.00  0.00     0.014 C 
HETATM   25  C15 UNL     1      21.787   4.931  51.887  1.00  0.00     0.038 C 
HETATM   26 CL1  UNL     1      23.291   4.989  52.756  1.00  0.00    -0.087 Cl
BRANCH  25  27
HETATM   27  C16 UNL     1      21.747   6.206  51.132  1.00  0.00     0.273 C 
HETATM   28  F1  UNL     1      23.018   6.771  51.163  1.00  0.00    -0.250 F 
ENDBRANCH  25  27
ENDBRANCH  23  24
ENDBRANCH  21  23
ENDBRANCH   5  21
TORSDOF 7
ENDMDL
MODEL 6
REMARK VINA RESULT:      -7.5      3.384      7.436
REMARK  7 active torsions:
REMARK  status: ('A' for Active; 'I' for Inactive)
REMARK    1  A    between atoms: O1_2  and  C2_3 
REMARK    2  A    between atoms: C4_5  and  O2_6 
REMARK    3  A    between atoms: O2_6  and  C5_7 
REMARK    4  A    between atoms: C12_15  and  N2_16 
REMARK    5  A    between atoms: N2_16  and  C13_17 
REMARK    6  A    between atoms: C13_17  and  C14_18 
REMARK    7  A    between atoms: C15_19  and  C16_21 
ROOT
HETATM    1  C2  UNL     1      26.791   4.248  49.389  1.00  0.00     0.073 A 
HETATM    2  C3  UNL     1      26.567   3.069  50.110  1.00  0.00     0.074 A 
HETATM    3  C4  UNL     1      25.484   2.856  50.929  1.00  0.00     0.088 A 
HETATM    4  C11 UNL     1      24.550   3.859  51.058  1.00  0.00     0.072 A 
HETATM    5  C12 UNL     1      23.451   3.685  51.868  1.00  0.00     0.140 A 
HETATM    6  N3  UNL     1      22.613   4.726  51.914  1.00  0.00    -0.224 NA
HETATM    7  C17 UNL     1      22.799   5.863  51.239  1.00  0.00     0.236 A 
HETATM    8  N4  UNL     1      23.856   6.030  50.462  1.00  0.00    -0.241 NA
HETATM    9  C18 UNL     1      24.747   5.031  50.359  1.00  0.00     0.077 A 
HETATM   10  C19 UNL     1      25.832   5.245  49.540  1.00  0.00     0.069 A 
ENDROOT
BRANCH   3  11
HETATM   11  O2  UNL     1      25.354   1.688  51.583  1.00  0.00    -0.345 OA
BRANCH  11  12
HETATM   12  C5  UNL     1      25.903   1.182  52.740  1.00  0.00     0.132 C 
HETATM   13  C6  UNL     1      27.389   1.555  52.887  1.00  0.00     0.052 C 
HETATM   14  C7  UNL     1      27.876   0.777  54.092  1.00  0.00     0.119 C 
HETATM   15  N1  UNL     1      28.013  -0.567  53.662  1.00  0.00    -0.416 N 
HETATM   16  C8  UNL     1      29.312  -1.036  53.350  1.00  0.00     0.143 C 
HETATM   17  C9  UNL     1      26.938  -1.117  52.927  1.00  0.00     0.119 C 
HETATM   18  C10 UNL     1      25.692  -0.279  52.905  1.00  0.00     0.052 C 
ENDBRANCH  11  12
ENDBRANCH   3  11
BRANCH   1  19
HETATM   19  O1  UNL     1      27.887   4.445  48.570  1.00  0.00    -0.356 OA
HETATM   20  C1  UNL     1      28.502   5.666  48.306  1.00  0.00     0.210 C 
ENDBRANCH   1  19
BRANCH   5  21
HETATM   21  N2  UNL     1      23.165   2.519  52.627  1.00  0.00    -0.370 N 
HETATM   22  H17 UNL     1      23.609   1.995  53.395  1.00  0.00     0.161 HD
BRANCH  21  23
HETATM   23  C13 UNL     1      21.937   1.811  52.305  1.00  0.00     0.150 C 
BRANCH  23  24
HETATM   24  C14 UNL     1      21.856   0.626  53.213  1.00  0.00     0.014 C 
HETATM   25  C15 UNL     1      20.855  -0.213  53.425  1.00  0.00     0.038 C 
HETATM   26 CL1  UNL     1      19.240  -0.360  52.802  1.00  0.00    -0.087 Cl
BRANCH  25  27
HETATM   27  C16 UNL     1      20.986  -1.339  54.383  1.00  0.00     0.273 C 
HETATM   28  F1  UNL     1      21.825  -2.294  53.819  1.00  0.00    -0.250 F 
ENDBRANCH  25  27
ENDBRANCH  23  24
ENDBRANCH  21  23
ENDBRANCH   5  21
TORSDOF 7
ENDMDL
MODEL 7
REMARK VINA RESULT:      -7.5      2.929      5.572
REMARK  7 active torsions:
REMARK  status: ('A' for Active; 'I' for Inactive)
REMARK    1  A    between atoms: O1_2  and  C2_3 
REMARK    2  A    between atoms: C4_5  and  O2_6 
REMARK    3  A    between atoms: O2_6  and  C5_7 
REMARK    4  A    between atoms: C12_15  and  N2_16 
REMARK    5  A    between atoms: N2_16  and  C13_17 
REMARK    6  A    between atoms: C13_17  and  C14_18 
REMARK    7  A    between atoms: C15_19  and  C16_21 
ROOT
HETATM    1  C2  UNL     1      21.014   0.615  53.131  1.00  0.00     0.073 A 
HETATM    2  C3  UNL     1      22.405   0.461  53.105  1.00  0.00     0.074 A 
HETATM    3  C4  UNL     1      23.286   1.446  52.724  1.00  0.00     0.088 A 
HETATM    4  C11 UNL     1      22.782   2.667  52.342  1.00  0.00     0.072 A 
HETATM    5  C12 UNL     1      23.630   3.680  51.956  1.00  0.00     0.140 A 
HETATM    6  N3  UNL     1      23.026   4.821  51.608  1.00  0.00    -0.224 NA
HETATM    7  C17 UNL     1      21.702   4.998  51.622  1.00  0.00     0.236 A 
HETATM    8  N4  UNL     1      20.888   4.025  51.993  1.00  0.00    -0.241 NA
HETATM    9  C18 UNL     1      21.414   2.846  52.359  1.00  0.00     0.077 A 
HETATM   10  C19 UNL     1      20.532   1.860  52.739  1.00  0.00     0.069 A 
ENDROOT
BRANCH   3  11
HETATM   11  O2  UNL     1      24.609   1.204  52.730  1.00  0.00    -0.345 OA
BRANCH  11  12
HETATM   12  C5  UNL     1      25.428   0.425  53.518  1.00  0.00     0.132 C 
HETATM   13  C6  UNL     1      26.491   1.261  54.253  1.00  0.00     0.052 C 
HETATM   14  C7  UNL     1      27.406   0.249  54.910  1.00  0.00     0.119 C 
HETATM   15  N1  UNL     1      28.207  -0.289  53.872  1.00  0.00    -0.416 N 
HETATM   16  C8  UNL     1      29.528   0.200  53.732  1.00  0.00     0.143 C 
HETATM   17  C9  UNL     1      27.542  -0.690  52.692  1.00  0.00     0.119 C 
HETATM   18  C10 UNL     1      26.043  -0.712  52.786  1.00  0.00     0.052 C 
ENDBRANCH  11  12
ENDBRANCH   3  11
BRANCH   1  19
HETATM   19  O1  UNL     1      20.143  -0.387  53.516  1.00  0.00    -0.356 OA
HETATM   20  C1  UNL     1      20.491  -1.565  54.171  1.00  0.00     0.210 C 
ENDBRANCH   1  19
BRANCH   5  21
HETATM   21  N2  UNL     1      25.046   3.590  51.903  1.00  0.00    -0.370 N 
HETATM   22  H17 UNL     1      25.828   3.644  52.572  1.00  0.00     0.161 HD
BRANCH  21  23
HETATM   23  C13 UNL     1      25.641   3.362  50.596  1.00  0.00     0.150 C 
BRANCH  23  24
HETATM   24  C14 UNL     1      25.562   4.650  49.841  1.00  0.00     0.014 C 
HETATM   25  C15 UNL     1      26.446   5.216  49.035  1.00  0.00     0.038 C 
HETATM   26 CL1  UNL     1      28.035   4.784  48.479  1.00  0.00    -0.087 Cl
BRANCH  25  27
HETATM   27  C16 UNL     1      26.165   6.515  48.377  1.00  0.00     0.273 C 
HETATM   28  F1  UNL     1      27.325   6.938  47.735  1.00  0.00    -0.250 F 
ENDBRANCH  25  27
ENDBRANCH  23  24
ENDBRANCH  21  23
ENDBRANCH   5  21
TORSDOF 7
ENDMDL
MODEL 8
REMARK VINA RESULT:      -7.2      3.667      7.469
REMARK  7 active torsions:
REMARK  status: ('A' for Active; 'I' for Inactive)
REMARK    1  A    between atoms: O1_2  and  C2_3 
REMARK    2  A    between atoms: C4_5  and  O2_6 
REMARK    3  A    between atoms: O2_6  and  C5_7 
REMARK    4  A    between atoms: C12_15  and  N2_16 
REMARK    5  A    between atoms: N2_16  and  C13_17 
REMARK    6  A    between atoms: C13_17  and  C14_18 
REMARK    7  A    between atoms: C15_19  and  C16_21 
ROOT
HETATM    1  C2  UNL     1      26.781   4.175  49.444  1.00  0.00     0.073 A 
HETATM    2  C3  UNL     1      26.595   2.975  50.140  1.00  0.00     0.074 A 
HETATM    3  C4  UNL     1      25.535   2.724  50.980  1.00  0.00     0.088 A 
HETATM    4  C11 UNL     1      24.589   3.707  51.157  1.00  0.00     0.072 A 
HETATM    5  C12 UNL     1      23.513   3.495  51.988  1.00  0.00     0.140 A 
HETATM    6  N3  UNL     1      22.659   4.521  52.080  1.00  0.00    -0.224 NA
HETATM    7  C17 UNL     1      22.811   5.677  51.429  1.00  0.00     0.236 A 
HETATM    8  N4  UNL     1      23.846   5.880  50.631  1.00  0.00    -0.241 NA
HETATM    9  C18 UNL     1      24.749   4.899  50.482  1.00  0.00     0.077 A 
HETATM   10  C19 UNL     1      25.810   5.151  49.642  1.00  0.00     0.069 A 
ENDROOT
BRANCH   3  11
HETATM   11  O2  UNL     1      25.440   1.538  51.608  1.00  0.00    -0.345 OA
BRANCH  11  12
HETATM   12  C5  UNL     1      26.003   1.024  52.756  1.00  0.00     0.132 C 
HETATM   13  C6  UNL     1      27.456   1.494  52.949  1.00  0.00     0.052 C 
HETATM   14  C7  UNL     1      27.974   0.702  54.132  1.00  0.00     0.119 C 
HETATM   15  N1  UNL     1      28.213  -0.610  53.651  1.00  0.00    -0.416 N 
HETATM   16  C8  UNL     1      29.548  -0.973  53.349  1.00  0.00     0.143 C 
HETATM   17  C9  UNL     1      27.194  -1.203  52.873  1.00  0.00     0.119 C 
HETATM   18  C10 UNL     1      25.893  -0.454  52.857  1.00  0.00     0.052 C 
ENDBRANCH  11  12
ENDBRANCH   3  11
BRANCH   1  19
HETATM   19  O1  UNL     1      27.854   4.409  48.604  1.00  0.00    -0.356 OA
HETATM   20  C1  UNL     1      28.403   5.654  48.308  1.00  0.00     0.210 C 
ENDBRANCH   1  19
BRANCH   5  21
HETATM   21  N2  UNL     1      23.265   2.307  52.725  1.00  0.00    -0.370 N 
HETATM   22  H17 UNL     1      23.768   1.734  53.418  1.00  0.00     0.161 HD
BRANCH  21  23
HETATM   23  C13 UNL     1      21.984   1.655  52.509  1.00  0.00     0.150 C 
BRANCH  23  24
HETATM   24  C14 UNL     1      21.964   1.171  51.095  1.00  0.00     0.014 C 
HETATM   25  C15 UNL     1      21.371   1.685  50.029  1.00  0.00     0.038 C 
HETATM   26 CL1  UNL     1      20.383   3.086  49.748  1.00  0.00    -0.087 Cl
BRANCH  25  27
HETATM   27  C16 UNL     1      21.480   1.037  48.700  1.00  0.00     0.273 C 
HETATM   28  F1  UNL     1      22.550   1.614  48.021  1.00  0.00    -0.250 F 
ENDBRANCH  25  27
ENDBRANCH  23  24
ENDBRANCH  21  23
ENDBRANCH   5  21
TORSDOF 7
ENDMDL
MODEL 9
REMARK VINA RESULT:      -7.0      3.715      7.292
REMARK  7 active torsions:
REMARK  status: ('A' for Active; 'I' for Inactive)
REMARK    1  A    between atoms: O1_2  and  C2_3 
REMARK    2  A    between atoms: C4_5  and  O2_6 
REMARK    3  A    between atoms: O2_6  and  C5_7 
REMARK    4  A    between atoms: C12_15  and  N2_16 
REMARK    5  A    between atoms: N2_16  and  C13_17 
REMARK    6  A    between atoms: C13_17  and  C14_18 
REMARK    7  A    between atoms: C15_19  and  C16_21 
ROOT
HETATM    1  C2  UNL     1      26.792   0.336  53.466  1.00  0.00     0.073 A 
HETATM    2  C3  UNL     1      25.410   0.140  53.370  1.00  0.00     0.074 A 
HETATM    3  C4  UNL     1      24.590   0.822  52.502  1.00  0.00     0.088 A 
HETATM    4  C11 UNL     1      25.151   1.761  51.669  1.00  0.00     0.072 A 
HETATM    5  C12 UNL     1      24.365   2.465  50.785  1.00  0.00     0.140 A 
HETATM    6  N3  UNL     1      25.021   3.350  50.025  1.00  0.00    -0.224 NA
HETATM    7  C17 UNL     1      26.338   3.559  50.095  1.00  0.00     0.236 A 
HETATM    8  N4  UNL     1      27.093   2.883  50.945  1.00  0.00    -0.241 NA
HETATM    9  C18 UNL     1      26.512   1.974  51.743  1.00  0.00     0.077 A 
HETATM   10  C19 UNL     1      27.333   1.292  52.612  1.00  0.00     0.069 A 
ENDROOT
BRANCH   3  11
HETATM   11  O2  UNL     1      23.269   0.566  52.482  1.00  0.00    -0.345 OA
BRANCH  11  12
HETATM   12  C5  UNL     1      22.354   0.223  53.453  1.00  0.00     0.132 C 
HETATM   13  C6  UNL     1      21.911  -1.246  53.339  1.00  0.00     0.052 C 
HETATM   14  C7  UNL     1      20.787  -1.400  54.341  1.00  0.00     0.119 C 
HETATM   15  N1  UNL     1      19.657  -0.769  53.763  1.00  0.00    -0.416 N 
HETATM   16  C8  UNL     1      18.676  -1.591  53.157  1.00  0.00     0.143 C 
HETATM   17  C9  UNL     1      19.855   0.514  53.205  1.00  0.00     0.119 C 
HETATM   18  C10 UNL     1      21.185   1.138  53.512  1.00  0.00     0.052 C 
ENDBRANCH  11  12
ENDBRANCH   3  11
BRANCH   1  19
HETATM   19  O1  UNL     1      27.602  -0.360  54.345  1.00  0.00    -0.356 OA
HETATM   20  C1  UNL     1      28.956  -0.125  54.570  1.00  0.00     0.210 C 
ENDBRANCH   1  19
BRANCH   5  21
HETATM   21  N2  UNL     1      22.960   2.320  50.638  1.00  0.00    -0.370 N 
HETATM   22  H17 UNL     1      22.213   1.760  51.075  1.00  0.00     0.161 HD
BRANCH  21  23
HETATM   23  C13 UNL     1      22.318   3.140  49.625  1.00  0.00     0.150 C 
BRANCH  23  24
HETATM   24  C14 UNL     1      20.942   3.457  50.117  1.00  0.00     0.014 C 
HETATM   25  C15 UNL     1      19.861   2.695  50.165  1.00  0.00     0.038 C 
HETATM   26 CL1  UNL     1      19.512   1.053  49.714  1.00  0.00    -0.087 Cl
BRANCH  25  27
HETATM   27  C16 UNL     1      18.578   3.212  50.698  1.00  0.00     0.273 C 
HETATM   28  F1  UNL     1      18.785   3.617  52.013  1.00  0.00    -0.250 F 
ENDBRANCH  25  27
ENDBRANCH  23  24
ENDBRANCH  21  23
ENDBRANCH   5  21
TORSDOF 7
ENDMDL
