MODEL 1
REMARK VINA RESULT:      -8.0      0.000      0.000
REMARK  8 active torsions:
REMARK  status: ('A' for Active; 'I' for Inactive)
REMARK    1  A    between atoms: N1_2  and  C2_3 
REMARK    2  A    between atoms: N1_2  and  C22_28 
REMARK    3  A    between atoms: C2_3  and  C3_4 
REMARK    4  A    between atoms: C4_5  and  C5_6 
REMARK    5  A    between atoms: C5_6  and  N2_7 
REMARK    6  A    between atoms: C13_16  and  N4_17 
REMARK    7  A    between atoms: N4_17  and  C14_18 
REMARK    8  A    between atoms: C22_28  and  C23_29 
ROOT
HETATM    1  N2  UNL     1      25.153   3.784  50.580  1.00  0.00    -0.371 N 
HETATM    2  C6  UNL     1      24.620   5.283  50.376  1.00  0.00    -0.004 C 
HETATM    3  C7  UNL     1      23.555   6.049  50.839  1.00  0.00     0.046 C 
HETATM    4  C8  UNL     1      22.864   4.963  51.350  1.00  0.00     0.009 C 
HETATM    5  C9  UNL     1      23.386   3.730  50.252  1.00  0.00     0.079 A 
HETATM    6  C10 UNL     1      22.339   3.404  49.569  1.00  0.00     0.119 A 
HETATM    7  N3  UNL     1      22.455   4.332  48.320  1.00  0.00    -0.288 NA
HETATM    8  C11 UNL     1      23.213   5.519  48.152  1.00  0.00     0.090 C 
HETATM    9  C12 UNL     1      24.607   5.974  48.933  1.00  0.00     0.099 C 
HETATM   10  C13 UNL     1      22.605   2.677  51.080  1.00  0.00     0.095 A 
HETATM   11  C20 UNL     1      23.886   3.481  51.405  1.00  0.00     0.070 A 
HETATM   12  C21 UNL     1      23.715   4.480  52.567  1.00  0.00     0.040 C 
ENDROOT
BRANCH  10  13
HETATM   13  N4  UNL     1      21.651   1.599  51.544  1.00  0.00    -0.375 N 
HETATM   14  H16 UNL     1      20.798   1.524  50.952  1.00  0.00     0.160 HD
BRANCH  13  15
HETATM   15  C14 UNL     1      21.882   0.783  52.634  1.00  0.00     0.030 A 
HETATM   16  C15 UNL     1      21.076   0.360  53.659  1.00  0.00     0.032 A 
HETATM   17  C16 UNL     1      21.491  -0.426  54.697  1.00  0.00     0.046 A 
HETATM   18  C17 UNL     1      22.783  -0.869  54.804  1.00  0.00     0.138 A 
HETATM   19  F1  UNL     1      23.156  -1.647  55.845  1.00  0.00    -0.204 F 
HETATM   20  C18 UNL     1      23.624  -0.447  53.765  1.00  0.00     0.074 A 
HETATM   21 CL1  UNL     1      25.296  -0.994  53.857  1.00  0.00    -0.081 Cl
HETATM   22  C19 UNL     1      23.178   0.347  52.731  1.00  0.00     0.056 A 
ENDBRANCH  13  15
ENDBRANCH  10  13
BRANCH   1  23
HETATM   23  C5  UNL     1      26.348   2.900  50.353  1.00  0.00     0.150 C 
BRANCH  23  24
HETATM   24  C4  UNL     1      26.431   1.881  51.356  1.00  0.00    -0.009 C 
HETATM   25  C3  UNL     1      27.051   2.224  52.524  1.00  0.00     0.001 C 
BRANCH  25  26
HETATM   26  C2  UNL     1      27.451   1.734  53.850  1.00  0.00     0.299 C 
BRANCH  26  27
HETATM   27  N1  UNL     1      28.786   1.180  53.909  1.00  0.00     0.089 N 
HETATM   28  C1  UNL     1      29.687   2.082  54.596  1.00  0.00     0.310 C 
BRANCH  27  29
HETATM   29  C22 UNL     1      28.765  -0.075  54.601  1.00  0.00     0.303 C 
BRANCH  29  30
HETATM   30  C23 UNL     1      29.108  -1.178  53.586  1.00  0.00     0.252 C 
HETATM   31  F2  UNL     1      30.280  -0.797  52.915  1.00  0.00    -0.254 F 
ENDBRANCH  29  30
ENDBRANCH  27  29
ENDBRANCH  26  27
ENDBRANCH  25  26
ENDBRANCH  23  24
ENDBRANCH   1  23
TORSDOF 8
ENDMDL
MODEL 2
REMARK VINA RESULT:      -8.0      1.543      4.984
REMARK  8 active torsions:
REMARK  status: ('A' for Active; 'I' for Inactive)
REMARK    1  A    between atoms: N1_2  and  C2_3 
REMARK    2  A    between atoms: N1_2  and  C22_28 
REMARK    3  A    between atoms: C2_3  and  C3_4 
REMARK    4  A    between atoms: C4_5  and  C5_6 
REMARK    5  A    between atoms: C5_6  and  N2_7 
REMARK    6  A    between atoms: C13_16  and  N4_17 
REMARK    7  A    between atoms: N4_17  and  C14_18 
REMARK    8  A    between atoms: C22_28  and  C23_29 
ROOT
HETATM    1  N2  UNL     1      23.454   3.118  49.234  1.00  0.00    -0.371 N 
HETATM    2  C6  UNL     1      23.911   4.584  48.769  1.00  0.00    -0.004 C 
HETATM    3  C7  UNL     1      24.976   5.440  49.029  1.00  0.00     0.046 C 
HETATM    4  C8  UNL     1      25.424   4.717  50.121  1.00  0.00     0.009 C 
HETATM    5  C9  UNL     1      23.923   4.066  50.688  1.00  0.00     0.079 A 
HETATM    6  C10 UNL     1      23.701   4.638  51.824  1.00  0.00     0.119 A 
HETATM    7  N3  UNL     1      22.824   5.863  51.416  1.00  0.00    -0.288 NA
HETATM    8  C11 UNL     1      22.669   6.468  50.143  1.00  0.00     0.090 C 
HETATM    9  C12 UNL     1      22.859   5.783  48.641  1.00  0.00     0.099 C 
HETATM   10  C13 UNL     1      24.691   3.261  51.767  1.00  0.00     0.095 A 
HETATM   11  C20 UNL     1      24.632   3.103  50.229  1.00  0.00     0.070 A 
HETATM   12  C21 UNL     1      25.974   3.383  49.524  1.00  0.00     0.040 C 
ENDROOT
BRANCH  10  13
HETATM   13  N4  UNL     1      25.215   2.690  53.066  1.00  0.00    -0.375 N 
HETATM   14  H16 UNL     1      24.628   2.937  53.890  1.00  0.00     0.160 HD
BRANCH  13  15
HETATM   15  C14 UNL     1      26.350   1.907  53.161  1.00  0.00     0.030 A 
HETATM   16  C15 UNL     1      27.650   2.202  53.477  1.00  0.00     0.032 A 
HETATM   17  C16 UNL     1      28.672   1.294  53.480  1.00  0.00     0.046 A 
HETATM   18  C17 UNL     1      28.476  -0.023  53.158  1.00  0.00     0.138 A 
HETATM   19  F1  UNL     1      29.511  -0.893  53.173  1.00  0.00    -0.204 F 
HETATM   20  C18 UNL     1      27.152  -0.345  52.831  1.00  0.00     0.074 A 
HETATM   21 CL1  UNL     1      26.849  -2.029  52.412  1.00  0.00    -0.081 Cl
HETATM   22  C19 UNL     1      26.142   0.593  52.835  1.00  0.00     0.056 A 
ENDBRANCH  13  15
ENDBRANCH  10  13
BRANCH   1  23
HETATM   23  C5  UNL     1      22.505   2.001  48.900  1.00  0.00     0.150 C 
BRANCH  23  24
HETATM   24  C4  UNL     1      21.543   1.816  49.945  1.00  0.00    -0.009 C 
HETATM   25  C3  UNL     1      21.763   0.773  50.799  1.00  0.00     0.001 C 
BRANCH  25  26
HETATM   26  C2  UNL     1      21.244   0.067  51.979  1.00  0.00     0.299 C 
BRANCH  26  27
HETATM   27  N1  UNL     1      21.743   0.561  53.243  1.00  0.00     0.089 N 
HETATM   28  C1  UNL     1      20.678   0.638  54.222  1.00  0.00     0.310 C 
BRANCH  27  29
HETATM   29  C22 UNL     1      22.770  -0.309  53.737  1.00  0.00     0.303 C 
BRANCH  29  30
HETATM   30  C23 UNL     1      22.195  -1.081  54.937  1.00  0.00     0.252 C 
HETATM   31  F2  UNL     1      21.801  -2.349  54.485  1.00  0.00    -0.254 F 
ENDBRANCH  29  30
ENDBRANCH  27  29
ENDBRANCH  26  27
ENDBRANCH  25  26
ENDBRANCH  23  24
ENDBRANCH   1  23
TORSDOF 8
ENDMDL
MODEL 3
REMARK VINA RESULT:      -7.9      3.154      5.731
REMARK  8 active torsions:
REMARK  status: ('A' for Active; 'I' for Inactive)
REMARK    1  A    between atoms: N1_2  and  C2_3 
REMARK    2  A    between atoms: N1_2  and  C22_28 
REMARK    3  A    between atoms: C2_3  and  C3_4 
REMARK    4  A    between atoms: C4_5  and  C5_6 
REMARK    5  A    between atoms: C5_6  and  N2_7 
REMARK    6  A    between atoms: C13_16  and  N4_17 
REMARK    7  A    between atoms: N4_17  and  C14_18 
REMARK    8  A    between atoms: C22_28  and  C23_29 
ROOT
HETATM    1  N2  UNL     1      22.832   1.223  52.125  1.00  0.00    -0.371 N 
HETATM    2  C6  UNL     1      21.712   1.091  50.983  1.00  0.00    -0.004 C 
HETATM    3  C7  UNL     1      21.332   1.806  49.853  1.00  0.00     0.046 C 
HETATM    4  C8  UNL     1      22.082   2.922  50.181  1.00  0.00     0.009 C 
HETATM    5  C9  UNL     1      22.033   2.821  51.909  1.00  0.00     0.079 A 
HETATM    6  C10 UNL     1      21.330   3.831  52.299  1.00  0.00     0.119 A 
HETATM    7  N3  UNL     1      19.896   3.223  52.390  1.00  0.00    -0.288 NA
HETATM    8  C11 UNL     1      19.384   2.042  51.794  1.00  0.00     0.090 C 
HETATM    9  C12 UNL     1      20.208   0.674  51.337  1.00  0.00     0.099 C 
HETATM   10  C13 UNL     1      22.987   4.039  51.998  1.00  0.00     0.095 A 
HETATM   11  C20 UNL     1      23.233   2.586  51.525  1.00  0.00     0.070 A 
HETATM   12  C21 UNL     1      23.568   2.470  50.025  1.00  0.00     0.040 C 
ENDROOT
BRANCH  10  13
HETATM   13  N4  UNL     1      23.612   5.387  52.281  1.00  0.00    -0.375 N 
HETATM   14  H16 UNL     1      23.653   5.616  53.296  1.00  0.00     0.160 HD
BRANCH  13  15
HETATM   15  C14 UNL     1      24.095   6.233  51.301  1.00  0.00     0.030 A 
HETATM   16  C15 UNL     1      23.740   7.501  50.919  1.00  0.00     0.032 A 
HETATM   17  C16 UNL     1      24.307   8.184  49.880  1.00  0.00     0.046 A 
HETATM   18  C17 UNL     1      25.304   7.644  49.111  1.00  0.00     0.138 A 
HETATM   19  F1  UNL     1      25.842   8.351  48.092  1.00  0.00    -0.204 F 
HETATM   20  C18 UNL     1      25.681   6.347  49.486  1.00  0.00     0.074 A 
HETATM   21 CL1  UNL     1      26.964   5.610  48.529  1.00  0.00    -0.081 Cl
HETATM   22  C19 UNL     1      25.091   5.682  50.538  1.00  0.00     0.056 A 
ENDBRANCH  13  15
ENDBRANCH  10  13
BRANCH   1  23
HETATM   23  C5  UNL     1      23.502   0.462  53.234  1.00  0.00     0.150 C 
BRANCH  23  24
HETATM   24  C4  UNL     1      24.873   0.852  53.368  1.00  0.00    -0.009 C 
HETATM   25  C3  UNL     1      25.802   0.023  52.804  1.00  0.00     0.001 C 
BRANCH  25  26
HETATM   26  C2  UNL     1      27.239  -0.178  52.576  1.00  0.00     0.299 C 
BRANCH  26  27
HETATM   27  N1  UNL     1      27.974  -0.631  53.737  1.00  0.00     0.089 N 
HETATM   28  C1  UNL     1      29.246  -1.205  53.347  1.00  0.00     0.310 C 
BRANCH  27  29
HETATM   29  C22 UNL     1      28.211   0.468  54.626  1.00  0.00     0.303 C 
BRANCH  29  30
HETATM   30  C23 UNL     1      29.045   1.514  53.869  1.00  0.00     0.252 C 
HETATM   31  F2  UNL     1      28.342   2.727  53.893  1.00  0.00    -0.254 F 
ENDBRANCH  29  30
ENDBRANCH  27  29
ENDBRANCH  26  27
ENDBRANCH  25  26
ENDBRANCH  23  24
ENDBRANCH   1  23
TORSDOF 8
ENDMDL
MODEL 4
REMARK VINA RESULT:      -7.8      2.977      5.649
REMARK  8 active torsions:
REMARK  status: ('A' for Active; 'I' for Inactive)
REMARK    1  A    between atoms: N1_2  and  C2_3 
REMARK    2  A    between atoms: N1_2  and  C22_28 
REMARK    3  A    between atoms: C2_3  and  C3_4 
REMARK    4  A    between atoms: C4_5  and  C5_6 
REMARK    5  A    between atoms: C5_6  and  N2_7 
REMARK    6  A    between atoms: C13_16  and  N4_17 
REMARK    7  A    between atoms: N4_17  and  C14_18 
REMARK    8  A    between atoms: C22_28  and  C23_29 
ROOT
HETATM    1  N2  UNL     1      21.116   0.747  52.335  1.00  0.00    -0.371 N 
HETATM    2  C6  UNL     1      19.962   0.745  51.220  1.00  0.00    -0.004 C 
HETATM    3  C7  UNL     1      19.799   1.248  49.933  1.00  0.00     0.046 C 
HETATM    4  C8  UNL     1      20.912   2.068  50.003  1.00  0.00     0.009 C 
HETATM    5  C9  UNL     1      20.924   2.418  51.699  1.00  0.00     0.079 A 
HETATM    6  C10 UNL     1      20.645   3.675  51.798  1.00  0.00     0.119 A 
HETATM    7  N3  UNL     1      19.096   3.660  51.981  1.00  0.00    -0.288 NA
HETATM    8  C11 UNL     1      18.168   2.631  51.679  1.00  0.00     0.090 C 
HETATM    9  C12 UNL     1      18.428   0.991  51.608  1.00  0.00     0.099 C 
HETATM   10  C13 UNL     1      22.251   3.199  51.519  1.00  0.00     0.095 A 
HETATM   11  C20 UNL     1      21.940   1.686  51.431  1.00  0.00     0.070 A 
HETATM   12  C21 UNL     1      22.132   1.092  50.021  1.00  0.00     0.040 C 
ENDROOT
BRANCH  10  13
HETATM   13  N4  UNL     1      23.326   4.262  51.482  1.00  0.00    -0.375 N 
HETATM   14  H16 UNL     1      23.123   5.073  52.101  1.00  0.00     0.160 HD
BRANCH  13  15
HETATM   15  C14 UNL     1      24.473   4.171  50.716  1.00  0.00     0.030 A 
HETATM   16  C15 UNL     1      25.335   3.136  50.465  1.00  0.00     0.032 A 
HETATM   17  C16 UNL     1      26.465   3.236  49.703  1.00  0.00     0.046 A 
HETATM   18  C17 UNL     1      26.843   4.413  49.112  1.00  0.00     0.138 A 
HETATM   19  F1  UNL     1      27.967   4.474  48.364  1.00  0.00    -0.204 F 
HETATM   20  C18 UNL     1      25.974   5.485  49.359  1.00  0.00     0.074 A 
HETATM   21 CL1  UNL     1      26.415   7.021  48.617  1.00  0.00    -0.081 Cl
HETATM   22  C19 UNL     1      24.841   5.354  50.132  1.00  0.00     0.056 A 
ENDBRANCH  13  15
ENDBRANCH  10  13
BRANCH   1  23
HETATM   23  C5  UNL     1      21.532   0.095  53.624  1.00  0.00     0.150 C 
BRANCH  23  24
HETATM   24  C4  UNL     1      22.647  -0.780  53.420  1.00  0.00    -0.009 C 
HETATM   25  C3  UNL     1      23.878  -0.286  53.746  1.00  0.00     0.001 C 
BRANCH  25  26
HETATM   26  C2  UNL     1      25.313  -0.597  53.795  1.00  0.00     0.299 C 
BRANCH  26  27
HETATM   27  N1  UNL     1      26.163   0.386  53.159  1.00  0.00     0.089 N 
HETATM   28  C1  UNL     1      26.092   1.654  53.856  1.00  0.00     0.310 C 
BRANCH  27  29
HETATM   29  C22 UNL     1      27.522  -0.071  53.157  1.00  0.00     0.303 C 
BRANCH  29  30
HETATM   30  C23 UNL     1      28.283   0.714  54.240  1.00  0.00     0.252 C 
HETATM   31  F2  UNL     1      28.574  -0.170  55.289  1.00  0.00    -0.254 F 
ENDBRANCH  29  30
ENDBRANCH  27  29
ENDBRANCH  26  27
ENDBRANCH  25  26
ENDBRANCH  23  24
ENDBRANCH   1  23
TORSDOF 8
ENDMDL
MODEL 5
REMARK VINA RESULT:      -7.6      1.982      5.075
REMARK  8 active torsions:
REMARK  status: ('A' for Active; 'I' for Inactive)
REMARK    1  A    between atoms: N1_2  and  C2_3 
REMARK    2  A    between atoms: N1_2  and  C22_28 
REMARK    3  A    between atoms: C2_3  and  C3_4 
REMARK    4  A    between atoms: C4_5  and  C5_6 
REMARK    5  A    between atoms: C5_6  and  N2_7 
REMARK    6  A    between atoms: C13_16  and  N4_17 
REMARK    7  A    between atoms: N4_17  and  C14_18 
REMARK    8  A    between atoms: C22_28  and  C23_29 
ROOT
HETATM    1  N2  UNL     1      21.287   3.633  51.105  1.00  0.00    -0.371 N 
HETATM    2  C6  UNL     1      21.745   4.220  49.684  1.00  0.00    -0.004 C 
HETATM    3  C7  UNL     1      22.876   4.144  48.877  1.00  0.00     0.046 C 
HETATM    4  C8  UNL     1      23.674   3.601  49.869  1.00  0.00     0.009 C 
HETATM    5  C9  UNL     1      22.943   4.315  51.268  1.00  0.00     0.079 A 
HETATM    6  C10 UNL     1      23.822   5.133  51.742  1.00  0.00     0.119 A 
HETATM    7  N3  UNL     1      23.430   6.479  51.055  1.00  0.00    -0.288 NA
HETATM    8  C11 UNL     1      22.638   6.697  49.899  1.00  0.00     0.090 C 
HETATM    9  C12 UNL     1      21.439   5.735  49.269  1.00  0.00     0.099 C 
HETATM   10  C13 UNL     1      23.896   3.493  52.173  1.00  0.00     0.095 A 
HETATM   11  C20 UNL     1      22.705   3.056  51.287  1.00  0.00     0.070 A 
HETATM   12  C21 UNL     1      23.110   2.162  50.098  1.00  0.00     0.040 C 
ENDROOT
BRANCH  10  13
HETATM   13  N4  UNL     1      24.941   3.053  53.174  1.00  0.00    -0.375 N 
HETATM   14  H16 UNL     1      25.002   3.677  54.005  1.00  0.00     0.160 HD
BRANCH  13  15
HETATM   15  C14 UNL     1      25.732   1.931  53.018  1.00  0.00     0.030 A 
HETATM   16  C15 UNL     1      25.508   0.720  52.417  1.00  0.00     0.032 A 
HETATM   17  C16 UNL     1      26.405  -0.311  52.394  1.00  0.00     0.046 A 
HETATM   18  C17 UNL     1      27.637  -0.218  52.986  1.00  0.00     0.138 A 
HETATM   19  F1  UNL     1      28.498  -1.259  52.941  1.00  0.00    -0.204 F 
HETATM   20  C18 UNL     1      27.885   1.013  53.607  1.00  0.00     0.074 A 
HETATM   21 CL1  UNL     1      29.458   1.183  54.382  1.00  0.00    -0.081 Cl
HETATM   22  C19 UNL     1      26.961   2.035  53.616  1.00  0.00     0.056 A 
ENDBRANCH  13  15
ENDBRANCH  10  13
BRANCH   1  23
HETATM   23  C5  UNL     1      20.082   3.433  51.982  1.00  0.00     0.150 C 
BRANCH  23  24
HETATM   24  C4  UNL     1      19.593   2.091  51.882  1.00  0.00    -0.009 C 
HETATM   25  C3  UNL     1      19.985   1.224  52.863  1.00  0.00     0.001 C 
BRANCH  25  26
HETATM   26  C2  UNL     1      19.874  -0.159  53.346  1.00  0.00     0.299 C 
BRANCH  26  27
HETATM   27  N1  UNL     1      21.140  -0.821  53.572  1.00  0.00     0.089 N 
HETATM   28  C1  UNL     1      22.089  -0.483  52.530  1.00  0.00     0.310 C 
BRANCH  27  29
HETATM   29  C22 UNL     1      21.679  -0.426  54.840  1.00  0.00     0.303 C 
BRANCH  29  30
HETATM   30  C23 UNL     1      22.729  -1.473  55.250  1.00  0.00     0.252 C 
HETATM   31  F2  UNL     1      23.997  -0.895  55.097  1.00  0.00    -0.254 F 
ENDBRANCH  29  30
ENDBRANCH  27  29
ENDBRANCH  26  27
ENDBRANCH  25  26
ENDBRANCH  23  24
ENDBRANCH   1  23
TORSDOF 8
ENDMDL
MODEL 6
REMARK VINA RESULT:      -7.5      3.215      5.518
REMARK  8 active torsions:
REMARK  status: ('A' for Active; 'I' for Inactive)
REMARK    1  A    between atoms: N1_2  and  C2_3 
REMARK    2  A    between atoms: N1_2  and  C22_28 
REMARK    3  A    between atoms: C2_3  and  C3_4 
REMARK    4  A    between atoms: C4_5  and  C5_6 
REMARK    5  A    between atoms: C5_6  and  N2_7 
REMARK    6  A    between atoms: C13_16  and  N4_17 
REMARK    7  A    between atoms: N4_17  and  C14_18 
REMARK    8  A    between atoms: C22_28  and  C23_29 
ROOT
HETATM    1  N2  UNL     1      24.576   4.008  50.364  1.00  0.00    -0.371 N 
HETATM    2  C6  UNL     1      23.038   4.462  50.326  1.00  0.00    -0.004 C 
HETATM    3  C7  UNL     1      21.952   4.428  51.195  1.00  0.00     0.046 C 
HETATM    4  C8  UNL     1      22.559   3.555  52.082  1.00  0.00     0.009 C 
HETATM    5  C9  UNL     1      23.560   2.661  50.987  1.00  0.00     0.079 A 
HETATM    6  C10 UNL     1      23.073   1.466  50.963  1.00  0.00     0.119 A 
HETATM    7  N3  UNL     1      22.092   1.530  49.751  1.00  0.00    -0.288 NA
HETATM    8  C11 UNL     1      21.526   2.664  49.115  1.00  0.00     0.090 C 
HETATM    9  C12 UNL     1      22.127   4.211  49.034  1.00  0.00     0.099 C 
HETATM   10  C13 UNL     1      24.169   1.892  52.187  1.00  0.00     0.095 A 
HETATM   11  C20 UNL     1      24.318   3.366  51.742  1.00  0.00     0.070 A 
HETATM   12  C21 UNL     1      23.713   4.379  52.735  1.00  0.00     0.040 C 
ENDROOT
BRANCH  10  13
HETATM   13  N4  UNL     1      24.612   0.828  53.167  1.00  0.00    -0.375 N 
HETATM   14  H16 UNL     1      23.860   0.536  53.824  1.00  0.00     0.160 HD
BRANCH  13  15
HETATM   15  C14 UNL     1      25.881   0.281  53.188  1.00  0.00     0.030 A 
HETATM   16  C15 UNL     1      26.359  -0.956  52.845  1.00  0.00     0.032 A 
HETATM   17  C16 UNL     1      27.662  -1.346  52.974  1.00  0.00     0.046 A 
HETATM   18  C17 UNL     1      28.627  -0.510  53.472  1.00  0.00     0.138 A 
HETATM   19  F1  UNL     1      29.907  -0.931  53.584  1.00  0.00    -0.204 F 
HETATM   20  C18 UNL     1      28.157   0.761  53.831  1.00  0.00     0.074 A 
HETATM   21 CL1  UNL     1      29.361   1.874  54.474  1.00  0.00    -0.081 Cl
HETATM   22  C19 UNL     1      26.836   1.126  53.690  1.00  0.00     0.056 A 
ENDBRANCH  13  15
ENDBRANCH  10  13
BRANCH   1  23
HETATM   23  C5  UNL     1      25.885   4.164  49.642  1.00  0.00     0.150 C 
BRANCH  23  24
HETATM   24  C4  UNL     1      26.125   5.535  49.305  1.00  0.00    -0.009 C 
HETATM   25  C3  UNL     1      27.218   5.790  48.526  1.00  0.00     0.001 C 
BRANCH  25  26
HETATM   26  C2  UNL     1      27.989   6.850  47.862  1.00  0.00     0.299 C 
BRANCH  26  27
HETATM   27  N1  UNL     1      28.622   7.787  48.764  1.00  0.00     0.089 N 
HETATM   28  C1  UNL     1      30.061   7.774  48.592  1.00  0.00     0.310 C 
BRANCH  27  29
HETATM   29  C22 UNL     1      28.134   9.112  48.514  1.00  0.00     0.303 C 
BRANCH  29  30
HETATM   30  C23 UNL     1      27.522   9.641  49.822  1.00  0.00     0.252 C 
HETATM   31  F2  UNL     1      27.092   8.539  50.574  1.00  0.00    -0.254 F 
ENDBRANCH  29  30
ENDBRANCH  27  29
ENDBRANCH  26  27
ENDBRANCH  25  26
ENDBRANCH  23  24
ENDBRANCH   1  23
TORSDOF 8
ENDMDL
MODEL 7
REMARK VINA RESULT:      -7.5      1.775      2.403
REMARK  8 active torsions:
REMARK  status: ('A' for Active; 'I' for Inactive)
REMARK    1  A    between atoms: N1_2  and  C2_3 
REMARK    2  A    between atoms: N1_2  and  C22_28 
REMARK    3  A    between atoms: C2_3  and  C3_4 
REMARK    4  A    between atoms: C4_5  and  C5_6 
REMARK    5  A    between atoms: C5_6  and  N2_7 
REMARK    6  A    between atoms: C13_16  and  N4_17 
REMARK    7  A    between atoms: N4_17  and  C14_18 
REMARK    8  A    between atoms: C22_28  and  C23_29 
ROOT
HETATM    1  N2  UNL     1      25.197   3.781  50.561  1.00  0.00    -0.371 N 
HETATM    2  C6  UNL     1      24.497   5.216  50.721  1.00  0.00    -0.004 C 
HETATM    3  C7  UNL     1      23.241   5.694  51.081  1.00  0.00     0.046 C 
HETATM    4  C8  UNL     1      22.629   4.456  50.980  1.00  0.00     0.009 C 
HETATM    5  C9  UNL     1      23.599   3.741  49.736  1.00  0.00     0.079 A 
HETATM    6  C10 UNL     1      22.822   3.621  48.712  1.00  0.00     0.119 A 
HETATM    7  N3  UNL     1      23.094   4.945  47.931  1.00  0.00    -0.288 NA
HETATM    8  C11 UNL     1      23.669   6.156  48.394  1.00  0.00     0.090 C 
HETATM    9  C12 UNL     1      24.733   6.382  49.650  1.00  0.00     0.099 C 
HETATM   10  C13 UNL     1      22.817   2.413  49.904  1.00  0.00     0.095 A 
HETATM   11  C20 UNL     1      23.830   3.122  50.834  1.00  0.00     0.070 A 
HETATM   12  C21 UNL     1      23.216   3.617  52.159  1.00  0.00     0.040 C 
ENDROOT
BRANCH  10  13
HETATM   13  N4  UNL     1      21.963   1.183  49.686  1.00  0.00    -0.375 N 
HETATM   14  H16 UNL     1      22.151   0.709  48.779  1.00  0.00     0.160 HD
BRANCH  13  15
HETATM   15  C14 UNL     1      21.034   0.720  50.598  1.00  0.00     0.030 A 
HETATM   16  C15 UNL     1      19.664   0.694  50.587  1.00  0.00     0.032 A 
HETATM   17  C16 UNL     1      18.890   0.229  51.613  1.00  0.00     0.046 A 
HETATM   18  C17 UNL     1      19.433  -0.262  52.770  1.00  0.00     0.138 A 
HETATM   19  F1  UNL     1      18.635  -0.715  53.763  1.00  0.00    -0.204 F 
HETATM   20  C18 UNL     1      20.834  -0.243  52.802  1.00  0.00     0.074 A 
HETATM   21 CL1  UNL     1      21.581  -0.868  54.270  1.00  0.00    -0.081 Cl
HETATM   22  C19 UNL     1      21.589   0.233  51.752  1.00  0.00     0.056 A 
ENDBRANCH  13  15
ENDBRANCH  10  13
BRANCH   1  23
HETATM   23  C5  UNL     1      26.536   3.116  50.411  1.00  0.00     0.150 C 
BRANCH  23  24
HETATM   24  C4  UNL     1      26.691   2.054  51.359  1.00  0.00    -0.009 C 
HETATM   25  C3  UNL     1      27.524   2.296  52.415  1.00  0.00     0.001 C 
BRANCH  25  26
HETATM   26  C2  UNL     1      28.091   1.720  53.643  1.00  0.00     0.299 C 
BRANCH  26  27
HETATM   27  N1  UNL     1      27.744   0.335  53.874  1.00  0.00     0.089 N 
HETATM   28  C1  UNL     1      28.908  -0.426  54.278  1.00  0.00     0.310 C 
BRANCH  27  29
HETATM   29  C22 UNL     1      26.747   0.246  54.900  1.00  0.00     0.303 C 
BRANCH  29  30
HETATM   30  C23 UNL     1      25.419  -0.147  54.232  1.00  0.00     0.252 C 
HETATM   31  F2  UNL     1      24.968  -1.332  54.831  1.00  0.00    -0.254 F 
ENDBRANCH  29  30
ENDBRANCH  27  29
ENDBRANCH  26  27
ENDBRANCH  25  26
ENDBRANCH  23  24
ENDBRANCH   1  23
TORSDOF 8
ENDMDL
MODEL 8
REMARK VINA RESULT:      -7.4      2.784      5.897
REMARK  8 active torsions:
REMARK  status: ('A' for Active; 'I' for Inactive)
REMARK    1  A    between atoms: N1_2  and  C2_3 
REMARK    2  A    between atoms: N1_2  and  C22_28 
REMARK    3  A    between atoms: C2_3  and  C3_4 
REMARK    4  A    between atoms: C4_5  and  C5_6 
REMARK    5  A    between atoms: C5_6  and  N2_7 
REMARK    6  A    between atoms: C13_16  and  N4_17 
REMARK    7  A    between atoms: N4_17  and  C14_18 
REMARK    8  A    between atoms: C22_28  and  C23_29 
ROOT
HETATM    1  N2  UNL     1      21.933   3.629  51.592  1.00  0.00    -0.371 N 
HETATM    2  C6  UNL     1      21.307   2.272  51.007  1.00  0.00    -0.004 C 
HETATM    3  C7  UNL     1      21.693   0.939  50.915  1.00  0.00     0.046 C 
HETATM    4  C8  UNL     1      23.012   1.191  51.250  1.00  0.00     0.009 C 
HETATM    5  C9  UNL     1      23.185   2.791  50.610  1.00  0.00     0.079 A 
HETATM    6  C10 UNL     1      24.008   2.685  49.621  1.00  0.00     0.119 A 
HETATM    7  N3  UNL     1      23.047   2.484  48.408  1.00  0.00    -0.288 NA
HETATM    8  C11 UNL     1      21.689   2.075  48.400  1.00  0.00     0.090 C 
HETATM    9  C12 UNL     1      20.550   2.245  49.597  1.00  0.00     0.099 C 
HETATM   10  C13 UNL     1      24.619   2.859  51.195  1.00  0.00     0.095 A 
HETATM   11  C20 UNL     1      23.236   2.860  51.889  1.00  0.00     0.070 A 
HETATM   12  C21 UNL     1      22.974   1.611  52.754  1.00  0.00     0.040 C 
ENDROOT
BRANCH  10  13
HETATM   13  N4  UNL     1      26.116   2.974  51.383  1.00  0.00    -0.375 N 
HETATM   14  H16 UNL     1      26.533   3.780  50.874  1.00  0.00     0.160 HD
BRANCH  13  15
HETATM   15  C14 UNL     1      26.863   2.109  52.159  1.00  0.00     0.030 A 
HETATM   16  C15 UNL     1      27.878   2.315  53.056  1.00  0.00     0.032 A 
HETATM   17  C16 UNL     1      28.545   1.321  53.713  1.00  0.00     0.046 A 
HETATM   18  C17 UNL     1      28.249  -0.004  53.525  1.00  0.00     0.138 A 
HETATM   19  F1  UNL     1      28.930  -0.960  54.195  1.00  0.00    -0.204 F 
HETATM   20  C18 UNL     1      27.213  -0.236  52.609  1.00  0.00     0.074 A 
HETATM   21 CL1  UNL     1      26.792  -1.925  52.335  1.00  0.00    -0.081 Cl
HETATM   22  C19 UNL     1      26.558   0.787  51.960  1.00  0.00     0.056 A 
ENDBRANCH  13  15
ENDBRANCH  10  13
BRANCH   1  23
HETATM   23  C5  UNL     1      21.582   5.042  51.965  1.00  0.00     0.150 C 
BRANCH  23  24
HETATM   24  C4  UNL     1      22.011   5.961  50.953  1.00  0.00    -0.009 C 
HETATM   25  C3  UNL     1      23.206   6.588  51.166  1.00  0.00     0.001 C 
BRANCH  25  26
HETATM   26  C2  UNL     1      24.164   7.552  50.606  1.00  0.00     0.299 C 
BRANCH  26  27
HETATM   27  N1  UNL     1      25.501   7.032  50.419  1.00  0.00     0.089 N 
HETATM   28  C1  UNL     1      25.524   6.041  49.362  1.00  0.00     0.310 C 
BRANCH  27  29
HETATM   29  C22 UNL     1      26.397   8.098  50.081  1.00  0.00     0.303 C 
BRANCH  29  30
HETATM   30  C23 UNL     1      25.582   9.189  49.367  1.00  0.00     0.252 C 
HETATM   31  F2  UNL     1      25.832   9.084  47.991  1.00  0.00    -0.254 F 
ENDBRANCH  29  30
ENDBRANCH  27  29
ENDBRANCH  26  27
ENDBRANCH  25  26
ENDBRANCH  23  24
ENDBRANCH   1  23
TORSDOF 8
ENDMDL
MODEL 9
REMARK VINA RESULT:      -7.4      3.358      6.137
REMARK  8 active torsions:
REMARK  status: ('A' for Active; 'I' for Inactive)
REMARK    1  A    between atoms: N1_2  and  C2_3 
REMARK    2  A    between atoms: N1_2  and  C22_28 
REMARK    3  A    between atoms: C2_3  and  C3_4 
REMARK    4  A    between atoms: C4_5  and  C5_6 
REMARK    5  A    between atoms: C5_6  and  N2_7 
REMARK    6  A    between atoms: C13_16  and  N4_17 
REMARK    7  A    between atoms: N4_17  and  C14_18 
REMARK    8  A    between atoms: C22_28  and  C23_29 
ROOT
HETATM    1  N2  UNL     1      19.982   0.427  52.503  1.00  0.00    -0.371 N 
HETATM    2  C6  UNL     1      19.029   0.511  51.214  1.00  0.00    -0.004 C 
HETATM    3  C7  UNL     1      19.113   1.035  49.928  1.00  0.00     0.046 C 
HETATM    4  C8  UNL     1      20.248   1.781  50.195  1.00  0.00     0.009 C 
HETATM    5  C9  UNL     1      20.002   2.113  51.877  1.00  0.00     0.079 A 
HETATM    6  C10 UNL     1      19.790   3.384  51.955  1.00  0.00     0.119 A 
HETATM    7  N3  UNL     1      18.233   3.468  51.881  1.00  0.00    -0.288 NA
HETATM    8  C11 UNL     1      17.306   2.504  51.411  1.00  0.00     0.090 C 
HETATM    9  C12 UNL     1      17.471   0.852  51.350  1.00  0.00     0.099 C 
HETATM   10  C13 UNL     1      21.386   2.808  51.933  1.00  0.00     0.095 A 
HETATM   11  C20 UNL     1      21.001   1.319  51.765  1.00  0.00     0.070 A 
HETATM   12  C21 UNL     1      21.385   0.728  50.394  1.00  0.00     0.040 C 
ENDROOT
BRANCH  10  13
HETATM   13  N4  UNL     1      22.518   3.799  52.094  1.00  0.00    -0.375 N 
HETATM   14  H16 UNL     1      22.499   4.298  53.007  1.00  0.00     0.160 HD
BRANCH  13  15
HETATM   15  C14 UNL     1      23.490   4.020  51.138  1.00  0.00     0.030 A 
HETATM   16  C15 UNL     1      24.053   3.207  50.189  1.00  0.00     0.032 A 
HETATM   17  C16 UNL     1      25.053   3.586  49.338  1.00  0.00     0.046 A 
HETATM   18  C17 UNL     1      25.593   4.844  49.364  1.00  0.00     0.138 A 
HETATM   19  F1  UNL     1      26.581   5.184  48.506  1.00  0.00    -0.204 F 
HETATM   20  C18 UNL     1      25.032   5.692  50.329  1.00  0.00     0.074 A 
HETATM   21 CL1  UNL     1      25.691   7.324  50.400  1.00  0.00    -0.081 Cl
HETATM   22  C19 UNL     1      24.024   5.282  51.174  1.00  0.00     0.056 A 
ENDBRANCH  13  15
ENDBRANCH  10  13
BRANCH   1  23
HETATM   23  C5  UNL     1      20.138  -0.263  53.829  1.00  0.00     0.150 C 
BRANCH  23  24
HETATM   24  C4  UNL     1      21.378   0.095  54.450  1.00  0.00    -0.009 C 
HETATM   25  C3  UNL     1      22.283  -0.912  54.632  1.00  0.00     0.001 C 
BRANCH  25  26
HETATM   26  C2  UNL     1      23.620  -1.235  55.148  1.00  0.00     0.299 C 
BRANCH  26  27
HETATM   27  N1  UNL     1      24.676  -0.373  54.664  1.00  0.00     0.089 N 
HETATM   28  C1  UNL     1      25.886  -0.559  55.437  1.00  0.00     0.310 C 
BRANCH  27  29
HETATM   29  C22 UNL     1      24.951  -0.662  53.287  1.00  0.00     0.303 C 
BRANCH  29  30
HETATM   30  C23 UNL     1      24.964   0.671  52.521  1.00  0.00     0.252 C 
HETATM   31  F2  UNL     1      24.433   1.659  53.363  1.00  0.00    -0.254 F 
ENDBRANCH  29  30
ENDBRANCH  27  29
ENDBRANCH  26  27
ENDBRANCH  25  26
ENDBRANCH  23  24
ENDBRANCH   1  23
TORSDOF 8
ENDMDL
