MODEL 1
REMARK VINA RESULT:     -10.0      0.000      0.000
REMARK  2 active torsions:
REMARK  status: ('A' for Active; 'I' for Inactive)
REMARK    1  A    between atoms: C2_2  and  N1_3 
REMARK    2  A    between atoms: C6_8  and  C7_9 
ROOT
HETATM    1  N1  UNL     1      21.696   4.454  50.220  1.00  0.00     0.090 N 
HETATM    2  C3  UNL     1      21.103   5.328  49.191  1.00  0.00     0.299 C 
HETATM    3  C4  UNL     1      22.240   5.795  48.248  1.00  0.00     0.205 C 
HETATM    4  O1  UNL     1      23.332   4.846  48.364  1.00  0.00    -0.353 OA
HETATM    5  C5  UNL     1      23.349   3.490  48.768  1.00  0.00     0.055 C 
HETATM    6  C6  UNL     1      24.421   3.270  49.536  1.00  0.00    -0.003 C 
HETATM    7  C9  UNL     1      24.374   2.332  50.650  1.00  0.00     0.021 A 
HETATM    8  C10 UNL     1      23.113   1.736  50.791  1.00  0.00     0.072 A 
HETATM    9  O4  UNL     1      23.225   0.923  51.829  1.00  0.00    -0.309 OA
HETATM   10  C11 UNL     1      24.438   0.975  52.326  1.00  0.00     0.141 A 
HETATM   11  C12 UNL     1      25.228   1.864  51.612  1.00  0.00     0.066 A 
HETATM   12  C13 UNL     1      26.599   2.202  51.834  1.00  0.00     0.197 A 
HETATM   13  O5  UNL     1      27.261   3.001  51.171  1.00  0.00    -0.286 OA
HETATM   14  C14 UNL     1      27.272   1.543  52.944  1.00  0.00     0.029 A 
HETATM   15  C15 UNL     1      28.588   1.792  53.247  1.00  0.00     0.016 A 
HETATM   16  C16 UNL     1      29.156   1.116  54.331  1.00  0.00     0.001 A 
HETATM   17  C17 UNL     1      28.434   0.218  55.086  1.00  0.00     0.001 A 
HETATM   18  C18 UNL     1      27.115  -0.049  54.801  1.00  0.00     0.016 A 
HETATM   19  C19 UNL     1      26.567   0.625  53.732  1.00  0.00     0.031 A 
HETATM   20  C20 UNL     1      25.150   0.321  53.447  1.00  0.00     0.217 A 
HETATM   21  O6  UNL     1      24.500  -0.509  54.154  1.00  0.00    -0.284 OA
HETATM   22  C21 UNL     1      21.935   2.003  49.922  1.00  0.00     0.078 C 
HETATM   23  C22 UNL     1      22.413   2.326  48.496  1.00  0.00     0.078 C 
HETATM   24  C23 UNL     1      21.098   3.171  50.332  1.00  0.00     0.284 C 
ENDROOT
BRANCH   6  25
HETATM   25  C7  UNL     1      25.591   4.021  49.231  1.00  0.00     0.033 A 
HETATM   26  O2  UNL     1      26.469   4.838  48.955  1.00  0.00     0.000 OA
HETATM   27  C8  UNL     1      26.488   6.279  48.694  1.00  0.00     0.000 A 
HETATM   28  O3  UNL     1      26.581   4.912  48.925  1.00  0.00     0.000 OA
ENDBRANCH   6  25
BRANCH   1  29
HETATM   29  C2  UNL     1      21.468   5.122  51.512  1.00  0.00     0.268 C 
HETATM   30  C1  UNL     1      22.715   5.045  52.362  1.00  0.00     0.037 C 
ENDBRANCH   1  29
TORSDOF 2
ENDMDL
MODEL 2
REMARK VINA RESULT:      -9.2      2.007      4.504
REMARK  2 active torsions:
REMARK  status: ('A' for Active; 'I' for Inactive)
REMARK    1  A    between atoms: C2_2  and  N1_3 
REMARK    2  A    between atoms: C6_8  and  C7_9 
ROOT
HETATM    1  N1  UNL     1      21.527   5.600  48.285  1.00  0.00     0.090 N 
HETATM    2  C3  UNL     1      20.348   6.391  47.886  1.00  0.00     0.299 C 
HETATM    3  C4  UNL     1      19.238   6.159  48.941  1.00  0.00     0.205 C 
HETATM    4  O1  UNL     1      19.874   5.706  50.164  1.00  0.00    -0.353 OA
HETATM    5  C5  UNL     1      21.192   5.878  50.647  1.00  0.00     0.055 C 
HETATM    6  C6  UNL     1      21.611   4.739  51.209  1.00  0.00    -0.003 C 
HETATM    7  C9  UNL     1      23.003   4.319  51.120  1.00  0.00     0.021 A 
HETATM    8  C10 UNL     1      23.789   5.229  50.399  1.00  0.00     0.072 A 
HETATM    9  O4  UNL     1      25.009   4.718  50.404  1.00  0.00    -0.309 OA
HETATM   10  C11 UNL     1      25.031   3.583  51.062  1.00  0.00     0.141 A 
HETATM   11  C12 UNL     1      23.771   3.269  51.550  1.00  0.00     0.066 A 
HETATM   12  C13 UNL     1      23.378   2.127  52.314  1.00  0.00     0.197 A 
HETATM   13  O5  UNL     1      22.241   1.891  52.725  1.00  0.00    -0.286 OA
HETATM   14  C14 UNL     1      24.414   1.156  52.632  1.00  0.00     0.029 A 
HETATM   15  C15 UNL     1      24.149   0.022  53.360  1.00  0.00     0.016 A 
HETATM   16  C16 UNL     1      25.203  -0.858  53.621  1.00  0.00     0.001 A 
HETATM   17  C17 UNL     1      26.482  -0.613  53.170  1.00  0.00     0.001 A 
HETATM   18  C18 UNL     1      26.772   0.516  52.440  1.00  0.00     0.016 A 
HETATM   19  C19 UNL     1      25.724   1.374  52.188  1.00  0.00     0.031 A 
HETATM   20  C20 UNL     1      26.062   2.578  51.403  1.00  0.00     0.217 A 
HETATM   21  O6  UNL     1      27.247   2.787  50.995  1.00  0.00    -0.284 OA
HETATM   22  C21 UNL     1      23.295   6.489  49.782  1.00  0.00     0.078 C 
HETATM   23  C22 UNL     1      22.146   7.059  50.631  1.00  0.00     0.078 C 
HETATM   24  C23 UNL     1      22.732   6.341  48.405  1.00  0.00     0.284 C 
ENDROOT
BRANCH   6  25
HETATM   25  C7  UNL     1      20.625   3.948  51.862  1.00  0.00     0.033 A 
HETATM   26  O2  UNL     1      19.663   3.281  52.242  1.00  0.00     0.000 OA
HETATM   27  C8  UNL     1      18.405   2.848  51.630  1.00  0.00     0.000 A 
HETATM   28  O3  UNL     1      19.566   3.205  52.303  1.00  0.00     0.000 OA
ENDBRANCH   6  25
BRANCH   1  29
HETATM   29  C2  UNL     1      21.756   4.625  47.206  1.00  0.00     0.268 C 
HETATM   30  C1  UNL     1      21.992   3.252  47.791  1.00  0.00     0.037 C 
ENDBRANCH   1  29
TORSDOF 2
ENDMDL
MODEL 3
REMARK VINA RESULT:      -9.2      1.883      5.713
REMARK  2 active torsions:
REMARK  status: ('A' for Active; 'I' for Inactive)
REMARK    1  A    between atoms: C2_2  and  N1_3 
REMARK    2  A    between atoms: C6_8  and  C7_9 
ROOT
HETATM    1  N1  UNL     1      21.168   2.072  49.977  1.00  0.00     0.090 N 
HETATM    2  C3  UNL     1      20.445   0.968  50.635  1.00  0.00     0.299 C 
HETATM    3  C4  UNL     1      21.458   0.187  51.509  1.00  0.00     0.205 C 
HETATM    4  O1  UNL     1      22.575   1.070  51.790  1.00  0.00    -0.353 OA
HETATM    5  C5  UNL     1      22.666   2.481  51.809  1.00  0.00     0.055 C 
HETATM    6  C6  UNL     1      23.822   2.859  51.255  1.00  0.00    -0.003 C 
HETATM    7  C9  UNL     1      23.920   4.082  50.470  1.00  0.00     0.021 A 
HETATM    8  C10 UNL     1      22.695   4.760  50.384  1.00  0.00     0.072 A 
HETATM    9  O4  UNL     1      22.940   5.833  49.651  1.00  0.00    -0.309 OA
HETATM   10  C11 UNL     1      24.200   5.865  49.286  1.00  0.00     0.141 A 
HETATM   11  C12 UNL     1      24.887   4.766  49.781  1.00  0.00     0.066 A 
HETATM   12  C13 UNL     1      26.267   4.436  49.610  1.00  0.00     0.197 A 
HETATM   13  O5  UNL     1      26.833   3.444  50.071  1.00  0.00    -0.286 OA
HETATM   14  C14 UNL     1      27.074   5.353  48.819  1.00  0.00     0.029 A 
HETATM   15  C15 UNL     1      28.410   5.135  48.591  1.00  0.00     0.016 A 
HETATM   16  C16 UNL     1      29.110   6.067  47.821  1.00  0.00     0.001 A 
HETATM   17  C17 UNL     1      28.497   7.183  47.296  1.00  0.00     0.001 A 
HETATM   18  C18 UNL     1      27.160   7.424  47.511  1.00  0.00     0.016 A 
HETATM   19  C19 UNL     1      26.481   6.497  48.271  1.00  0.00     0.031 A 
HETATM   20  C20 UNL     1      25.047   6.779  48.488  1.00  0.00     0.217 A 
HETATM   21  O6  UNL     1      24.498   7.813  47.996  1.00  0.00    -0.284 OA
HETATM   22  C21 UNL     1      21.422   4.313  51.010  1.00  0.00     0.078 C 
HETATM   23  C22 UNL     1      21.729   3.563  52.317  1.00  0.00     0.078 C 
HETATM   24  C23 UNL     1      20.613   3.361  50.189  1.00  0.00     0.284 C 
ENDROOT
BRANCH   6  25
HETATM   25  C7  UNL     1      24.934   1.991  51.441  1.00  0.00     0.033 A 
HETATM   26  O2  UNL     1      25.784   1.164  51.769  1.00  0.00     0.000 OA
HETATM   27  C8  UNL     1      25.883   0.151  52.822  1.00  0.00     0.000 A 
HETATM   28  O3  UNL     1      25.891   1.079  51.788  1.00  0.00     0.000 OA
ENDBRANCH   6  25
BRANCH   1  29
HETATM   29  C2  UNL     1      21.073   1.824  48.529  1.00  0.00     0.268 C 
HETATM   30  C1  UNL     1      22.422   2.031  47.879  1.00  0.00     0.037 C 
ENDBRANCH   1  29
TORSDOF 2
ENDMDL
MODEL 4
REMARK VINA RESULT:      -9.1      2.022      2.842
REMARK  2 active torsions:
REMARK  status: ('A' for Active; 'I' for Inactive)
REMARK    1  A    between atoms: C2_2  and  N1_3 
REMARK    2  A    between atoms: C6_8  and  C7_9 
ROOT
HETATM    1  N1  UNL     1      21.709   5.532  49.387  1.00  0.00     0.090 N 
HETATM    2  C3  UNL     1      22.027   6.584  48.404  1.00  0.00     0.299 C 
HETATM    3  C4  UNL     1      23.514   6.428  48.001  1.00  0.00     0.205 C 
HETATM    4  O1  UNL     1      23.913   5.064  48.295  1.00  0.00    -0.353 OA
HETATM    5  C5  UNL     1      23.154   3.877  48.417  1.00  0.00     0.055 C 
HETATM    6  C6  UNL     1      23.619   3.157  49.442  1.00  0.00    -0.003 C 
HETATM    7  C9  UNL     1      22.726   2.365  50.278  1.00  0.00     0.021 A 
HETATM    8  C10 UNL     1      21.387   2.469  49.873  1.00  0.00     0.072 A 
HETATM    9  O4  UNL     1      20.708   1.707  50.715  1.00  0.00    -0.309 OA
HETATM   10  C11 UNL     1      21.514   1.154  51.590  1.00  0.00     0.141 A 
HETATM   11  C12 UNL     1      22.828   1.537  51.363  1.00  0.00     0.066 A 
HETATM   12  C13 UNL     1      23.998   1.154  52.091  1.00  0.00     0.197 A 
HETATM   13  O5  UNL     1      25.149   1.522  51.851  1.00  0.00    -0.286 OA
HETATM   14  C14 UNL     1      23.811   0.250  53.216  1.00  0.00     0.029 A 
HETATM   15  C15 UNL     1      24.864  -0.183  53.983  1.00  0.00     0.016 A 
HETATM   16  C16 UNL     1      24.596  -1.051  55.045  1.00  0.00     0.001 A 
HETATM   17  C17 UNL     1      23.316  -1.475  55.331  1.00  0.00     0.001 A 
HETATM   18  C18 UNL     1      22.246  -1.056  54.576  1.00  0.00     0.016 A 
HETATM   19  C19 UNL     1      22.524  -0.200  53.534  1.00  0.00     0.031 A 
HETATM   20  C20 UNL     1      21.357   0.235  52.739  1.00  0.00     0.217 A 
HETATM   21  O6  UNL     1      20.185  -0.166  53.017  1.00  0.00    -0.284 OA
HETATM   22  C21 UNL     1      20.897   3.281  48.728  1.00  0.00     0.078 C 
HETATM   23  C22 UNL     1      21.977   3.326  47.633  1.00  0.00     0.078 C 
HETATM   24  C23 UNL     1      20.601   4.711  49.048  1.00  0.00     0.284 C 
ENDROOT
BRANCH   6  25
HETATM   25  C7  UNL     1      25.018   3.232  49.694  1.00  0.00     0.033 A 
HETATM   26  O2  UNL     1      26.229   3.445  49.756  1.00  0.00     0.000 OA
HETATM   27  C8  UNL     1      27.155   4.332  49.049  1.00  0.00     0.000 A 
HETATM   28  O3  UNL     1      26.364   3.453  49.779  1.00  0.00     0.000 OA
ENDBRANCH   6  25
BRANCH   1  29
HETATM   29  C2  UNL     1      21.333   6.226  50.630  1.00  0.00     0.268 C 
HETATM   30  C1  UNL     1      22.038   5.594  51.808  1.00  0.00     0.037 C 
ENDBRANCH   1  29
TORSDOF 2
ENDMDL
MODEL 5
REMARK VINA RESULT:      -8.8      2.237      4.765
REMARK  2 active torsions:
REMARK  status: ('A' for Active; 'I' for Inactive)
REMARK    1  A    between atoms: C2_2  and  N1_3 
REMARK    2  A    between atoms: C6_8  and  C7_9 
ROOT
HETATM    1  N1  UNL     1      20.265   2.953  49.370  1.00  0.00     0.090 N 
HETATM    2  C3  UNL     1      18.812   3.138  49.197  1.00  0.00     0.299 C 
HETATM    3  C4  UNL     1      18.096   2.433  50.375  1.00  0.00     0.205 C 
HETATM    4  O1  UNL     1      19.049   2.306  51.462  1.00  0.00    -0.353 OA
HETATM    5  C5  UNL     1      20.215   3.044  51.770  1.00  0.00     0.055 C 
HETATM    6  C6  UNL     1      21.173   2.209  52.184  1.00  0.00    -0.003 C 
HETATM    7  C9  UNL     1      22.575   2.453  51.874  1.00  0.00     0.021 A 
HETATM    8  C10 UNL     1      22.759   3.620  51.119  1.00  0.00     0.072 A 
HETATM    9  O4  UNL     1      24.064   3.705  50.919  1.00  0.00    -0.309 OA
HETATM   10  C11 UNL     1      24.684   2.696  51.484  1.00  0.00     0.141 A 
HETATM   11  C12 UNL     1      23.783   1.853  52.116  1.00  0.00     0.066 A 
HETATM   12  C13 UNL     1      24.056   0.652  52.842  1.00  0.00     0.197 A 
HETATM   13  O5  UNL     1      23.218  -0.067  53.388  1.00  0.00    -0.286 OA
HETATM   14  C14 UNL     1      25.449   0.242  52.943  1.00  0.00     0.029 A 
HETATM   15  C15 UNL     1      25.826  -0.893  53.617  1.00  0.00     0.016 A 
HETATM   16  C16 UNL     1      27.185  -1.214  53.665  1.00  0.00     0.001 A 
HETATM   17  C17 UNL     1      28.139  -0.423  53.060  1.00  0.00     0.001 A 
HETATM   18  C18 UNL     1      27.786   0.719  52.381  1.00  0.00     0.016 A 
HETATM   19  C19 UNL     1      26.443   1.022  52.340  1.00  0.00     0.031 A 
HETATM   20  C20 UNL     1      26.091   2.254  51.605  1.00  0.00     0.217 A 
HETATM   21  O6  UNL     1      26.984   2.969  51.054  1.00  0.00    -0.284 OA
HETATM   22  C21 UNL     1      21.672   4.531  50.669  1.00  0.00     0.078 C 
HETATM   23  C22 UNL     1      20.538   4.527  51.708  1.00  0.00     0.078 C 
HETATM   24  C23 UNL     1      21.024   4.153  49.376  1.00  0.00     0.284 C 
ENDROOT
BRANCH   6  25
HETATM   25  C7  UNL     1      20.750   1.059  52.908  1.00  0.00     0.033 A 
HETATM   26  O2  UNL     1      20.211   0.070  53.405  1.00  0.00     0.000 OA
HETATM   27  C8  UNL     1      18.969  -0.662  53.151  1.00  0.00     0.000 A 
HETATM   28  O3  UNL     1      20.169  -0.041  53.474  1.00  0.00     0.000 OA
ENDBRANCH   6  25
BRANCH   1  29
HETATM   29  C2  UNL     1      20.728   2.186  48.202  1.00  0.00     0.268 C 
HETATM   30  C1  UNL     1      21.562   1.010  48.653  1.00  0.00     0.037 C 
ENDBRANCH   1  29
TORSDOF 2
ENDMDL
MODEL 6
REMARK VINA RESULT:      -8.7      4.615      8.539
REMARK  2 active torsions:
REMARK  status: ('A' for Active; 'I' for Inactive)
REMARK    1  A    between atoms: C2_2  and  N1_3 
REMARK    2  A    between atoms: C6_8  and  C7_9 
ROOT
HETATM    1  N1  UNL     1      30.718   9.887  47.826  1.00  0.00     0.090 N 
HETATM    2  C3  UNL     1      32.124  10.255  47.574  1.00  0.00     0.299 C 
HETATM    3  C4  UNL     1      32.958   8.951  47.532  1.00  0.00     0.205 C 
HETATM    4  O1  UNL     1      32.055   7.855  47.232  1.00  0.00    -0.353 OA
HETATM    5  C5  UNL     1      30.798   7.833  46.583  1.00  0.00     0.055 C 
HETATM    6  C6  UNL     1      29.982   6.990  47.224  1.00  0.00    -0.003 C 
HETATM    7  C9  UNL     1      28.554   7.254  47.331  1.00  0.00     0.021 A 
HETATM    8  C10 UNL     1      28.186   8.454  46.704  1.00  0.00     0.072 A 
HETATM    9  O4  UNL     1      26.879   8.555  46.885  1.00  0.00    -0.309 OA
HETATM   10  C11 UNL     1      26.426   7.527  47.562  1.00  0.00     0.141 A 
HETATM   11  C12 UNL     1      27.454   6.652  47.880  1.00  0.00     0.066 A 
HETATM   12  C13 UNL     1      27.375   5.422  48.605  1.00  0.00     0.197 A 
HETATM   13  O5  UNL     1      28.319   4.676  48.864  1.00  0.00    -0.286 OA
HETATM   14  C14 UNL     1      26.060   5.017  49.079  1.00  0.00     0.029 A 
HETATM   15  C15 UNL     1      25.867   3.855  49.785  1.00  0.00     0.016 A 
HETATM   16  C16 UNL     1      24.571   3.542  50.204  1.00  0.00     0.001 A 
HETATM   17  C17 UNL     1      23.500   4.362  49.924  1.00  0.00     0.001 A 
HETATM   18  C18 UNL     1      23.667   5.531  49.219  1.00  0.00     0.016 A 
HETATM   19  C19 UNL     1      24.950   5.828  48.813  1.00  0.00     0.031 A 
HETATM   20  C20 UNL     1      25.102   7.088  48.057  1.00  0.00     0.217 A 
HETATM   21  O6  UNL     1      24.103   7.832  47.810  1.00  0.00    -0.284 OA
HETATM   22  C21 UNL     1      29.117   9.375  46.000  1.00  0.00     0.078 C 
HETATM   23  C22 UNL     1      30.259   8.563  45.366  1.00  0.00     0.078 C 
HETATM   24  C23 UNL     1      29.789  10.385  46.874  1.00  0.00     0.284 C 
ENDROOT
BRANCH   6  25
HETATM   25  C7  UNL     1      30.585   5.847  47.821  1.00  0.00     0.033 A 
HETATM   26  O2  UNL     1      31.260   4.886  48.189  1.00  0.00     0.000 OA
HETATM   27  C8  UNL     1      32.524   4.289  47.755  1.00  0.00     0.000 A 
HETATM   28  O3  UNL     1      31.319   4.776  48.246  1.00  0.00     0.000 OA
ENDBRANCH   6  25
BRANCH   1  29
HETATM   29  C2  UNL     1      30.351  10.506  49.111  1.00  0.00     0.268 C 
HETATM   30  C1  UNL     1      30.760  11.960  49.121  1.00  0.00     0.037 C 
ENDBRANCH   1  29
TORSDOF 2
ENDMDL
MODEL 7
REMARK VINA RESULT:      -8.6      5.606      8.903
REMARK  2 active torsions:
REMARK  status: ('A' for Active; 'I' for Inactive)
REMARK    1  A    between atoms: C2_2  and  N1_3 
REMARK    2  A    between atoms: C6_8  and  C7_9 
ROOT
HETATM    1  N1  UNL     1      28.318  10.092  46.889  1.00  0.00     0.090 N 
HETATM    2  C3  UNL     1      26.956  10.658  46.908  1.00  0.00     0.299 C 
HETATM    3  C4  UNL     1      25.984   9.549  47.382  1.00  0.00     0.205 C 
HETATM    4  O1  UNL     1      26.758   8.564  48.115  1.00  0.00    -0.353 OA
HETATM    5  C5  UNL     1      27.994   8.667  48.796  1.00  0.00     0.055 C 
HETATM    6  C6  UNL     1      28.724   7.574  48.558  1.00  0.00    -0.003 C 
HETATM    7  C9  UNL     1      30.174   7.642  48.441  1.00  0.00     0.021 A 
HETATM    8  C10 UNL     1      30.660   8.949  48.600  1.00  0.00     0.072 A 
HETATM    9  O4  UNL     1      31.972   8.851  48.469  1.00  0.00    -0.309 OA
HETATM   10  C11 UNL     1      32.323   7.607  48.245  1.00  0.00     0.141 A 
HETATM   11  C12 UNL     1      31.212   6.777  48.216  1.00  0.00     0.066 A 
HETATM   12  C13 UNL     1      31.169   5.365  48.002  1.00  0.00     0.197 A 
HETATM   13  O5  UNL     1      30.153   4.668  47.984  1.00  0.00    -0.286 OA
HETATM   14  C14 UNL     1      32.440   4.690  47.785  1.00  0.00     0.029 A 
HETATM   15  C15 UNL     1      32.517   3.336  47.570  1.00  0.00     0.016 A 
HETATM   16  C16 UNL     1      33.778   2.768  47.370  1.00  0.00     0.001 A 
HETATM   17  C17 UNL     1      34.928   3.528  47.386  1.00  0.00     0.001 A 
HETATM   18  C18 UNL     1      34.876   4.886  47.600  1.00  0.00     0.016 A 
HETATM   19  C19 UNL     1      33.627   5.433  47.794  1.00  0.00     0.031 A 
HETATM   20  C20 UNL     1      33.599   6.892  48.022  1.00  0.00     0.217 A 
HETATM   21  O6  UNL     1      34.669   7.576  48.033  1.00  0.00    -0.284 OA
HETATM   22  C21 UNL     1      29.822  10.150  48.861  1.00  0.00     0.078 C 
HETATM   23  C22 UNL     1      28.588   9.744  49.686  1.00  0.00     0.078 C 
HETATM   24  C23 UNL     1      29.278  10.819  47.640  1.00  0.00     0.284 C 
ENDROOT
BRANCH   6  25
HETATM   25  C7  UNL     1      28.011   6.353  48.392  1.00  0.00     0.033 A 
HETATM   26  O2  UNL     1      27.267   5.373  48.404  1.00  0.00     0.000 OA
HETATM   27  C8  UNL     1      26.074   4.995  49.165  1.00  0.00     0.000 A 
HETATM   28  O3  UNL     1      27.197   5.255  48.390  1.00  0.00     0.000 OA
ENDBRANCH   6  25
BRANCH   1  29
HETATM   29  C2  UNL     1      28.770  10.149  45.489  1.00  0.00     0.268 C 
HETATM   30  C1  UNL     1      29.155   8.768  45.013  1.00  0.00     0.037 C 
ENDBRANCH   1  29
TORSDOF 2
ENDMDL
MODEL 8
REMARK VINA RESULT:      -8.2      4.925      8.402
REMARK  2 active torsions:
REMARK  status: ('A' for Active; 'I' for Inactive)
REMARK    1  A    between atoms: C2_2  and  N1_3 
REMARK    2  A    between atoms: C6_8  and  C7_9 
ROOT
HETATM    1  N1  UNL     1      26.657   9.804  47.444  1.00  0.00     0.090 N 
HETATM    2  C3  UNL     1      25.227  10.092  47.662  1.00  0.00     0.299 C 
HETATM    3  C4  UNL     1      24.550   8.794  48.166  1.00  0.00     0.205 C 
HETATM    4  O1  UNL     1      25.581   7.944  48.732  1.00  0.00    -0.353 OA
HETATM    5  C5  UNL     1      26.852   8.254  49.270  1.00  0.00     0.055 C 
HETATM    6  C6  UNL     1      27.738   7.336  48.872  1.00  0.00    -0.003 C 
HETATM    7  C9  UNL     1      29.123   7.691  48.592  1.00  0.00     0.021 A 
HETATM    8  C10 UNL     1      29.371   9.058  48.786  1.00  0.00     0.072 A 
HETATM    9  O4  UNL     1      30.651   9.224  48.496  1.00  0.00    -0.309 OA
HETATM   10  C11 UNL     1      31.197   8.084  48.146  1.00  0.00     0.141 A 
HETATM   11  C12 UNL     1      30.266   7.056  48.186  1.00  0.00     0.066 A 
HETATM   12  C13 UNL     1      30.462   5.674  47.879  1.00  0.00     0.197 A 
HETATM   13  O5  UNL     1      29.601   4.795  47.930  1.00  0.00    -0.286 OA
HETATM   14  C14 UNL     1      31.799   5.271  47.468  1.00  0.00     0.029 A 
HETATM   15  C15 UNL     1      32.100   3.969  47.150  1.00  0.00     0.016 A 
HETATM   16  C16 UNL     1      33.409   3.668  46.764  1.00  0.00     0.001 A 
HETATM   17  C17 UNL     1      34.388   4.636  46.700  1.00  0.00     0.001 A 
HETATM   18  C18 UNL     1      34.111   5.946  47.015  1.00  0.00     0.016 A 
HETATM   19  C19 UNL     1      32.817   6.229  47.392  1.00  0.00     0.031 A 
HETATM   20  C20 UNL     1      32.545   7.642  47.725  1.00  0.00     0.217 A 
HETATM   21  O6  UNL     1      33.460   8.521  47.660  1.00  0.00    -0.284 OA
HETATM   22  C21 UNL     1      28.364  10.059  49.228  1.00  0.00     0.078 C 
HETATM   23  C22 UNL     1      27.343   9.383  50.159  1.00  0.00     0.078 C 
HETATM   24  C23 UNL     1      27.553  10.667  48.129  1.00  0.00     0.284 C 
ENDROOT
BRANCH   6  25
HETATM   25  C7  UNL     1      27.251   6.009  48.703  1.00  0.00     0.033 A 
HETATM   26  O2  UNL     1      26.773   4.876  48.764  1.00  0.00     0.000 OA
HETATM   27  C8  UNL     1      26.122   4.089  49.813  1.00  0.00     0.000 A 
HETATM   28  O3  UNL     1      26.726   4.748  48.750  1.00  0.00     0.000 OA
ENDBRANCH   6  25
BRANCH   1  29
HETATM   29  C2  UNL     1      26.909  10.014  46.009  1.00  0.00     0.268 C 
HETATM   30  C1  UNL     1      27.460   8.751  45.390  1.00  0.00     0.037 C 
ENDBRANCH   1  29
TORSDOF 2
ENDMDL
MODEL 9
REMARK VINA RESULT:      -8.1      3.429      6.387
REMARK  2 active torsions:
REMARK  status: ('A' for Active; 'I' for Inactive)
REMARK    1  A    between atoms: C2_2  and  N1_3 
REMARK    2  A    between atoms: C6_8  and  C7_9 
ROOT
HETATM    1  N1  UNL     1      22.437   5.072  49.926  1.00  0.00     0.090 N 
HETATM    2  C3  UNL     1      23.719   5.797  49.851  1.00  0.00     0.299 C 
HETATM    3  C4  UNL     1      24.796   4.937  50.557  1.00  0.00     0.205 C 
HETATM    4  O1  UNL     1      24.328   3.563  50.574  1.00  0.00    -0.353 OA
HETATM    5  C5  UNL     1      23.408   2.882  49.743  1.00  0.00     0.055 C 
HETATM    6  C6  UNL     1      22.642   2.083  50.491  1.00  0.00    -0.003 C 
HETATM    7  C9  UNL     1      21.242   1.851  50.162  1.00  0.00     0.021 A 
HETATM    8  C10 UNL     1      20.842   2.552  49.016  1.00  0.00     0.072 A 
HETATM    9  O4  UNL     1      19.566   2.246  48.847  1.00  0.00    -0.309 OA
HETATM   10  C11 UNL     1      19.160   1.425  49.787  1.00  0.00     0.141 A 
HETATM   11  C12 UNL     1      20.192   1.130  50.666  1.00  0.00     0.066 A 
HETATM   12  C13 UNL     1      20.159   0.280  51.814  1.00  0.00     0.197 A 
HETATM   13  O5  UNL     1      21.105   0.049  52.568  1.00  0.00    -0.286 OA
HETATM   14  C14 UNL     1      18.892  -0.369  52.121  1.00  0.00     0.029 A 
HETATM   15  C15 UNL     1      18.747  -1.206  53.199  1.00  0.00     0.016 A 
HETATM   16  C16 UNL     1      17.496  -1.788  53.420  1.00  0.00     0.001 A 
HETATM   17  C17 UNL     1      16.423  -1.544  52.590  1.00  0.00     0.001 A 
HETATM   18  C18 UNL     1      16.545  -0.710  51.503  1.00  0.00     0.016 A 
HETATM   19  C19 UNL     1      17.783  -0.141  51.297  1.00  0.00     0.031 A 
HETATM   20  C20 UNL     1      17.887   0.750  50.124  1.00  0.00     0.217 A 
HETATM   21  O6  UNL     1      16.888   0.964  49.369  1.00  0.00    -0.284 OA
HETATM   22  C21 UNL     1      21.716   3.439  48.203  1.00  0.00     0.078 C 
HETATM   23  C22 UNL     1      23.161   2.912  48.245  1.00  0.00     0.078 C 
HETATM   24  C23 UNL     1      21.799   4.854  48.677  1.00  0.00     0.284 C 
ENDROOT
BRANCH   6  25
HETATM   25  C7  UNL     1      23.253   1.503  51.639  1.00  0.00     0.033 A 
HETATM   26  O2  UNL     1      23.963   1.010  52.515  1.00  0.00     0.000 OA
HETATM   27  C8  UNL     1      25.386   0.685  52.625  1.00  0.00     0.000 A 
HETATM   28  O3  UNL     1      24.023   0.954  52.625  1.00  0.00     0.000 OA
ENDBRANCH   6  25
BRANCH   1  29
HETATM   29  C2  UNL     1      21.524   5.925  50.704  1.00  0.00     0.268 C 
HETATM   30  C1  UNL     1      21.994   7.360  50.661  1.00  0.00     0.037 C 
ENDBRANCH   1  29
TORSDOF 2
ENDMDL
