MODEL 1
REMARK VINA RESULT:     -10.2      0.000      0.000
REMARK  4 active torsions:
REMARK  status: ('A' for Active; 'I' for Inactive)
REMARK    1  A    between atoms: C3_3  and  C4_4 
REMARK    2  A    between atoms: C4_4  and  C5_5 
REMARK    3  A    between atoms: C14_14  and  C16_17 
REMARK    4  A    between atoms: C17_19  and  O2_20 
ROOT
HETATM    1  C1  UNL     1      26.975   3.644  49.548  1.00  0.00     0.044 C 
HETATM    2  C2  UNL     1      26.111   2.941  50.506  1.00  0.00    -0.073 C 
HETATM    3  C3  UNL     1      24.738   2.997  50.447  1.00  0.00    -0.052 C 
HETATM    4  C11 UNL     1      23.850   2.153  51.255  1.00  0.00     0.008 C 
HETATM    5  C12 UNL     1      24.091   1.163  52.114  1.00  0.00     0.012 C 
HETATM    6  C13 UNL     1      24.539   0.078  53.037  1.00  0.00    -0.003 C 
HETATM    7  C14 UNL     1      23.470  -0.481  53.751  1.00  0.00     0.077 C 
HETATM    8  C15 UNL     1      22.520  -1.105  54.504  1.00  0.00     0.102 C 
HETATM    9  N1  UNL     1      21.706  -1.625  55.126  1.00  0.00    -0.191 NA
HETATM   10  C17 UNL     1      25.929  -0.280  52.925  1.00  0.00     0.186 C 
HETATM   11  C18 UNL     1      27.034   0.577  53.312  1.00  0.00    -0.019 A 
HETATM   12  C19 UNL     1      27.806   0.232  54.397  1.00  0.00     0.011 A 
HETATM   13  C20 UNL     1      28.849   1.053  54.690  1.00  0.00     0.001 A 
HETATM   14  C21 UNL     1      29.299   2.205  54.094  1.00  0.00     0.001 A 
HETATM   15  C22 UNL     1      28.482   2.521  52.991  1.00  0.00     0.008 A 
HETATM   16  C23 UNL     1      27.399   1.731  52.630  1.00  0.00    -0.045 A 
HETATM   17  C24 UNL     1      26.751   2.341  51.560  1.00  0.00     0.073 C 
ENDROOT
BRANCH   7  18
HETATM   18  C16 UNL     1      24.453  -1.033  54.753  1.00  0.00     0.401 C 
HETATM   19  O1  UNL     1      25.134  -1.470  55.771  1.00  0.00    -0.404 OA
ENDBRANCH   7  18
BRANCH  10  20
HETATM   20  O2  UNL     1      26.175  -1.575  53.452  1.00  0.00    -0.386 OA
HETATM   21  H15 UNL     1      26.070  -2.265  52.755  1.00  0.00     0.210 HD
ENDBRANCH  10  20
BRANCH   3  22
HETATM   22  C4  UNL     1      24.213   3.813  49.374  1.00  0.00     0.077 C 
BRANCH  22  23
HETATM   23  C5  UNL     1      24.128   5.267  49.598  1.00  0.00    -0.054 A 
HETATM   24  C6  UNL     1      24.338   6.096  48.495  1.00  0.00     0.007 A 
HETATM   25  C7  UNL     1      24.263   7.462  48.655  1.00  0.00     0.001 A 
HETATM   26  C8  UNL     1      23.991   8.097  49.843  1.00  0.00     0.000 A 
HETATM   27  C9  UNL     1      23.782   7.262  50.946  1.00  0.00     0.001 A 
HETATM   28  C10 UNL     1      23.849   5.892  50.816  1.00  0.00     0.007 A 
ENDBRANCH  22  23
ENDBRANCH   3  22
TORSDOF 4
ENDMDL
MODEL 2
REMARK VINA RESULT:     -10.0      1.516      2.350
REMARK  4 active torsions:
REMARK  status: ('A' for Active; 'I' for Inactive)
REMARK    1  A    between atoms: C3_3  and  C4_4 
REMARK    2  A    between atoms: C4_4  and  C5_5 
REMARK    3  A    between atoms: C14_14  and  C16_17 
REMARK    4  A    between atoms: C17_19  and  O2_20 
ROOT
HETATM    1  C1  UNL     1      26.937   3.674  49.598  1.00  0.00     0.044 C 
HETATM    2  C2  UNL     1      26.083   2.960  50.557  1.00  0.00    -0.073 C 
HETATM    3  C3  UNL     1      24.709   3.013  50.511  1.00  0.00    -0.052 C 
HETATM    4  C11 UNL     1      23.831   2.159  51.319  1.00  0.00     0.008 C 
HETATM    5  C12 UNL     1      24.082   1.162  52.167  1.00  0.00     0.012 C 
HETATM    6  C13 UNL     1      24.541   0.069  53.076  1.00  0.00    -0.003 C 
HETATM    7  C14 UNL     1      23.480  -0.499  53.794  1.00  0.00     0.077 C 
HETATM    8  C15 UNL     1      22.538  -1.132  54.550  1.00  0.00     0.102 C 
HETATM    9  N1  UNL     1      21.731  -1.660  55.175  1.00  0.00    -0.191 NA
HETATM   10  C17 UNL     1      25.931  -0.284  52.948  1.00  0.00     0.186 C 
HETATM   11  C18 UNL     1      27.037   0.572  53.333  1.00  0.00    -0.019 A 
HETATM   12  C19 UNL     1      27.820   0.220  54.408  1.00  0.00     0.011 A 
HETATM   13  C20 UNL     1      28.863   1.041  54.700  1.00  0.00     0.001 A 
HETATM   14  C21 UNL     1      29.305   2.199  54.110  1.00  0.00     0.001 A 
HETATM   15  C22 UNL     1      28.478   2.523  53.018  1.00  0.00     0.008 A 
HETATM   16  C23 UNL     1      27.393   1.733  52.659  1.00  0.00    -0.045 A 
HETATM   17  C24 UNL     1      26.734   2.351  51.600  1.00  0.00     0.073 C 
ENDROOT
BRANCH   7  18
HETATM   18  C16 UNL     1      24.474  -1.058  54.783  1.00  0.00     0.401 C 
HETATM   19  O1  UNL     1      25.174  -1.480  55.793  1.00  0.00    -0.404 OA
ENDBRANCH   7  18
BRANCH  10  20
HETATM   20  O2  UNL     1      26.185  -1.583  53.461  1.00  0.00    -0.386 OA
HETATM   21  H15 UNL     1      26.304  -1.559  54.439  1.00  0.00     0.210 HD
ENDBRANCH  10  20
BRANCH   3  22
HETATM   22  C4  UNL     1      24.173   3.837  49.451  1.00  0.00     0.077 C 
BRANCH  22  23
HETATM   23  C5  UNL     1      22.837   3.500  48.929  1.00  0.00    -0.054 A 
HETATM   24  C6  UNL     1      21.784   4.350  49.273  1.00  0.00     0.007 A 
HETATM   25  C7  UNL     1      20.518   4.077  48.804  1.00  0.00     0.001 A 
HETATM   26  C8  UNL     1      20.193   3.008  48.003  1.00  0.00     0.000 A 
HETATM   27  C9  UNL     1      21.251   2.159  47.662  1.00  0.00     0.001 A 
HETATM   28  C10 UNL     1      22.529   2.408  48.115  1.00  0.00     0.007 A 
ENDBRANCH  22  23
ENDBRANCH   3  22
TORSDOF 4
ENDMDL
MODEL 3
REMARK VINA RESULT:      -9.7      3.894      8.009
REMARK  4 active torsions:
REMARK  status: ('A' for Active; 'I' for Inactive)
REMARK    1  A    between atoms: C3_3  and  C4_4 
REMARK    2  A    between atoms: C4_4  and  C5_5 
REMARK    3  A    between atoms: C14_14  and  C16_17 
REMARK    4  A    between atoms: C17_19  and  O2_20 
ROOT
HETATM    1  C1  UNL     1      22.203  -1.913  53.843  1.00  0.00     0.044 C 
HETATM    2  C2  UNL     1      22.489  -0.662  53.127  1.00  0.00    -0.073 C 
HETATM    3  C3  UNL     1      23.613   0.092  53.369  1.00  0.00    -0.052 C 
HETATM    4  C11 UNL     1      24.029   1.228  52.539  1.00  0.00     0.008 C 
HETATM    5  C12 UNL     1      23.539   1.743  51.412  1.00  0.00     0.012 C 
HETATM    6  C13 UNL     1      22.865   2.184  50.154  1.00  0.00    -0.003 C 
HETATM    7  C14 UNL     1      23.425   3.362  49.642  1.00  0.00     0.077 C 
HETATM    8  C15 UNL     1      23.880   4.500  49.044  1.00  0.00     0.102 C 
HETATM    9  N1  UNL     1      24.280   5.456  48.550  1.00  0.00    -0.191 NA
HETATM   10  C17 UNL     1      21.881   1.268  49.638  1.00  0.00     0.186 C 
HETATM   11  C18 UNL     1      20.612   0.975  50.278  1.00  0.00    -0.019 A 
HETATM   12  C19 UNL     1      19.445   1.391  49.682  1.00  0.00     0.011 A 
HETATM   13  C20 UNL     1      18.285   1.057  50.309  1.00  0.00     0.001 A 
HETATM   14  C21 UNL     1      18.042   0.361  51.466  1.00  0.00     0.001 A 
HETATM   15  C22 UNL     1      19.261  -0.045  52.043  1.00  0.00     0.008 A 
HETATM   16  C23 UNL     1      20.485   0.259  51.462  1.00  0.00    -0.045 A 
HETATM   17  C24 UNL     1      21.494  -0.206  52.301  1.00  0.00     0.073 C 
ENDROOT
BRANCH   7  18
HETATM   18  C16 UNL     1      22.174   3.579  48.826  1.00  0.00     0.401 C 
HETATM   19  O1  UNL     1      21.149   3.989  48.140  1.00  0.00    -0.404 OA
ENDBRANCH   7  18
BRANCH  10  20
HETATM   20  O2  UNL     1      21.632   1.496  48.260  1.00  0.00    -0.386 OA
HETATM   21  H15 UNL     1      20.695   1.291  48.032  1.00  0.00     0.210 HD
ENDBRANCH  10  20
BRANCH   3  22
HETATM   22  C4  UNL     1      24.485  -0.438  54.394  1.00  0.00     0.077 C 
BRANCH  22  23
HETATM   23  C5  UNL     1      25.929  -0.492  54.105  1.00  0.00    -0.054 A 
HETATM   24  C6  UNL     1      26.773   0.259  54.924  1.00  0.00     0.007 A 
HETATM   25  C7  UNL     1      28.131   0.235  54.694  1.00  0.00     0.001 A 
HETATM   26  C8  UNL     1      28.744  -0.487  53.699  1.00  0.00     0.000 A 
HETATM   27  C9  UNL     1      27.894  -1.238  52.880  1.00  0.00     0.001 A 
HETATM   28  C10 UNL     1      26.532  -1.235  53.087  1.00  0.00     0.007 A 
ENDBRANCH  22  23
ENDBRANCH   3  22
TORSDOF 4
ENDMDL
MODEL 4
REMARK VINA RESULT:      -9.6      3.676      7.794
REMARK  4 active torsions:
REMARK  status: ('A' for Active; 'I' for Inactive)
REMARK    1  A    between atoms: C3_3  and  C4_4 
REMARK    2  A    between atoms: C4_4  and  C5_5 
REMARK    3  A    between atoms: C14_14  and  C16_17 
REMARK    4  A    between atoms: C17_19  and  O2_20 
ROOT
HETATM    1  C1  UNL     1      22.645  -0.703  53.542  1.00  0.00     0.044 C 
HETATM    2  C2  UNL     1      23.406   0.370  52.887  1.00  0.00    -0.073 C 
HETATM    3  C3  UNL     1      24.771   0.492  53.008  1.00  0.00    -0.052 C 
HETATM    4  C11 UNL     1      25.582   1.421  52.213  1.00  0.00     0.008 C 
HETATM    5  C12 UNL     1      25.276   2.252  51.217  1.00  0.00     0.012 C 
HETATM    6  C13 UNL     1      24.760   3.121  50.117  1.00  0.00    -0.003 C 
HETATM    7  C14 UNL     1      25.749   3.977  49.614  1.00  0.00     0.077 C 
HETATM    8  C15 UNL     1      26.619   4.857  49.041  1.00  0.00     0.102 C 
HETATM    9  N1  UNL     1      27.366   5.588  48.564  1.00  0.00    -0.191 NA
HETATM   10  C17 UNL     1      23.415   2.830  49.692  1.00  0.00     0.186 C 
HETATM   11  C18 UNL     1      22.230   3.057  50.498  1.00  0.00    -0.019 A 
HETATM   12  C19 UNL     1      21.337   4.034  50.123  1.00  0.00     0.011 A 
HETATM   13  C20 UNL     1      20.228   4.177  50.895  1.00  0.00     0.001 A 
HETATM   14  C21 UNL     1      19.808   3.513  52.020  1.00  0.00     0.001 A 
HETATM   15  C22 UNL     1      20.748   2.524  52.369  1.00  0.00     0.008 A 
HETATM   16  C23 UNL     1      21.905   2.319  51.629  1.00  0.00    -0.045 A 
HETATM   17  C24 UNL     1      22.661   1.337  52.263  1.00  0.00     0.073 C 
ENDROOT
BRANCH   7  18
HETATM   18  C16 UNL     1      24.668   4.847  49.021  1.00  0.00     0.401 C 
HETATM   19  O1  UNL     1      23.896   5.763  48.516  1.00  0.00    -0.404 OA
ENDBRANCH   7  18
BRANCH  10  20
HETATM   20  O2  UNL     1      23.162   3.335  48.391  1.00  0.00    -0.386 OA
HETATM   21  H15 UNL     1      22.699   2.664  47.835  1.00  0.00     0.210 HD
ENDBRANCH  10  20
BRANCH   3  22
HETATM   22  C4  UNL     1      25.395  -0.511  53.842  1.00  0.00     0.077 C 
BRANCH  22  23
HETATM   23  C5  UNL     1      26.865  -0.605  53.819  1.00  0.00    -0.054 A 
HETATM   24  C6  UNL     1      27.573   0.248  54.667  1.00  0.00     0.007 A 
HETATM   25  C7  UNL     1      28.949   0.192  54.683  1.00  0.00     0.001 A 
HETATM   26  C8  UNL     1      29.707  -0.656  53.912  1.00  0.00     0.000 A 
HETATM   27  C9  UNL     1      28.994  -1.508  53.063  1.00  0.00     0.001 A 
HETATM   28  C10 UNL     1      27.616  -1.477  53.027  1.00  0.00     0.007 A 
ENDBRANCH  22  23
ENDBRANCH   3  22
TORSDOF 4
ENDMDL
MODEL 5
REMARK VINA RESULT:      -9.4      2.440      4.228
REMARK  4 active torsions:
REMARK  status: ('A' for Active; 'I' for Inactive)
REMARK    1  A    between atoms: C3_3  and  C4_4 
REMARK    2  A    between atoms: C4_4  and  C5_5 
REMARK    3  A    between atoms: C14_14  and  C16_17 
REMARK    4  A    between atoms: C17_19  and  O2_20 
ROOT
HETATM    1  C1  UNL     1      22.766   4.183  49.949  1.00  0.00     0.044 C 
HETATM    2  C2  UNL     1      23.967   3.463  50.394  1.00  0.00    -0.073 C 
HETATM    3  C3  UNL     1      25.212   3.694  49.858  1.00  0.00    -0.052 C 
HETATM    4  C11 UNL     1      26.455   3.146  50.411  1.00  0.00     0.008 C 
HETATM    5  C12 UNL     1      26.709   2.419  51.500  1.00  0.00     0.012 C 
HETATM    6  C13 UNL     1      26.812   1.617  52.755  1.00  0.00    -0.003 C 
HETATM    7  C14 UNL     1      28.112   1.142  52.971  1.00  0.00     0.077 C 
HETATM    8  C15 UNL     1      29.331   0.622  53.293  1.00  0.00     0.102 C 
HETATM    9  N1  UNL     1      30.367   0.198  53.553  1.00  0.00    -0.191 NA
HETATM   10  C17 UNL     1      25.620   1.596  53.563  1.00  0.00     0.186 C 
HETATM   11  C18 UNL     1      24.380   0.943  53.186  1.00  0.00    -0.019 A 
HETATM   12  C19 UNL     1      23.967  -0.172  53.878  1.00  0.00     0.011 A 
HETATM   13  C20 UNL     1      22.781  -0.720  53.503  1.00  0.00     0.001 A 
HETATM   14  C21 UNL     1      21.881  -0.366  52.530  1.00  0.00     0.001 A 
HETATM   15  C22 UNL     1      22.341   0.775  51.846  1.00  0.00     0.008 A 
HETATM   16  C23 UNL     1      23.543   1.390  52.172  1.00  0.00    -0.045 A 
HETATM   17  C24 UNL     1      23.756   2.434  51.276  1.00  0.00     0.073 C 
ENDROOT
BRANCH   7  18
HETATM   18  C16 UNL     1      27.558   0.111  53.924  1.00  0.00     0.401 C 
HETATM   19  O1  UNL     1      27.287  -0.875  54.726  1.00  0.00    -0.404 OA
ENDBRANCH   7  18
BRANCH  10  20
HETATM   20  O2  UNL     1      25.909   1.239  54.906  1.00  0.00    -0.386 OA
HETATM   21  H15 UNL     1      25.606   0.321  55.101  1.00  0.00     0.210 HD
ENDBRANCH  10  20
BRANCH   3  22
HETATM   22  C4  UNL     1      25.242   4.693  48.813  1.00  0.00     0.077 C 
BRANCH  22  23
HETATM   23  C5  UNL     1      25.961   5.950  49.086  1.00  0.00    -0.054 A 
HETATM   24  C6  UNL     1      27.125   6.193  48.356  1.00  0.00     0.007 A 
HETATM   25  C7  UNL     1      27.827   7.358  48.575  1.00  0.00     0.001 A 
HETATM   26  C8  UNL     1      27.469   8.330  49.477  1.00  0.00     0.000 A 
HETATM   27  C9  UNL     1      26.302   8.082  50.208  1.00  0.00     0.001 A 
HETATM   28  C10 UNL     1      25.577   6.927  50.009  1.00  0.00     0.007 A 
ENDBRANCH  22  23
ENDBRANCH   3  22
TORSDOF 4
ENDMDL
MODEL 6
REMARK VINA RESULT:      -9.3      3.443      6.946
REMARK  4 active torsions:
REMARK  status: ('A' for Active; 'I' for Inactive)
REMARK    1  A    between atoms: C3_3  and  C4_4 
REMARK    2  A    between atoms: C4_4  and  C5_5 
REMARK    3  A    between atoms: C14_14  and  C16_17 
REMARK    4  A    between atoms: C17_19  and  O2_20 
ROOT
HETATM    1  C1  UNL     1      25.752   2.847  51.818  1.00  0.00     0.044 C 
HETATM    2  C2  UNL     1      24.608   1.956  52.057  1.00  0.00    -0.073 C 
HETATM    3  C3  UNL     1      24.603   1.005  53.050  1.00  0.00    -0.052 C 
HETATM    4  C11 UNL     1      23.413   0.243  53.445  1.00  0.00     0.008 C 
HETATM    5  C12 UNL     1      22.140   0.301  53.054  1.00  0.00     0.012 C 
HETATM    6  C13 UNL     1      20.765   0.505  52.507  1.00  0.00    -0.003 C 
HETATM    7  C14 UNL     1      19.857  -0.443  52.998  1.00  0.00     0.077 C 
HETATM    8  C15 UNL     1      18.880  -1.304  53.400  1.00  0.00     0.102 C 
HETATM    9  N1  UNL     1      18.068  -2.035  53.755  1.00  0.00    -0.191 NA
HETATM   10  C17 UNL     1      20.600   1.690  51.706  1.00  0.00     0.186 C 
HETATM   11  C18 UNL     1      21.206   1.895  50.403  1.00  0.00    -0.019 A 
HETATM   12  C19 UNL     1      20.405   1.935  49.286  1.00  0.00     0.011 A 
HETATM   13  C20 UNL     1      21.023   2.165  48.098  1.00  0.00     0.001 A 
HETATM   14  C21 UNL     1      22.343   2.372  47.782  1.00  0.00     0.001 A 
HETATM   15  C22 UNL     1      23.126   2.323  48.951  1.00  0.00     0.008 A 
HETATM   16  C23 UNL     1      22.566   2.092  50.200  1.00  0.00    -0.045 A 
HETATM   17  C24 UNL     1      23.595   2.024  51.135  1.00  0.00     0.073 C 
ENDROOT
BRANCH   7  18
HETATM   18  C16 UNL     1      18.932  -0.123  51.849  1.00  0.00     0.401 C 
HETATM   19  O1  UNL     1      18.057  -0.062  50.890  1.00  0.00    -0.404 OA
ENDBRANCH   7  18
BRANCH  10  20
HETATM   20  O2  UNL     1      19.235   2.069  51.617  1.00  0.00    -0.386 OA
HETATM   21  H15 UNL     1      18.812   2.078  52.507  1.00  0.00     0.210 HD
ENDBRANCH  10  20
BRANCH   3  22
HETATM   22  C4  UNL     1      25.817   0.944  53.832  1.00  0.00     0.077 C 
BRANCH  22  23
HETATM   23  C5  UNL     1      26.787  -0.117  53.510  1.00  0.00    -0.054 A 
HETATM   24  C6  UNL     1      28.106   0.074  53.927  1.00  0.00     0.007 A 
HETATM   25  C7  UNL     1      29.046  -0.895  53.652  1.00  0.00     0.001 A 
HETATM   26  C8  UNL     1      28.790  -2.067  52.983  1.00  0.00     0.000 A 
HETATM   27  C9  UNL     1      27.468  -2.254  52.566  1.00  0.00     0.001 A 
HETATM   28  C10 UNL     1      26.505  -1.304  52.829  1.00  0.00     0.007 A 
ENDBRANCH  22  23
ENDBRANCH   3  22
TORSDOF 4
ENDMDL
MODEL 7
REMARK VINA RESULT:      -8.7      4.194      7.350
REMARK  4 active torsions:
REMARK  status: ('A' for Active; 'I' for Inactive)
REMARK    1  A    between atoms: C3_3  and  C4_4 
REMARK    2  A    between atoms: C4_4  and  C5_5 
REMARK    3  A    between atoms: C14_14  and  C16_17 
REMARK    4  A    between atoms: C17_19  and  O2_20 
ROOT
HETATM    1  C1  UNL     1      26.217   1.585  51.612  1.00  0.00     0.044 C 
HETATM    2  C2  UNL     1      25.207   2.581  51.229  1.00  0.00    -0.073 C 
HETATM    3  C3  UNL     1      23.857   2.364  51.378  1.00  0.00    -0.052 C 
HETATM    4  C11 UNL     1      22.838   3.404  51.198  1.00  0.00     0.008 C 
HETATM    5  C12 UNL     1      22.923   4.710  50.944  1.00  0.00     0.012 C 
HETATM    6  C13 UNL     1      23.202   6.150  50.664  1.00  0.00    -0.003 C 
HETATM    7  C14 UNL     1      22.027   6.879  50.436  1.00  0.00     0.077 C 
HETATM    8  C15 UNL     1      20.962   7.696  50.197  1.00  0.00     0.102 C 
HETATM    9  N1  UNL     1      20.053   8.372  50.004  1.00  0.00    -0.191 NA
HETATM   10  C17 UNL     1      24.579   6.543  50.814  1.00  0.00     0.186 C 
HETATM   11  C18 UNL     1      25.658   6.111  49.944  1.00  0.00    -0.019 A 
HETATM   12  C19 UNL     1      26.266   7.028  49.119  1.00  0.00     0.011 A 
HETATM   13  C20 UNL     1      27.293   6.575  48.353  1.00  0.00     0.001 A 
HETATM   14  C21 UNL     1      27.864   5.332  48.237  1.00  0.00     0.001 A 
HETATM   15  C22 UNL     1      27.213   4.426  49.095  1.00  0.00     0.008 A 
HETATM   16  C23 UNL     1      26.155   4.815  49.907  1.00  0.00    -0.045 A 
HETATM   17  C24 UNL     1      25.678   3.689  50.573  1.00  0.00     0.073 C 
ENDROOT
BRANCH   7  18
HETATM   18  C16 UNL     1      22.847   7.955  49.768  1.00  0.00     0.401 C 
HETATM   19  O1  UNL     1      23.358   8.933  49.081  1.00  0.00    -0.404 OA
ENDBRANCH   7  18
BRANCH  10  20
HETATM   20  O2  UNL     1      24.701   7.945  50.998  1.00  0.00    -0.386 OA
HETATM   21  H15 UNL     1      25.476   8.159  51.569  1.00  0.00     0.210 HD
ENDBRANCH  10  20
BRANCH   3  22
HETATM   22  C4  UNL     1      23.511   1.073  51.930  1.00  0.00     0.077 C 
BRANCH  22  23
HETATM   23  C5  UNL     1      22.082   0.735  52.041  1.00  0.00    -0.054 A 
HETATM   24  C6  UNL     1      21.570   0.532  53.324  1.00  0.00     0.007 A 
HETATM   25  C7  UNL     1      20.238   0.218  53.476  1.00  0.00     0.001 A 
HETATM   26  C8  UNL     1      19.342   0.085  52.442  1.00  0.00     0.000 A 
HETATM   27  C9  UNL     1      19.858   0.289  51.159  1.00  0.00     0.001 A 
HETATM   28  C10 UNL     1      21.187   0.605  50.975  1.00  0.00     0.007 A 
ENDBRANCH  22  23
ENDBRANCH   3  22
TORSDOF 4
ENDMDL
MODEL 8
REMARK VINA RESULT:      -8.4      2.929      4.000
REMARK  4 active torsions:
REMARK  status: ('A' for Active; 'I' for Inactive)
REMARK    1  A    between atoms: C3_3  and  C4_4 
REMARK    2  A    between atoms: C4_4  and  C5_5 
REMARK    3  A    between atoms: C14_14  and  C16_17 
REMARK    4  A    between atoms: C17_19  and  O2_20 
ROOT
HETATM    1  C1  UNL     1      27.462   4.293  48.875  1.00  0.00     0.044 C 
HETATM    2  C2  UNL     1      26.114   4.315  49.460  1.00  0.00    -0.073 C 
HETATM    3  C3  UNL     1      25.203   5.310  49.190  1.00  0.00    -0.052 C 
HETATM    4  C11 UNL     1      23.793   5.258  49.592  1.00  0.00     0.008 C 
HETATM    5  C12 UNL     1      23.066   4.316  50.192  1.00  0.00     0.012 C 
HETATM    6  C13 UNL     1      22.403   3.158  50.863  1.00  0.00    -0.003 C 
HETATM    7  C14 UNL     1      21.078   3.443  51.219  1.00  0.00     0.077 C 
HETATM    8  C15 UNL     1      19.782   3.596  51.615  1.00  0.00     0.102 C 
HETATM    9  N1  UNL     1      18.689   3.740  51.937  1.00  0.00    -0.191 NA
HETATM   10  C17 UNL     1      23.181   1.947  50.894  1.00  0.00     0.186 C 
HETATM   11  C18 UNL     1      24.396   1.768  51.668  1.00  0.00    -0.019 A 
HETATM   12  C19 UNL     1      24.391   0.905  52.739  1.00  0.00     0.011 A 
HETATM   13  C20 UNL     1      25.565   0.750  53.405  1.00  0.00     0.001 A 
HETATM   14  C21 UNL     1      26.804   1.310  53.212  1.00  0.00     0.001 A 
HETATM   15  C22 UNL     1      26.764   2.185  52.109  1.00  0.00     0.008 A 
HETATM   16  C23 UNL     1      25.601   2.395  51.380  1.00  0.00    -0.045 A 
HETATM   17  C24 UNL     1      25.860   3.362  50.413  1.00  0.00     0.073 C 
ENDROOT
BRANCH   7  18
HETATM   18  C16 UNL     1      21.112   2.290  52.192  1.00  0.00     0.401 C 
HETATM   19  O1  UNL     1      21.004   1.430  53.160  1.00  0.00    -0.404 OA
ENDBRANCH   7  18
BRANCH  10  20
HETATM   20  O2  UNL     1      22.361   0.808  51.100  1.00  0.00    -0.386 OA
HETATM   21  H15 UNL     1      21.407   1.036  50.999  1.00  0.00     0.210 HD
ENDBRANCH  10  20
BRANCH   3  22
HETATM   22  C4  UNL     1      25.683   6.339  48.294  1.00  0.00     0.077 C 
BRANCH  22  23
HETATM   23  C5  UNL     1      26.510   7.415  48.867  1.00  0.00    -0.054 A 
HETATM   24  C6  UNL     1      27.672   7.765  48.177  1.00  0.00     0.007 A 
HETATM   25  C7  UNL     1      28.473   8.769  48.672  1.00  0.00     0.001 A 
HETATM   26  C8  UNL     1      28.220   9.477  49.822  1.00  0.00     0.000 A 
HETATM   27  C9  UNL     1      27.056   9.123  50.512  1.00  0.00     0.001 A 
HETATM   28  C10 UNL     1      26.233   8.124  50.039  1.00  0.00     0.007 A 
ENDBRANCH  22  23
ENDBRANCH   3  22
TORSDOF 4
ENDMDL
MODEL 9
REMARK VINA RESULT:      -8.2      1.882      2.520
REMARK  4 active torsions:
REMARK  status: ('A' for Active; 'I' for Inactive)
REMARK    1  A    between atoms: C3_3  and  C4_4 
REMARK    2  A    between atoms: C4_4  and  C5_5 
REMARK    3  A    between atoms: C14_14  and  C16_17 
REMARK    4  A    between atoms: C17_19  and  O2_20 
ROOT
HETATM    1  C1  UNL     1      26.263   2.901  50.165  1.00  0.00     0.044 C 
HETATM    2  C2  UNL     1      24.990   2.481  50.767  1.00  0.00    -0.073 C 
HETATM    3  C3  UNL     1      23.777   2.992  50.369  1.00  0.00    -0.052 C 
HETATM    4  C11 UNL     1      22.482   2.454  50.802  1.00  0.00     0.008 C 
HETATM    5  C12 UNL     1      22.153   1.402  51.551  1.00  0.00     0.012 C 
HETATM    6  C13 UNL     1      21.966   0.188  52.401  1.00  0.00    -0.003 C 
HETATM    7  C14 UNL     1      20.621  -0.016  52.737  1.00  0.00     0.077 C 
HETATM    8  C15 UNL     1      19.352  -0.324  53.132  1.00  0.00     0.102 C 
HETATM    9  N1  UNL     1      18.277  -0.572  53.450  1.00  0.00    -0.191 NA
HETATM   10  C17 UNL     1      23.151  -0.605  52.598  1.00  0.00     0.186 C 
HETATM   11  C18 UNL     1      24.307  -0.182  53.366  1.00  0.00    -0.019 A 
HETATM   12  C19 UNL     1      24.595  -0.813  54.554  1.00  0.00     0.011 A 
HETATM   13  C20 UNL     1      25.709  -0.398  55.212  1.00  0.00     0.001 A 
HETATM   14  C21 UNL     1      26.640   0.565  54.912  1.00  0.00     0.001 A 
HETATM   15  C22 UNL     1      26.309   1.185  53.692  1.00  0.00     0.008 A 
HETATM   16  C23 UNL     1      25.186   0.816  52.963  1.00  0.00    -0.045 A 
HETATM   17  C24 UNL     1      25.088   1.655  51.857  1.00  0.00     0.073 C 
ENDROOT
BRANCH   7  18
HETATM   18  C16 UNL     1      21.060  -0.909  53.871  1.00  0.00     0.401 C 
HETATM   19  O1  UNL     1      21.238  -1.619  54.946  1.00  0.00    -0.404 OA
ENDBRANCH   7  18
BRANCH  10  20
HETATM   20  O2  UNL     1      22.829  -1.931  52.989  1.00  0.00    -0.386 OA
HETATM   21  H15 UNL     1      23.140  -2.582  52.317  1.00  0.00     0.210 HD
ENDBRANCH  10  20
BRANCH   3  22
HETATM   22  C4  UNL     1      23.855   3.984  49.320  1.00  0.00     0.077 C 
BRANCH  22  23
HETATM   23  C5  UNL     1      23.620   5.391  49.688  1.00  0.00    -0.054 A 
HETATM   24  C6  UNL     1      24.733   6.232  49.745  1.00  0.00     0.007 A 
HETATM   25  C7  UNL     1      24.560   7.557  50.080  1.00  0.00     0.001 A 
HETATM   26  C8  UNL     1      23.350   8.139  50.371  1.00  0.00     0.000 A 
HETATM   27  C9  UNL     1      22.238   7.294  50.314  1.00  0.00     0.001 A 
HETATM   28  C10 UNL     1      22.379   5.964  49.980  1.00  0.00     0.007 A 
ENDBRANCH  22  23
ENDBRANCH   3  22
TORSDOF 4
ENDMDL
