MODEL 1
REMARK VINA RESULT:      -7.7      0.000      0.000
REMARK  3 active torsions:
REMARK  status: ('A' for Active; 'I' for Inactive)
REMARK    1  A    between atoms: C5_7  and  C6_8 
REMARK    2  A    between atoms: C6_8  and  O2_9 
REMARK    3  A    between atoms: O2_9  and  C7_10 
ROOT
HETATM    1  C7  UNL     1      26.958   1.610  52.132  1.00  0.00     0.133 C 
HETATM    2  C8  UNL     1      26.805   0.230  51.579  1.00  0.00     0.091 C 
HETATM    3  C9  UNL     1      26.320  -0.714  52.608  1.00  0.00     0.035 C 
HETATM    4  C10 UNL     1      25.636  -0.960  53.743  1.00  0.00     0.004 C 
HETATM    5  C11 UNL     1      25.694  -0.360  55.118  1.00  0.00     0.058 C 
HETATM    6  C12 UNL     1      26.610   0.809  55.186  1.00  0.00     0.010 C 
HETATM    7  C13 UNL     1      27.641   0.927  54.363  1.00  0.00     0.053 C 
HETATM    8  C14 UNL     1      28.072   1.713  53.181  1.00  0.00     0.097 C 
HETATM    9  O3  UNL     1      28.698   0.054  54.648  1.00  0.00    -0.309 OA
HETATM   10  C15 UNL     1      29.032  -0.867  53.626  1.00  0.00     0.259 C 
HETATM   11  N2  UNL     1      27.945  -1.555  53.576  1.00  0.00    -0.230 NA
HETATM   12  C16 UNL     1      27.772  -2.632  52.678  1.00  0.00     0.235 C 
HETATM   13  N3  UNL     1      26.803  -1.978  52.203  1.00  0.00    -0.247 NA
ENDROOT
BRANCH   1  14
HETATM   14  O2  UNL     1      27.122   2.598  51.167  1.00  0.00    -0.383 OA
BRANCH  14  15
HETATM   15  C6  UNL     1      25.995   3.209  50.726  1.00  0.00     0.204 C 
BRANCH  15  16
HETATM   16  C5  UNL     1      24.813   3.217  51.614  1.00  0.00     0.258 C 
HETATM   17  C2  UNL     1      23.686   2.313  51.150  1.00  0.00     0.026 C 
HETATM   18  C1  UNL     1      23.076   1.284  51.730  1.00  0.00     0.015 C 
HETATM   19  C3  UNL     1      23.137   2.637  49.801  1.00  0.00     0.182 C 
HETATM   20  O1  UNL     1      23.450   3.948  49.544  1.00  0.00    -0.362 OA
HETATM   21  C4  UNL     1      23.316   4.791  50.597  1.00  0.00     0.438 C 
HETATM   22  N1  UNL     1      24.248   4.573  51.678  1.00  0.00     0.114 N 
HETATM   23  H7  UNL     1      25.065   5.208  51.478  1.00  0.00     0.319 HD
ENDBRANCH  15  16
ENDBRANCH  14  15
ENDBRANCH   1  14
TORSDOF 3
ENDMDL
MODEL 2
REMARK VINA RESULT:      -7.4      2.085      6.294
REMARK  3 active torsions:
REMARK  status: ('A' for Active; 'I' for Inactive)
REMARK    1  A    between atoms: C5_7  and  C6_8 
REMARK    2  A    between atoms: C6_8  and  O2_9 
REMARK    3  A    between atoms: O2_9  and  C7_10 
ROOT
HETATM    1  C7  UNL     1      24.221   1.475  52.310  1.00  0.00     0.133 C 
HETATM    2  C8  UNL     1      22.925   1.092  51.671  1.00  0.00     0.091 C 
HETATM    3  C9  UNL     1      22.654   1.907  50.468  1.00  0.00     0.035 C 
HETATM    4  C10 UNL     1      23.094   2.638  49.424  1.00  0.00     0.004 C 
HETATM    5  C11 UNL     1      24.034   3.805  49.322  1.00  0.00     0.058 C 
HETATM    6  C12 UNL     1      24.681   4.125  50.621  1.00  0.00     0.010 C 
HETATM    7  C13 UNL     1      24.093   3.843  51.774  1.00  0.00     0.053 C 
HETATM    8  C14 UNL     1      24.200   2.888  52.905  1.00  0.00     0.097 C 
HETATM    9  O3  UNL     1      23.012   4.679  52.080  1.00  0.00    -0.309 OA
HETATM   10  C15 UNL     1      21.755   4.040  52.216  1.00  0.00     0.259 C 
HETATM   11  N2  UNL     1      21.594   3.598  51.018  1.00  0.00    -0.230 NA
HETATM   12  C16 UNL     1      20.452   2.862  50.631  1.00  0.00     0.235 C 
HETATM   13  N3  UNL     1      21.247   1.925  50.346  1.00  0.00    -0.247 NA
ENDROOT
BRANCH   1  14
HETATM   14  O2  UNL     1      24.680   0.568  53.259  1.00  0.00    -0.383 OA
BRANCH  14  15
HETATM   15  C6  UNL     1      25.912   0.801  53.777  1.00  0.00     0.204 C 
BRANCH  15  16
HETATM   16  C5  UNL     1      27.087   0.581  52.907  1.00  0.00     0.258 C 
HETATM   17  C2  UNL     1      28.177  -0.261  53.543  1.00  0.00     0.026 C 
HETATM   18  C1  UNL     1      28.739  -1.410  53.181  1.00  0.00     0.015 C 
HETATM   19  C3  UNL     1      28.749   0.301  54.802  1.00  0.00     0.182 C 
HETATM   20  O1  UNL     1      28.494   1.649  54.793  1.00  0.00    -0.362 OA
HETATM   21  C4  UNL     1      28.657   2.259  53.593  1.00  0.00     0.438 C 
HETATM   22  N1  UNL     1      27.708   1.871  52.576  1.00  0.00     0.114 N 
HETATM   23  H7  UNL     1      26.921   2.568  52.644  1.00  0.00     0.319 HD
ENDBRANCH  15  16
ENDBRANCH  14  15
ENDBRANCH   1  14
TORSDOF 3
ENDMDL
MODEL 3
REMARK VINA RESULT:      -7.3      1.994      6.222
REMARK  3 active torsions:
REMARK  status: ('A' for Active; 'I' for Inactive)
REMARK    1  A    between atoms: C5_7  and  C6_8 
REMARK    2  A    between atoms: C6_8  and  O2_9 
REMARK    3  A    between atoms: O2_9  and  C7_10 
ROOT
HETATM    1  C7  UNL     1      24.670   2.425  52.103  1.00  0.00     0.133 C 
HETATM    2  C8  UNL     1      23.532   1.743  52.792  1.00  0.00     0.091 C 
HETATM    3  C9  UNL     1      22.446   1.414  51.844  1.00  0.00     0.035 C 
HETATM    4  C10 UNL     1      22.030   1.120  50.596  1.00  0.00     0.004 C 
HETATM    5  C11 UNL     1      22.228   1.795  49.270  1.00  0.00     0.058 C 
HETATM    6  C12 UNL     1      23.165   2.946  49.356  1.00  0.00     0.010 C 
HETATM    7  C13 UNL     1      23.318   3.629  50.481  1.00  0.00     0.053 C 
HETATM    8  C14 UNL     1      24.304   3.816  51.574  1.00  0.00     0.097 C 
HETATM    9  O3  UNL     1      22.235   4.458  50.795  1.00  0.00    -0.309 OA
HETATM   10  C15 UNL     1      21.573   4.175  52.015  1.00  0.00     0.259 C 
HETATM   11  N2  UNL     1      21.117   2.999  51.758  1.00  0.00    -0.230 NA
HETATM   12  C16 UNL     1      20.361   2.260  52.695  1.00  0.00     0.235 C 
HETATM   13  N3  UNL     1      21.271   1.389  52.626  1.00  0.00    -0.247 NA
ENDROOT
BRANCH   1  14
HETATM   14  O2  UNL     1      25.835   2.496  52.860  1.00  0.00    -0.383 OA
BRANCH  14  15
HETATM   15  C6  UNL     1      26.813   1.606  52.558  1.00  0.00     0.204 C 
BRANCH  15  16
HETATM   16  C5  UNL     1      27.507   0.929  53.673  1.00  0.00     0.258 C 
HETATM   17  C2  UNL     1      27.990  -0.471  53.340  1.00  0.00     0.026 C 
HETATM   18  C1  UNL     1      29.200  -1.021  53.354  1.00  0.00     0.015 C 
HETATM   19  C3  UNL     1      26.915  -1.426  52.939  1.00  0.00     0.182 C 
HETATM   20  O1  UNL     1      25.736  -0.938  53.443  1.00  0.00    -0.362 OA
HETATM   21  C4  UNL     1      25.811  -0.424  54.695  1.00  0.00     0.438 C 
HETATM   22  N1  UNL     1      26.592   0.785  54.814  1.00  0.00     0.114 N 
HETATM   23  H7  UNL     1      25.906   1.576  54.702  1.00  0.00     0.319 HD
ENDBRANCH  15  16
ENDBRANCH  14  15
ENDBRANCH   1  14
TORSDOF 3
ENDMDL
MODEL 4
REMARK VINA RESULT:      -7.2      2.686      6.454
REMARK  3 active torsions:
REMARK  status: ('A' for Active; 'I' for Inactive)
REMARK    1  A    between atoms: C5_7  and  C6_8 
REMARK    2  A    between atoms: C6_8  and  O2_9 
REMARK    3  A    between atoms: O2_9  and  C7_10 
ROOT
HETATM    1  C7  UNL     1      23.287   1.560  52.391  1.00  0.00     0.133 C 
HETATM    2  C8  UNL     1      22.079   0.684  52.490  1.00  0.00     0.091 C 
HETATM    3  C9  UNL     1      21.374   0.588  51.193  1.00  0.00     0.035 C 
HETATM    4  C10 UNL     1      21.389   0.627  49.846  1.00  0.00     0.004 C 
HETATM    5  C11 UNL     1      21.898   1.640  48.862  1.00  0.00     0.058 C 
HETATM    6  C12 UNL     1      22.628   2.754  49.523  1.00  0.00     0.010 C 
HETATM    7  C13 UNL     1      22.358   3.113  50.768  1.00  0.00     0.053 C 
HETATM    8  C14 UNL     1      22.940   3.030  52.131  1.00  0.00     0.097 C 
HETATM    9  O3  UNL     1      21.143   3.794  50.912  1.00  0.00    -0.309 OA
HETATM   10  C15 UNL     1      20.181   3.174  51.747  1.00  0.00     0.259 C 
HETATM   11  N2  UNL     1      19.961   2.096  51.078  1.00  0.00    -0.230 NA
HETATM   12  C16 UNL     1      19.047   1.111  51.512  1.00  0.00     0.235 C 
HETATM   13  N3  UNL     1      20.029   0.318  51.527  1.00  0.00    -0.247 NA
ENDROOT
BRANCH   1  14
HETATM   14  O2  UNL     1      24.154   1.461  53.474  1.00  0.00    -0.383 OA
BRANCH  14  15
HETATM   15  C6  UNL     1      25.321   2.146  53.383  1.00  0.00     0.204 C 
BRANCH  15  16
HETATM   16  C5  UNL     1      26.380   1.603  52.506  1.00  0.00     0.258 C 
HETATM   17  C2  UNL     1      26.932   0.265  52.962  1.00  0.00     0.026 C 
HETATM   18  C1  UNL     1      26.990  -0.923  52.366  1.00  0.00     0.015 C 
HETATM   19  C3  UNL     1      27.544   0.269  54.323  1.00  0.00     0.182 C 
HETATM   20  O1  UNL     1      27.888   1.567  54.605  1.00  0.00    -0.362 OA
HETATM   21  C4  UNL     1      28.427   2.260  53.571  1.00  0.00     0.438 C 
HETATM   22  N1  UNL     1      27.523   2.527  52.477  1.00  0.00     0.114 N 
HETATM   23  H7  UNL     1      27.103   3.471  52.682  1.00  0.00     0.319 HD
ENDBRANCH  15  16
ENDBRANCH  14  15
ENDBRANCH   1  14
TORSDOF 3
ENDMDL
MODEL 5
REMARK VINA RESULT:      -7.2      1.897      6.294
REMARK  3 active torsions:
REMARK  status: ('A' for Active; 'I' for Inactive)
REMARK    1  A    between atoms: C5_7  and  C6_8 
REMARK    2  A    between atoms: C6_8  and  O2_9 
REMARK    3  A    between atoms: O2_9  and  C7_10 
ROOT
HETATM    1  C7  UNL     1      24.373   2.626  52.917  1.00  0.00     0.133 C 
HETATM    2  C8  UNL     1      23.788   3.989  52.729  1.00  0.00     0.091 C 
HETATM    3  C9  UNL     1      22.369   3.916  52.322  1.00  0.00     0.035 C 
HETATM    4  C10 UNL     1      21.185   3.272  52.310  1.00  0.00     0.004 C 
HETATM    5  C11 UNL     1      20.789   1.875  51.925  1.00  0.00     0.058 C 
HETATM    6  C12 UNL     1      21.964   1.021  51.610  1.00  0.00     0.010 C 
HETATM    7  C13 UNL     1      23.094   1.542  51.157  1.00  0.00     0.053 C 
HETATM    8  C14 UNL     1      24.477   1.833  51.609  1.00  0.00     0.097 C 
HETATM    9  O3  UNL     1      23.026   1.978  49.828  1.00  0.00    -0.309 OA
HETATM   10  C15 UNL     1      23.259   3.359  49.618  1.00  0.00     0.259 C 
HETATM   11  N2  UNL     1      22.258   3.857  50.255  1.00  0.00    -0.230 NA
HETATM   12  C16 UNL     1      22.037   5.249  50.346  1.00  0.00     0.235 C 
HETATM   13  N3  UNL     1      22.134   5.105  51.596  1.00  0.00    -0.247 NA
ENDROOT
BRANCH   1  14
HETATM   14  O2  UNL     1      25.597   2.616  53.577  1.00  0.00    -0.383 OA
BRANCH  14  15
HETATM   15  C6  UNL     1      26.546   1.780  53.087  1.00  0.00     0.204 C 
BRANCH  15  16
HETATM   16  C5  UNL     1      27.260   0.903  54.039  1.00  0.00     0.258 C 
HETATM   17  C2  UNL     1      27.740  -0.403  53.433  1.00  0.00     0.026 C 
HETATM   18  C1  UNL     1      28.952  -0.939  53.320  1.00  0.00     0.015 C 
HETATM   19  C3  UNL     1      26.661  -1.268  52.872  1.00  0.00     0.182 C 
HETATM   20  O1  UNL     1      25.489  -0.894  53.479  1.00  0.00    -0.362 OA
HETATM   21  C4  UNL     1      25.585  -0.631  54.806  1.00  0.00     0.438 C 
HETATM   22  N1  UNL     1      26.364   0.536  55.145  1.00  0.00     0.114 N 
HETATM   23  H7  UNL     1      25.675   1.330  55.199  1.00  0.00     0.319 HD
ENDBRANCH  15  16
ENDBRANCH  14  15
ENDBRANCH   1  14
TORSDOF 3
ENDMDL
MODEL 6
REMARK VINA RESULT:      -7.1      2.710      6.745
REMARK  3 active torsions:
REMARK  status: ('A' for Active; 'I' for Inactive)
REMARK    1  A    between atoms: C5_7  and  C6_8 
REMARK    2  A    between atoms: C6_8  and  O2_9 
REMARK    3  A    between atoms: O2_9  and  C7_10 
ROOT
HETATM    1  C7  UNL     1      23.049   2.676  51.895  1.00  0.00     0.133 C 
HETATM    2  C8  UNL     1      21.897   3.548  52.280  1.00  0.00     0.091 C 
HETATM    3  C9  UNL     1      20.627   2.793  52.287  1.00  0.00     0.035 C 
HETATM    4  C10 UNL     1      19.954   1.633  52.425  1.00  0.00     0.004 C 
HETATM    5  C11 UNL     1      20.106   0.285  51.783  1.00  0.00     0.058 C 
HETATM    6  C12 UNL     1      21.312   0.204  50.916  1.00  0.00     0.010 C 
HETATM    7  C13 UNL     1      21.816   1.281  50.333  1.00  0.00     0.053 C 
HETATM    8  C14 UNL     1      22.977   2.198  50.440  1.00  0.00     0.097 C 
HETATM    9  O3  UNL     1      21.050   1.757  49.262  1.00  0.00    -0.309 OA
HETATM   10  C15 UNL     1      20.541   3.071  49.401  1.00  0.00     0.259 C 
HETATM   11  N2  UNL     1      19.760   2.906  50.411  1.00  0.00    -0.230 NA
HETATM   12  C16 UNL     1      18.997   3.962  50.957  1.00  0.00     0.235 C 
HETATM   13  N3  UNL     1      19.626   3.756  52.032  1.00  0.00    -0.247 NA
ENDROOT
BRANCH   1  14
HETATM   14  O2  UNL     1      24.297   3.233  52.151  1.00  0.00    -0.383 OA
BRANCH  14  15
HETATM   15  C6  UNL     1      25.157   2.486  52.888  1.00  0.00     0.204 C 
BRANCH  15  16
HETATM   16  C5  UNL     1      26.273   1.815  52.187  1.00  0.00     0.258 C 
HETATM   17  C2  UNL     1      26.639   0.461  52.767  1.00  0.00     0.026 C 
HETATM   18  C1  UNL     1      26.673  -0.755  52.231  1.00  0.00     0.015 C 
HETATM   19  C3  UNL     1      27.061   0.485  54.198  1.00  0.00     0.182 C 
HETATM   20  O1  UNL     1      27.476   1.763  54.474  1.00  0.00    -0.362 OA
HETATM   21  C4  UNL     1      28.207   2.356  53.498  1.00  0.00     0.438 C 
HETATM   22  N1  UNL     1      27.486   2.641  52.281  1.00  0.00     0.114 N 
HETATM   23  H7  UNL     1      27.126   3.625  52.389  1.00  0.00     0.319 HD
ENDBRANCH  15  16
ENDBRANCH  14  15
ENDBRANCH   1  14
TORSDOF 3
ENDMDL
MODEL 7
REMARK VINA RESULT:      -7.1      1.880      3.199
REMARK  3 active torsions:
REMARK  status: ('A' for Active; 'I' for Inactive)
REMARK    1  A    between atoms: C5_7  and  C6_8 
REMARK    2  A    between atoms: C6_8  and  O2_9 
REMARK    3  A    between atoms: O2_9  and  C7_10 
ROOT
HETATM    1  C7  UNL     1      25.799   1.080  51.963  1.00  0.00     0.133 C 
HETATM    2  C8  UNL     1      27.129   1.490  52.507  1.00  0.00     0.091 C 
HETATM    3  C9  UNL     1      27.948   0.315  52.875  1.00  0.00     0.035 C 
HETATM    4  C10 UNL     1      28.276  -0.981  52.711  1.00  0.00     0.004 C 
HETATM    5  C11 UNL     1      27.466  -2.245  52.707  1.00  0.00     0.058 C 
HETATM    6  C12 UNL     1      26.005  -1.980  52.786  1.00  0.00     0.010 C 
HETATM    7  C13 UNL     1      25.532  -0.888  53.365  1.00  0.00     0.053 C 
HETATM    8  C14 UNL     1      24.904   0.409  53.012  1.00  0.00     0.097 C 
HETATM    9  O3  UNL     1      25.629  -0.898  54.762  1.00  0.00    -0.309 OA
HETATM   10  C15 UNL     1      26.421   0.127  55.334  1.00  0.00     0.259 C 
HETATM   11  N2  UNL     1      27.574  -0.179  54.850  1.00  0.00    -0.230 NA
HETATM   12  C16 UNL     1      28.737   0.570  55.134  1.00  0.00     0.235 C 
HETATM   13  N3  UNL     1      28.814   0.776  53.891  1.00  0.00    -0.247 NA
ENDROOT
BRANCH   1  14
HETATM   14  O2  UNL     1      25.101   2.102  51.328  1.00  0.00    -0.383 OA
BRANCH  14  15
HETATM   15  C6  UNL     1      25.820   3.192  50.961  1.00  0.00     0.204 C 
BRANCH  15  16
HETATM   16  C5  UNL     1      25.826   3.573  49.532  1.00  0.00     0.258 C 
HETATM   17  C2  UNL     1      26.374   4.964  49.268  1.00  0.00     0.026 C 
HETATM   18  C1  UNL     1      27.392   5.392  48.527  1.00  0.00     0.015 C 
HETATM   19  C3  UNL     1      25.633   6.069  49.943  1.00  0.00     0.182 C 
HETATM   20  O1  UNL     1      24.375   5.598  50.222  1.00  0.00    -0.362 OA
HETATM   21  C4  UNL     1      23.811   4.843  49.247  1.00  0.00     0.438 C 
HETATM   22  N1  UNL     1      24.452   3.571  49.011  1.00  0.00     0.114 N 
HETATM   23  H7  UNL     1      23.941   2.880  49.621  1.00  0.00     0.319 HD
ENDBRANCH  15  16
ENDBRANCH  14  15
ENDBRANCH   1  14
TORSDOF 3
ENDMDL
MODEL 8
REMARK VINA RESULT:      -6.9      2.740      6.713
REMARK  3 active torsions:
REMARK  status: ('A' for Active; 'I' for Inactive)
REMARK    1  A    between atoms: C5_7  and  C6_8 
REMARK    2  A    between atoms: C6_8  and  O2_9 
REMARK    3  A    between atoms: O2_9  and  C7_10 
ROOT
HETATM    1  C7  UNL     1      22.607   0.904  52.117  1.00  0.00     0.133 C 
HETATM    2  C8  UNL     1      21.273   0.457  51.614  1.00  0.00     0.091 C 
HETATM    3  C9  UNL     1      21.061   0.865  50.209  1.00  0.00     0.035 C 
HETATM    4  C10 UNL     1      21.551   1.180  48.993  1.00  0.00     0.004 C 
HETATM    5  C11 UNL     1      22.592   2.161  48.538  1.00  0.00     0.058 C 
HETATM    6  C12 UNL     1      23.285   2.820  49.676  1.00  0.00     0.010 C 
HETATM    7  C13 UNL     1      22.690   2.977  50.849  1.00  0.00     0.053 C 
HETATM    8  C14 UNL     1      22.726   2.429  52.227  1.00  0.00     0.097 C 
HETATM    9  O3  UNL     1      21.695   3.962  50.854  1.00  0.00    -0.309 OA
HETATM   10  C15 UNL     1      20.387   3.519  51.168  1.00  0.00     0.259 C 
HETATM   11  N2  UNL     1      20.169   2.733  50.172  1.00  0.00    -0.230 NA
HETATM   12  C16 UNL     1      18.958   2.021  50.023  1.00  0.00     0.235 C 
HETATM   13  N3  UNL     1      19.660   0.973  50.065  1.00  0.00    -0.247 NA
ENDROOT
BRANCH   1  14
HETATM   14  O2  UNL     1      22.995   0.310  53.313  1.00  0.00    -0.383 OA
BRANCH  14  15
HETATM   15  C6  UNL     1      24.082  -0.500  53.265  1.00  0.00     0.204 C 
BRANCH  15  16
HETATM   16  C5  UNL     1      25.301  -0.074  53.985  1.00  0.00     0.258 C 
HETATM   17  C2  UNL     1      26.018   1.099  53.342  1.00  0.00     0.026 C 
HETATM   18  C1  UNL     1      26.333   2.307  53.799  1.00  0.00     0.015 C 
HETATM   19  C3  UNL     1      26.478   0.862  51.943  1.00  0.00     0.182 C 
HETATM   20  O1  UNL     1      26.571  -0.496  51.775  1.00  0.00    -0.362 OA
HETATM   21  C4  UNL     1      27.090  -1.175  52.828  1.00  0.00     0.438 C 
HETATM   22  N1  UNL     1      26.271  -1.178  54.017  1.00  0.00     0.114 N 
HETATM   23  H7  UNL     1      25.682  -2.048  53.951  1.00  0.00     0.319 HD
ENDBRANCH  15  16
ENDBRANCH  14  15
ENDBRANCH   1  14
TORSDOF 3
ENDMDL
MODEL 9
REMARK VINA RESULT:      -6.9      1.671      2.626
REMARK  3 active torsions:
REMARK  status: ('A' for Active; 'I' for Inactive)
REMARK    1  A    between atoms: C5_7  and  C6_8 
REMARK    2  A    between atoms: C6_8  and  O2_9 
REMARK    3  A    between atoms: O2_9  and  C7_10 
ROOT
HETATM    1  C7  UNL     1      25.534   1.003  51.994  1.00  0.00     0.133 C 
HETATM    2  C8  UNL     1      26.869   1.502  52.444  1.00  0.00     0.091 C 
HETATM    3  C9  UNL     1      27.777   0.385  52.782  1.00  0.00     0.035 C 
HETATM    4  C10 UNL     1      28.171  -0.894  52.622  1.00  0.00     0.004 C 
HETATM    5  C11 UNL     1      27.439  -2.202  52.695  1.00  0.00     0.058 C 
HETATM    6  C12 UNL     1      25.972  -2.021  52.862  1.00  0.00     0.010 C 
HETATM    7  C13 UNL     1      25.473  -0.944  53.449  1.00  0.00     0.053 C 
HETATM    8  C14 UNL     1      24.748   0.306  53.111  1.00  0.00     0.097 C 
HETATM    9  O3  UNL     1      25.658  -0.916  54.836  1.00  0.00    -0.309 OA
HETATM   10  C15 UNL     1      26.422   0.166  55.337  1.00  0.00     0.259 C 
HETATM   11  N2  UNL     1      27.558  -0.085  54.786  1.00  0.00    -0.230 NA
HETATM   12  C16 UNL     1      28.690   0.738  54.980  1.00  0.00     0.235 C 
HETATM   13  N3  UNL     1      28.676   0.918  53.731  1.00  0.00    -0.247 NA
ENDROOT
BRANCH   1  14
HETATM   14  O2  UNL     1      24.739   1.968  51.385  1.00  0.00    -0.383 OA
BRANCH  14  15
HETATM   15  C6  UNL     1      24.876   3.241  51.834  1.00  0.00     0.204 C 
BRANCH  15  16
HETATM   16  C5  UNL     1      23.728   3.862  52.528  1.00  0.00     0.258 C 
HETATM   17  C2  UNL     1      22.400   3.665  51.822  1.00  0.00     0.026 C 
HETATM   18  C1  UNL     1      21.260   3.102  52.211  1.00  0.00     0.015 C 
HETATM   19  C3  UNL     1      22.338   4.219  50.437  1.00  0.00     0.182 C 
HETATM   20  O1  UNL     1      23.313   5.179  50.344  1.00  0.00    -0.362 OA
HETATM   21  C4  UNL     1      23.445   5.976  51.433  1.00  0.00     0.438 C 
HETATM   22  N1  UNL     1      23.931   5.315  52.620  1.00  0.00     0.114 N 
HETATM   23  H7  UNL     1      24.977   5.436  52.603  1.00  0.00     0.319 HD
ENDBRANCH  15  16
ENDBRANCH  14  15
ENDBRANCH   1  14
TORSDOF 3
ENDMDL
