MODEL 1
REMARK VINA RESULT:      -8.5      0.000      0.000
REMARK  2 active torsions:
REMARK  status: ('A' for Active; 'I' for Inactive)
REMARK    1  A    between atoms: O1_2  and  C2_3 
REMARK    2  A    between atoms: C15_21  and  N4_22 
ROOT
HETATM    1  C2  UNL     1      20.666   2.823  51.985  1.00  0.00     0.079 C 
HETATM    2  C3  UNL     1      20.219   2.052  52.956  1.00  0.00     0.036 C 
HETATM    3  C4  UNL     1      20.617   0.835  53.664  1.00  0.00     0.027 C 
HETATM    4  C5  UNL     1      21.579  -0.075  53.701  1.00  0.00     0.065 C 
HETATM    5 CL1  UNL     1      21.707  -1.465  54.750  1.00  0.00    -0.084 Cl
HETATM    6  C6  UNL     1      22.868  -0.377  53.037  1.00  0.00     0.316 C 
HETATM    7  F1  UNL     1      22.929  -1.707  52.702  1.00  0.00    -0.221 F 
HETATM    8  N1  UNL     1      23.961  -0.046  53.906  1.00  0.00    -0.339 N 
HETATM    9  C7  UNL     1      25.352  -0.035  53.635  1.00  0.00     0.139 A 
HETATM   10  N2  UNL     1      26.333  -0.889  53.970  1.00  0.00    -0.224 NA
HETATM   11  C8  UNL     1      27.617  -0.654  53.582  1.00  0.00     0.234 A 
HETATM   12  N3  UNL     1      28.064   0.386  52.859  1.00  0.00    -0.253 NA
HETATM   13  C9  UNL     1      27.125   1.297  52.481  1.00  0.00     0.133 A 
HETATM   14  C10 UNL     1      25.834   1.040  52.885  1.00  0.00     0.027 A 
HETATM   15  C11 UNL     1      24.864   2.050  52.481  1.00  0.00     0.013 C 
HETATM   16  C12 UNL     1      24.069   3.040  52.800  1.00  0.00    -0.026 C 
HETATM   17  C13 UNL     1      23.109   4.132  52.779  1.00  0.00     0.029 C 
HETATM   18  C14 UNL     1      22.497   4.299  51.397  1.00  0.00     0.046 C 
HETATM   19  C15 UNL     1      21.736   3.022  51.011  1.00  0.00     0.279 C 
HETATM   20  H7  UNL     1      24.077   0.258  54.896  1.00  0.00     0.164 HD
ENDROOT
BRANCH  19  21
HETATM   21  N4  UNL     1      21.333   3.186  49.640  1.00  0.00     0.103 N 
HETATM   22  C16 UNL     1      22.389   3.817  48.881  1.00  0.00     0.299 C 
HETATM   23  C17 UNL     1      22.298   3.392  47.435  1.00  0.00     0.198 C 
HETATM   24  O2  UNL     1      22.652   2.043  47.411  1.00  0.00    -0.388 OA
HETATM   25  C18 UNL     1      21.817   1.261  48.159  1.00  0.00     0.198 C 
HETATM   26  C19 UNL     1      20.839   1.988  49.030  1.00  0.00     0.299 C 
ENDBRANCH  19  21
BRANCH   1  27
HETATM   27  O1  UNL     1      19.916   3.940  51.632  1.00  0.00    -0.358 OA
HETATM   28  C1  UNL     1      18.534   3.920  51.337  1.00  0.00     0.209 C 
ENDBRANCH   1  27
TORSDOF 2
ENDMDL
MODEL 2
REMARK VINA RESULT:      -8.1      2.872      5.666
REMARK  2 active torsions:
REMARK  status: ('A' for Active; 'I' for Inactive)
REMARK    1  A    between atoms: O1_2  and  C2_3 
REMARK    2  A    between atoms: C15_21  and  N4_22 
ROOT
HETATM    1  C2  UNL     1      23.920   2.003  51.463  1.00  0.00     0.079 C 
HETATM    2  C3  UNL     1      24.282   1.009  52.248  1.00  0.00     0.036 C 
HETATM    3  C4  UNL     1      23.689   0.135  53.259  1.00  0.00     0.027 C 
HETATM    4  C5  UNL     1      22.542  -0.104  53.878  1.00  0.00     0.065 C 
HETATM    5 CL1  UNL     1      22.207  -1.305  55.101  1.00  0.00    -0.084 Cl
HETATM    6  C6  UNL     1      21.142   0.380  53.879  1.00  0.00     0.316 C 
HETATM    7  F1  UNL     1      20.704   0.561  55.168  1.00  0.00    -0.221 F 
HETATM    8  N1  UNL     1      20.292  -0.562  53.207  1.00  0.00    -0.339 N 
HETATM    9  C7  UNL     1      18.926  -0.442  52.850  1.00  0.00     0.139 A 
HETATM   10  N2  UNL     1      17.814  -0.972  53.387  1.00  0.00    -0.224 NA
HETATM   11  C8  UNL     1      16.592  -0.702  52.853  1.00  0.00     0.234 A 
HETATM   12  N3  UNL     1      16.330   0.076  51.790  1.00  0.00    -0.253 NA
HETATM   13  C9  UNL     1      17.410   0.650  51.191  1.00  0.00     0.133 A 
HETATM   14  C10 UNL     1      18.636   0.363  51.747  1.00  0.00     0.027 A 
HETATM   15  C11 UNL     1      19.766   0.975  51.062  1.00  0.00     0.013 C 
HETATM   16  C12 UNL     1      20.821   0.854  50.296  1.00  0.00    -0.026 C 
HETATM   17  C13 UNL     1      22.013   1.096  49.500  1.00  0.00     0.029 C 
HETATM   18  C14 UNL     1      22.459   2.546  49.606  1.00  0.00     0.046 C 
HETATM   19  C15 UNL     1      22.815   2.872  51.064  1.00  0.00     0.279 C 
HETATM   20  H7  UNL     1      20.389  -1.519  52.809  1.00  0.00     0.164 HD
ENDROOT
BRANCH  19  21
HETATM   21  N4  UNL     1      23.061   4.288  51.117  1.00  0.00     0.103 N 
HETATM   22  C16 UNL     1      23.246   4.813  49.783  1.00  0.00     0.299 C 
HETATM   23  C17 UNL     1      22.829   6.263  49.746  1.00  0.00     0.198 C 
HETATM   24  O2  UNL     1      21.442   6.265  49.900  1.00  0.00    -0.388 OA
HETATM   25  C18 UNL     1      21.037   5.714  51.083  1.00  0.00     0.198 C 
HETATM   26  C19 UNL     1      22.096   5.020  51.881  1.00  0.00     0.299 C 
ENDBRANCH  19  21
BRANCH   1  27
HETATM   27  O1  UNL     1      24.874   2.554  50.614  1.00  0.00    -0.358 OA
HETATM   28  C1  UNL     1      26.263   2.574  50.870  1.00  0.00     0.209 C 
ENDBRANCH   1  27
TORSDOF 2
ENDMDL
MODEL 3
REMARK VINA RESULT:      -7.6      2.814      5.205
REMARK  2 active torsions:
REMARK  status: ('A' for Active; 'I' for Inactive)
REMARK    1  A    between atoms: O1_2  and  C2_3 
REMARK    2  A    between atoms: C15_21  and  N4_22 
ROOT
HETATM    1  C2  UNL     1      25.595   3.764  50.025  1.00  0.00     0.079 C 
HETATM    2  C3  UNL     1      26.517   2.884  50.361  1.00  0.00     0.036 C 
HETATM    3  C4  UNL     1      26.708   1.809  51.334  1.00  0.00     0.027 C 
HETATM    4  C5  UNL     1      26.090   1.191  52.328  1.00  0.00     0.065 C 
HETATM    5 CL1  UNL     1      26.681  -0.128  53.310  1.00  0.00    -0.084 Cl
HETATM    6  C6  UNL     1      24.788   1.217  53.034  1.00  0.00     0.316 C 
HETATM    7  F1  UNL     1      24.984   1.174  54.392  1.00  0.00    -0.221 F 
HETATM    8  N1  UNL     1      23.981   0.102  52.626  1.00  0.00    -0.339 N 
HETATM    9  C7  UNL     1      22.628  -0.186  52.930  1.00  0.00     0.139 A 
HETATM   10  N2  UNL     1      22.072  -1.065  53.780  1.00  0.00    -0.224 NA
HETATM   11  C8  UNL     1      20.718  -1.154  53.896  1.00  0.00     0.234 A 
HETATM   12  N3  UNL     1      19.802  -0.431  53.231  1.00  0.00    -0.253 NA
HETATM   13  C9  UNL     1      20.291   0.484  52.348  1.00  0.00     0.133 A 
HETATM   14  C10 UNL     1      21.662   0.556  52.247  1.00  0.00     0.027 A 
HETATM   15  C11 UNL     1      22.144   1.529  51.275  1.00  0.00     0.013 C 
HETATM   16  C12 UNL     1      22.702   1.786  50.119  1.00  0.00    -0.026 C 
HETATM   17  C13 UNL     1      23.275   2.433  48.950  1.00  0.00     0.029 C 
HETATM   18  C14 UNL     1      23.346   3.941  49.137  1.00  0.00     0.046 C 
HETATM   19  C15 UNL     1      24.259   4.272  50.327  1.00  0.00     0.279 C 
HETATM   20  H7  UNL     1      24.110  -0.753  52.045  1.00  0.00     0.164 HD
ENDROOT
BRANCH  19  21
HETATM   21  N4  UNL     1      24.145   5.687  50.547  1.00  0.00     0.103 N 
HETATM   22  C16 UNL     1      23.678   6.344  49.348  1.00  0.00     0.299 C 
HETATM   23  C17 UNL     1      22.929   7.602  49.716  1.00  0.00     0.198 C 
HETATM   24  O2  UNL     1      21.749   7.180  50.328  1.00  0.00    -0.388 OA
HETATM   25  C18 UNL     1      21.970   6.444  51.459  1.00  0.00     0.198 C 
HETATM   26  C19 UNL     1      23.388   6.038  51.712  1.00  0.00     0.299 C 
ENDBRANCH  19  21
BRANCH   1  27
HETATM   27  O1  UNL     1      25.865   4.634  48.974  1.00  0.00    -0.358 OA
HETATM   28  C1  UNL     1      27.144   5.143  48.659  1.00  0.00     0.209 C 
ENDBRANCH   1  27
TORSDOF 2
ENDMDL
MODEL 4
REMARK VINA RESULT:      -7.2      4.651      6.542
REMARK  2 active torsions:
REMARK  status: ('A' for Active; 'I' for Inactive)
REMARK    1  A    between atoms: O1_2  and  C2_3 
REMARK    2  A    between atoms: C15_21  and  N4_22 
ROOT
HETATM    1  C2  UNL     1      21.735   3.596  51.208  1.00  0.00     0.079 C 
HETATM    2  C3  UNL     1      21.043   4.669  50.880  1.00  0.00     0.036 C 
HETATM    3  C4  UNL     1      21.284   6.074  50.556  1.00  0.00     0.027 C 
HETATM    4  C5  UNL     1      22.265   6.955  50.429  1.00  0.00     0.065 C 
HETATM    5 CL1  UNL     1      22.147   8.645  50.004  1.00  0.00    -0.084 Cl
HETATM    6  C6  UNL     1      23.742   7.015  50.518  1.00  0.00     0.316 C 
HETATM    7  F1  UNL     1      24.129   8.115  51.242  1.00  0.00    -0.221 F 
HETATM    8  N1  UNL     1      24.315   7.075  49.202  1.00  0.00    -0.339 N 
HETATM    9  C7  UNL     1      25.674   7.000  48.812  1.00  0.00     0.139 A 
HETATM   10  N2  UNL     1      26.541   7.944  48.409  1.00  0.00    -0.224 NA
HETATM   11  C8  UNL     1      27.821   7.615  48.082  1.00  0.00     0.234 A 
HETATM   12  N3  UNL     1      28.371   6.390  48.110  1.00  0.00    -0.253 NA
HETATM   13  C9  UNL     1      27.551   5.377  48.509  1.00  0.00     0.133 A 
HETATM   14  C10 UNL     1      26.262   5.733  48.834  1.00  0.00     0.027 A 
HETATM   15  C11 UNL     1      25.412   4.619  49.232  1.00  0.00     0.013 C 
HETATM   16  C12 UNL     1      24.421   3.806  48.965  1.00  0.00    -0.026 C 
HETATM   17  C13 UNL     1      23.409   2.764  49.013  1.00  0.00     0.029 C 
HETATM   18  C14 UNL     1      23.409   2.060  50.362  1.00  0.00     0.046 C 
HETATM   19  C15 UNL     1      23.072   3.067  51.471  1.00  0.00     0.279 C 
HETATM   20  H7  UNL     1      23.963   7.179  48.228  1.00  0.00     0.164 HD
ENDROOT
BRANCH  19  21
HETATM   21  N4  UNL     1      23.255   2.378  52.718  1.00  0.00     0.103 N 
HETATM   22  C16 UNL     1      23.325   0.952  52.496  1.00  0.00     0.299 C 
HETATM   23  C17 UNL     1      24.156   0.308  53.579  1.00  0.00     0.198 C 
HETATM   24  O2  UNL     1      25.467   0.729  53.355  1.00  0.00    -0.388 OA
HETATM   25  C18 UNL     1      25.610   2.087  53.429  1.00  0.00     0.198 C 
HETATM   26  C19 UNL     1      24.342   2.878  53.508  1.00  0.00     0.299 C 
ENDBRANCH  19  21
BRANCH   1  27
HETATM   27  O1  UNL     1      21.046   2.409  51.430  1.00  0.00    -0.358 OA
HETATM   28  C1  UNL     1      19.651   2.247  51.272  1.00  0.00     0.209 C 
ENDBRANCH   1  27
TORSDOF 2
ENDMDL
MODEL 5
REMARK VINA RESULT:      -7.0      4.177      5.530
REMARK  2 active torsions:
REMARK  status: ('A' for Active; 'I' for Inactive)
REMARK    1  A    between atoms: O1_2  and  C2_3 
REMARK    2  A    between atoms: C15_21  and  N4_22 
ROOT
HETATM    1  C2  UNL     1      21.897   4.091  50.991  1.00  0.00     0.079 C 
HETATM    2  C3  UNL     1      22.763   3.493  51.785  1.00  0.00     0.036 C 
HETATM    3  C4  UNL     1      24.178   3.127  51.789  1.00  0.00     0.027 C 
HETATM    4  C5  UNL     1      25.270   3.203  51.043  1.00  0.00     0.065 C 
HETATM    5 CL1  UNL     1      26.872   2.614  51.414  1.00  0.00    -0.084 Cl
HETATM    6  C6  UNL     1      25.705   3.749  49.736  1.00  0.00     0.316 C 
HETATM    7  F1  UNL     1      26.459   2.821  49.062  1.00  0.00    -0.221 F 
HETATM    8  N1  UNL     1      26.471   4.948  49.931  1.00  0.00    -0.339 N 
HETATM    9  C7  UNL     1      26.956   5.868  48.969  1.00  0.00     0.139 A 
HETATM   10  N2  UNL     1      28.186   6.067  48.466  1.00  0.00    -0.224 NA
HETATM   11  C8  UNL     1      28.403   7.034  47.533  1.00  0.00     0.234 A 
HETATM   12  N3  UNL     1      27.492   7.872  47.012  1.00  0.00    -0.253 NA
HETATM   13  C9  UNL     1      26.219   7.731  47.475  1.00  0.00     0.133 A 
HETATM   14  C10 UNL     1      26.022   6.748  48.419  1.00  0.00     0.027 A 
HETATM   15  C11 UNL     1      24.653   6.646  48.906  1.00  0.00     0.013 C 
HETATM   16  C12 UNL     1      23.782   6.824  49.867  1.00  0.00    -0.026 C 
HETATM   17  C13 UNL     1      22.575   6.875  50.676  1.00  0.00     0.029 C 
HETATM   18  C14 UNL     1      21.403   6.227  49.955  1.00  0.00     0.046 C 
HETATM   19  C15 UNL     1      21.711   4.744  49.698  1.00  0.00     0.279 C 
HETATM   20  H7  UNL     1      26.870   5.468  50.740  1.00  0.00     0.164 HD
ENDROOT
BRANCH  19  21
HETATM   21  N4  UNL     1      20.645   4.243  48.873  1.00  0.00     0.103 N 
HETATM   22  C16 UNL     1      20.034   5.325  48.135  1.00  0.00     0.299 C 
HETATM   23  C17 UNL     1      19.452   4.795  46.847  1.00  0.00     0.198 C 
HETATM   24  O2  UNL     1      20.542   4.443  46.051  1.00  0.00    -0.388 OA
HETATM   25  C18 UNL     1      21.325   3.476  46.618  1.00  0.00     0.198 C 
HETATM   26  C19 UNL     1      21.020   3.136  48.044  1.00  0.00     0.299 C 
ENDBRANCH  19  21
BRANCH   1  27
HETATM   27  O1  UNL     1      20.584   4.227  51.430  1.00  0.00    -0.358 OA
HETATM   28  C1  UNL     1      19.832   3.201  52.046  1.00  0.00     0.209 C 
ENDBRANCH   1  27
TORSDOF 2
ENDMDL
MODEL 6
REMARK VINA RESULT:      -7.0      3.516      5.411
REMARK  2 active torsions:
REMARK  status: ('A' for Active; 'I' for Inactive)
REMARK    1  A    between atoms: O1_2  and  C2_3 
REMARK    2  A    between atoms: C15_21  and  N4_22 
ROOT
HETATM    1  C2  UNL     1      21.756   1.644  51.592  1.00  0.00     0.079 C 
HETATM    2  C3  UNL     1      22.951   1.263  51.995  1.00  0.00     0.036 C 
HETATM    3  C4  UNL     1      24.350   1.634  51.789  1.00  0.00     0.027 C 
HETATM    4  C5  UNL     1      25.106   2.499  51.129  1.00  0.00     0.065 C 
HETATM    5 CL1  UNL     1      26.848   2.636  51.140  1.00  0.00    -0.084 Cl
HETATM    6  C6  UNL     1      24.958   3.649  50.207  1.00  0.00     0.316 C 
HETATM    7  F1  UNL     1      25.839   3.534  49.160  1.00  0.00    -0.221 F 
HETATM    8  N1  UNL     1      25.198   4.879  50.909  1.00  0.00    -0.339 N 
HETATM    9  C7  UNL     1      25.026   6.213  50.464  1.00  0.00     0.139 A 
HETATM   10  N2  UNL     1      25.912   7.144  50.072  1.00  0.00    -0.224 NA
HETATM   11  C8  UNL     1      25.491   8.379  49.681  1.00  0.00     0.234 A 
HETATM   12  N3  UNL     1      24.223   8.821  49.631  1.00  0.00    -0.253 NA
HETATM   13  C9  UNL     1      23.266   7.931  50.015  1.00  0.00     0.133 A 
HETATM   14  C10 UNL     1      23.714   6.689  50.407  1.00  0.00     0.027 A 
HETATM   15  C11 UNL     1      22.662   5.776  50.833  1.00  0.00     0.013 C 
HETATM   16  C12 UNL     1      22.050   5.131  51.794  1.00  0.00    -0.026 C 
HETATM   17  C13 UNL     1      21.156   4.288  52.571  1.00  0.00     0.029 C 
HETATM   18  C14 UNL     1      20.211   3.511  51.668  1.00  0.00     0.046 C 
HETATM   19  C15 UNL     1      21.020   2.584  50.749  1.00  0.00     0.279 C 
HETATM   20  H7  UNL     1      25.533   5.159  51.854  1.00  0.00     0.164 HD
ENDROOT
BRANCH  19  21
HETATM   21  N4  UNL     1      20.084   2.014  49.819  1.00  0.00     0.103 N 
HETATM   22  C16 UNL     1      18.830   2.730  49.869  1.00  0.00     0.299 C 
HETATM   23  C17 UNL     1      18.137   2.634  48.531  1.00  0.00     0.198 C 
HETATM   24  O2  UNL     1      18.903   3.396  47.649  1.00  0.00    -0.388 OA
HETATM   25  C18 UNL     1      20.183   2.934  47.522  1.00  0.00     0.198 C 
HETATM   26  C19 UNL     1      20.597   1.869  48.489  1.00  0.00     0.299 C 
ENDBRANCH  19  21
BRANCH   1  27
HETATM   27  O1  UNL     1      20.646   0.964  52.083  1.00  0.00    -0.358 OA
HETATM   28  C1  UNL     1      20.659   0.109  53.207  1.00  0.00     0.209 C 
ENDBRANCH   1  27
TORSDOF 2
ENDMDL
MODEL 7
REMARK VINA RESULT:      -7.0      4.896      7.911
REMARK  2 active torsions:
REMARK  status: ('A' for Active; 'I' for Inactive)
REMARK    1  A    between atoms: O1_2  and  C2_3 
REMARK    2  A    between atoms: C15_21  and  N4_22 
ROOT
HETATM    1  C2  UNL     1      25.021   3.681  50.088  1.00  0.00     0.079 C 
HETATM    2  C3  UNL     1      26.042   4.417  49.699  1.00  0.00     0.036 C 
HETATM    3  C4  UNL     1      26.285   5.654  48.957  1.00  0.00     0.027 C 
HETATM    4  C5  UNL     1      25.645   6.628  48.328  1.00  0.00     0.065 C 
HETATM    5 CL1  UNL     1      26.325   8.017  47.517  1.00  0.00    -0.084 Cl
HETATM    6  C6  UNL     1      24.257   7.051  48.026  1.00  0.00     0.316 C 
HETATM    7  F1  UNL     1      24.150   7.418  46.707  1.00  0.00    -0.221 F 
HETATM    8  N1  UNL     1      23.882   8.152  48.868  1.00  0.00    -0.339 N 
HETATM    9  C7  UNL     1      22.618   8.773  49.022  1.00  0.00     0.139 A 
HETATM   10  N2  UNL     1      22.136   9.941  48.564  1.00  0.00    -0.224 NA
HETATM   11  C8  UNL     1      20.862  10.324  48.854  1.00  0.00     0.234 A 
HETATM   12  N3  UNL     1      19.961   9.645  49.583  1.00  0.00    -0.253 NA
HETATM   13  C9  UNL     1      20.378   8.448  50.082  1.00  0.00     0.133 A 
HETATM   14  C10 UNL     1      21.670   8.081  49.778  1.00  0.00     0.027 A 
HETATM   15  C11 UNL     1      22.084   6.807  50.351  1.00  0.00     0.013 C 
HETATM   16  C12 UNL     1      22.800   6.143  51.223  1.00  0.00    -0.026 C 
HETATM   17  C13 UNL     1      23.429   5.105  52.023  1.00  0.00     0.029 C 
HETATM   18  C14 UNL     1      23.061   3.720  51.514  1.00  0.00     0.046 C 
HETATM   19  C15 UNL     1      23.566   3.548  50.074  1.00  0.00     0.279 C 
HETATM   20  H7  UNL     1      24.355   8.776  49.554  1.00  0.00     0.164 HD
ENDROOT
BRANCH  19  21
HETATM   21  N4  UNL     1      23.041   2.295  49.604  1.00  0.00     0.103 N 
HETATM   22  C16 UNL     1      21.983   1.839  50.476  1.00  0.00     0.299 C 
HETATM   23  C17 UNL     1      21.015   0.982  49.695  1.00  0.00     0.198 C 
HETATM   24  O2  UNL     1      20.357   1.849  48.823  1.00  0.00    -0.388 OA
HETATM   25  C18 UNL     1      21.205   2.473  47.951  1.00  0.00     0.198 C 
HETATM   26  C19 UNL     1      22.667   2.301  48.221  1.00  0.00     0.299 C 
ENDBRANCH  19  21
BRANCH   1  27
HETATM   27  O1  UNL     1      25.282   2.525  50.816  1.00  0.00    -0.358 OA
HETATM   28  C1  UNL     1      26.515   2.226  51.438  1.00  0.00     0.209 C 
ENDBRANCH   1  27
TORSDOF 2
ENDMDL
MODEL 8
REMARK VINA RESULT:      -6.8      4.360      7.134
REMARK  2 active torsions:
REMARK  status: ('A' for Active; 'I' for Inactive)
REMARK    1  A    between atoms: O1_2  and  C2_3 
REMARK    2  A    between atoms: C15_21  and  N4_22 
ROOT
HETATM    1  C2  UNL     1      22.774   4.535  51.692  1.00  0.00     0.079 C 
HETATM    2  C3  UNL     1      21.597   4.097  52.092  1.00  0.00     0.036 C 
HETATM    3  C4  UNL     1      20.238   3.965  51.569  1.00  0.00     0.027 C 
HETATM    4  C5  UNL     1      19.520   4.198  50.481  1.00  0.00     0.065 C 
HETATM    5 CL1  UNL     1      17.821   3.884  50.224  1.00  0.00    -0.084 Cl
HETATM    6  C6  UNL     1      19.696   4.725  49.107  1.00  0.00     0.316 C 
HETATM    7  F1  UNL     1      18.691   5.611  48.807  1.00  0.00    -0.221 F 
HETATM    8  N1  UNL     1      19.690   3.646  48.160  1.00  0.00    -0.339 N 
HETATM    9  C7  UNL     1      19.967   3.671  46.771  1.00  0.00     0.139 A 
HETATM   10  N2  UNL     1      19.160   3.614  45.698  1.00  0.00    -0.224 NA
HETATM   11  C8  UNL     1      19.677   3.656  44.440  1.00  0.00     0.234 A 
HETATM   12  N3  UNL     1      20.974   3.755  44.104  1.00  0.00    -0.253 NA
HETATM   13  C9  UNL     1      21.856   3.817  45.140  1.00  0.00     0.133 A 
HETATM   14  C10 UNL     1      21.311   3.772  46.404  1.00  0.00     0.027 A 
HETATM   15  C11 UNL     1      22.288   3.817  47.483  1.00  0.00     0.013 C 
HETATM   16  C12 UNL     1      22.927   3.209  48.451  1.00  0.00    -0.026 C 
HETATM   17  C13 UNL     1      23.798   2.878  49.567  1.00  0.00     0.029 C 
HETATM   18  C14 UNL     1      24.531   4.111  50.076  1.00  0.00     0.046 C 
HETATM   19  C15 UNL     1      23.514   5.141  50.588  1.00  0.00     0.279 C 
HETATM   20  H7  UNL     1      19.504   2.621  48.180  1.00  0.00     0.164 HD
ENDROOT
BRANCH  19  21
HETATM   21  N4  UNL     1      24.258   6.333  50.891  1.00  0.00     0.103 N 
HETATM   22  C16 UNL     1      25.462   6.387  50.094  1.00  0.00     0.299 C 
HETATM   23  C17 UNL     1      25.864   7.826  49.877  1.00  0.00     0.198 C 
HETATM   24  O2  UNL     1      24.896   8.369  49.031  1.00  0.00    -0.388 OA
HETATM   25  C18 UNL     1      23.639   8.332  49.567  1.00  0.00     0.198 C 
HETATM   26  C19 UNL     1      23.485   7.537  50.826  1.00  0.00     0.299 C 
ENDBRANCH  19  21
BRANCH   1  27
HETATM   27  O1  UNL     1      23.844   4.454  52.578  1.00  0.00    -0.358 OA
HETATM   28  C1  UNL     1      24.202   3.297  53.303  1.00  0.00     0.209 C 
ENDBRANCH   1  27
TORSDOF 2
ENDMDL
MODEL 9
REMARK VINA RESULT:      -6.7     10.078     11.383
REMARK  2 active torsions:
REMARK  status: ('A' for Active; 'I' for Inactive)
REMARK    1  A    between atoms: O1_2  and  C2_3 
REMARK    2  A    between atoms: C15_21  and  N4_22 
ROOT
HETATM    1  C2  UNL     1      27.981  11.711  48.016  1.00  0.00     0.079 C 
HETATM    2  C3  UNL     1      27.096  11.009  48.694  1.00  0.00     0.036 C 
HETATM    3  C4  UNL     1      26.806   9.609  49.002  1.00  0.00     0.027 C 
HETATM    4  C5  UNL     1      27.257   8.384  48.777  1.00  0.00     0.065 C 
HETATM    5 CL1  UNL     1      26.599   6.871  49.351  1.00  0.00    -0.084 Cl
HETATM    6  C6  UNL     1      28.374   7.706  48.077  1.00  0.00     0.316 C 
HETATM    7  F1  UNL     1      27.902   6.640  47.352  1.00  0.00    -0.221 F 
HETATM    8  N1  UNL     1      29.349   7.251  49.028  1.00  0.00    -0.339 N 
HETATM    9  C7  UNL     1      30.629   6.689  48.800  1.00  0.00     0.139 A 
HETATM   10  N2  UNL     1      31.074   5.423  48.877  1.00  0.00    -0.224 NA
HETATM   11  C8  UNL     1      32.375   5.130  48.605  1.00  0.00     0.234 A 
HETATM   12  N3  UNL     1      33.339   5.994  48.245  1.00  0.00    -0.253 NA
HETATM   13  C9  UNL     1      32.963   7.299  48.146  1.00  0.00     0.133 A 
HETATM   14  C10 UNL     1      31.643   7.573  48.427  1.00  0.00     0.027 A 
HETATM   15  C11 UNL     1      31.287   8.983  48.333  1.00  0.00     0.013 C 
HETATM   16  C12 UNL     1      30.962  10.105  48.924  1.00  0.00    -0.026 C 
HETATM   17  C13 UNL     1      30.590  11.478  49.221  1.00  0.00     0.029 C 
HETATM   18  C14 UNL     1      30.340  12.268  47.944  1.00  0.00     0.046 C 
HETATM   19  C15 UNL     1      29.171  11.641  47.170  1.00  0.00     0.279 C 
HETATM   20  H7  UNL     1      29.426   7.194  50.065  1.00  0.00     0.164 HD
ENDROOT
BRANCH  19  21
HETATM   21  N4  UNL     1      29.103  12.327  45.909  1.00  0.00     0.103 N 
HETATM   22  C16 UNL     1      30.421  12.754  45.501  1.00  0.00     0.299 C 
HETATM   23  C17 UNL     1      30.487  12.831  43.994  1.00  0.00     0.198 C 
HETATM   24  O2  UNL     1      30.426  11.512  43.542  1.00  0.00    -0.388 OA
HETATM   25  C18 UNL     1      29.272  10.878  43.907  1.00  0.00     0.198 C 
HETATM   26  C19 UNL     1      28.404  11.604  44.888  1.00  0.00     0.299 C 
ENDBRANCH  19  21
BRANCH   1  27
HETATM   27  O1  UNL     1      27.858  13.096  48.007  1.00  0.00    -0.358 OA
HETATM   28  C1  UNL     1      26.640  13.796  48.154  1.00  0.00     0.209 C 
ENDBRANCH   1  27
TORSDOF 2
ENDMDL
