MODEL 1
REMARK VINA RESULT:      -8.1      0.000      0.000
REMARK  5 active torsions:
REMARK  status: ('A' for Active; 'I' for Inactive)
REMARK    1  A    between atoms: C1_2  and  P1_3 
REMARK    2  A    between atoms: P1_3  and  C2_4 
REMARK    3  A    between atoms: C2_4  and  C3_5 
REMARK    4  A    between atoms: C3_5  and  C4_6 
REMARK    5  A    between atoms: C10_13  and  C11_14 
ROOT
HETATM    1  C4  UNL     1      25.949   0.725  52.182  1.00  0.00    -0.052 A 
HETATM    2  C5  UNL     1      24.570   0.756  52.271  1.00  0.00     0.008 A 
HETATM    3  C6  UNL     1      23.881   1.755  51.623  1.00  0.00     0.019 A 
HETATM    4  C7  UNL     1      24.552   2.711  50.898  1.00  0.00     0.048 A 
HETATM    5  C8  UNL     1      23.960   3.754  50.212  1.00  0.00     0.187 A 
HETATM    6  O2  UNL     1      22.706   3.842  50.250  1.00  0.00    -0.287 OA
HETATM    7  C9  UNL     1      24.744   4.634  49.532  1.00  0.00     0.093 A 
HETATM    8  C10 UNL     1      26.119   4.561  49.472  1.00  0.00     0.090 A 
HETATM    9  O3  UNL     1      26.656   3.562  50.132  1.00  0.00    -0.309 OA
HETATM   10  C17 UNL     1      25.933   2.676  50.812  1.00  0.00     0.090 A 
HETATM   11  C18 UNL     1      26.641   1.681  51.455  1.00  0.00     0.045 A 
ENDROOT
BRANCH   8  12
HETATM   12  C11 UNL     1      26.984   5.487  48.752  1.00  0.00    -0.002 A 
HETATM   13  C12 UNL     1      26.389   6.646  48.296  1.00  0.00     0.014 A 
HETATM   14  C13 UNL     1      27.138   7.588  47.597  1.00  0.00     0.001 A 
HETATM   15  C14 UNL     1      28.493   7.346  47.365  1.00  0.00     0.000 A 
HETATM   16  C15 UNL     1      29.066   6.179  47.830  1.00  0.00     0.001 A 
HETATM   17  C16 UNL     1      28.307   5.250  48.525  1.00  0.00     0.014 A 
ENDBRANCH   8  12
BRANCH   1  18
HETATM   18  C3  UNL     1      26.676  -0.352  52.882  1.00  0.00     0.067 C 
BRANCH  18  19
HETATM   19  C2  UNL     1      27.031  -0.015  54.272  1.00  0.00     0.065 C 
BRANCH  19  20
HETATM   20  P1  UNL     1      28.609   0.472  54.587  1.00  0.00    -0.051 P 
BRANCH  20  21
HETATM   21  C1  UNL     1      29.152   2.120  53.983  1.00  0.00     0.260 C 
HETATM   22  O1  UNL     1      29.475   2.233  55.146  1.00  0.00    -0.302 OA
ENDBRANCH  20  21
ENDBRANCH  19  20
ENDBRANCH  18  19
ENDBRANCH   1  18
TORSDOF 5
ENDMDL
MODEL 2
REMARK VINA RESULT:      -7.8      4.113      7.206
REMARK  5 active torsions:
REMARK  status: ('A' for Active; 'I' for Inactive)
REMARK    1  A    between atoms: C1_2  and  P1_3 
REMARK    2  A    between atoms: P1_3  and  C2_4 
REMARK    3  A    between atoms: C2_4  and  C3_5 
REMARK    4  A    between atoms: C3_5  and  C4_6 
REMARK    5  A    between atoms: C10_13  and  C11_14 
ROOT
HETATM    1  C4  UNL     1      21.507   2.138  52.310  1.00  0.00    -0.052 A 
HETATM    2  C5  UNL     1      20.596   1.388  53.029  1.00  0.00     0.008 A 
HETATM    3  C6  UNL     1      21.053   0.358  53.819  1.00  0.00     0.019 A 
HETATM    4  C7  UNL     1      22.398   0.078  53.894  1.00  0.00     0.048 A 
HETATM    5  C8  UNL     1      22.961  -0.931  54.653  1.00  0.00     0.187 A 
HETATM    6  O2  UNL     1      22.189  -1.652  55.332  1.00  0.00    -0.287 OA
HETATM    7  C9  UNL     1      24.311  -1.101  54.636  1.00  0.00     0.093 A 
HETATM    8  C10 UNL     1      25.182  -0.324  53.901  1.00  0.00     0.090 A 
HETATM    9  O3  UNL     1      24.621   0.625  53.190  1.00  0.00    -0.309 OA
HETATM   10  C17 UNL     1      23.306   0.831  53.172  1.00  0.00     0.090 A 
HETATM   11  C18 UNL     1      22.866   1.868  52.374  1.00  0.00     0.045 A 
ENDROOT
BRANCH   8  12
HETATM   12  C11 UNL     1      26.630  -0.482  53.864  1.00  0.00    -0.002 A 
HETATM   13  C12 UNL     1      27.347   0.275  54.768  1.00  0.00     0.014 A 
HETATM   14  C13 UNL     1      28.736   0.189  54.804  1.00  0.00     0.001 A 
HETATM   15  C14 UNL     1      29.390  -0.668  53.918  1.00  0.00     0.000 A 
HETATM   16  C15 UNL     1      28.651  -1.414  53.022  1.00  0.00     0.001 A 
HETATM   17  C16 UNL     1      27.268  -1.319  52.997  1.00  0.00     0.014 A 
ENDBRANCH   8  12
BRANCH   1  18
HETATM   18  C3  UNL     1      21.004   3.240  51.467  1.00  0.00     0.067 C 
BRANCH  18  19
HETATM   19  C2  UNL     1      21.388   4.577  51.955  1.00  0.00     0.065 C 
BRANCH  19  20
HETATM   20  P1  UNL     1      21.978   5.685  50.838  1.00  0.00    -0.051 P 
BRANCH  20  21
HETATM   21  C1  UNL     1      23.670   6.358  51.084  1.00  0.00     0.260 C 
HETATM   22  O1  UNL     1      23.685   5.502  51.941  1.00  0.00    -0.302 OA
ENDBRANCH  20  21
ENDBRANCH  19  20
ENDBRANCH  18  19
ENDBRANCH   1  18
TORSDOF 5
ENDMDL
MODEL 3
REMARK VINA RESULT:      -7.7      4.100      7.481
REMARK  5 active torsions:
REMARK  status: ('A' for Active; 'I' for Inactive)
REMARK    1  A    between atoms: C1_2  and  P1_3 
REMARK    2  A    between atoms: P1_3  and  C2_4 
REMARK    3  A    between atoms: C2_4  and  C3_5 
REMARK    4  A    between atoms: C3_5  and  C4_6 
REMARK    5  A    between atoms: C10_13  and  C11_14 
ROOT
HETATM    1  C4  UNL     1      25.484   0.513  52.663  1.00  0.00    -0.052 A 
HETATM    2  C5  UNL     1      25.721  -0.216  53.814  1.00  0.00     0.008 A 
HETATM    3  C6  UNL     1      24.662  -0.811  54.458  1.00  0.00     0.019 A 
HETATM    4  C7  UNL     1      23.383  -0.684  53.967  1.00  0.00     0.048 A 
HETATM    5  C8  UNL     1      22.252  -1.238  54.536  1.00  0.00     0.187 A 
HETATM    6  O2  UNL     1      22.396  -1.914  55.585  1.00  0.00    -0.287 OA
HETATM    7  C9  UNL     1      21.043  -1.034  53.946  1.00  0.00     0.093 A 
HETATM    8  C10 UNL     1      20.856  -0.297  52.795  1.00  0.00     0.090 A 
HETATM    9  O3  UNL     1      21.945   0.218  52.277  1.00  0.00    -0.309 OA
HETATM   10  C17 UNL     1      23.150   0.047  52.816  1.00  0.00     0.090 A 
HETATM   11  C18 UNL     1      24.201   0.651  52.156  1.00  0.00     0.045 A 
ENDROOT
BRANCH   8  12
HETATM   12  C11 UNL     1      19.574  -0.062  52.141  1.00  0.00    -0.002 A 
HETATM   13  C12 UNL     1      18.480  -0.685  52.706  1.00  0.00     0.014 A 
HETATM   14  C13 UNL     1      17.216  -0.517  52.148  1.00  0.00     0.001 A 
HETATM   15  C14 UNL     1      17.071   0.285  51.015  1.00  0.00     0.000 A 
HETATM   16  C15 UNL     1      18.181   0.896  50.467  1.00  0.00     0.001 A 
HETATM   17  C16 UNL     1      19.434   0.721  51.034  1.00  0.00     0.014 A 
ENDBRANCH   8  12
BRANCH   1  18
HETATM   18  C3  UNL     1      26.629   1.146  51.981  1.00  0.00     0.067 C 
BRANCH  18  19
HETATM   19  C2  UNL     1      27.140   2.341  52.678  1.00  0.00     0.065 C 
BRANCH  19  20
HETATM   20  P1  UNL     1      28.655   2.247  53.398  1.00  0.00    -0.051 P 
BRANCH  20  21
HETATM   21  C1  UNL     1      29.054   0.759  54.402  1.00  0.00     0.260 C 
HETATM   22  O1  UNL     1      29.148   1.600  55.270  1.00  0.00    -0.302 OA
ENDBRANCH  20  21
ENDBRANCH  19  20
ENDBRANCH  18  19
ENDBRANCH   1  18
TORSDOF 5
ENDMDL
MODEL 4
REMARK VINA RESULT:      -7.7      5.633      8.038
REMARK  5 active torsions:
REMARK  status: ('A' for Active; 'I' for Inactive)
REMARK    1  A    between atoms: C1_2  and  P1_3 
REMARK    2  A    between atoms: P1_3  and  C2_4 
REMARK    3  A    between atoms: C2_4  and  C3_5 
REMARK    4  A    between atoms: C3_5  and  C4_6 
REMARK    5  A    between atoms: C10_13  and  C11_14 
ROOT
HETATM    1  C4  UNL     1      21.346   1.980  51.994  1.00  0.00    -0.052 A 
HETATM    2  C5  UNL     1      20.429   1.273  52.749  1.00  0.00     0.008 A 
HETATM    3  C6  UNL     1      20.883   0.313  53.624  1.00  0.00     0.019 A 
HETATM    4  C7  UNL     1      22.229   0.058  53.746  1.00  0.00     0.048 A 
HETATM    5  C8  UNL     1      22.789  -0.882  54.590  1.00  0.00     0.187 A 
HETATM    6  O2  UNL     1      22.012  -1.561  55.307  1.00  0.00    -0.287 OA
HETATM    7  C9  UNL     1      24.142  -1.033  54.614  1.00  0.00     0.093 A 
HETATM    8  C10 UNL     1      25.017  -0.301  53.839  1.00  0.00     0.090 A 
HETATM    9  O3  UNL     1      24.459   0.583  53.047  1.00  0.00    -0.309 OA
HETATM   10  C17 UNL     1      23.143   0.769  52.988  1.00  0.00     0.090 A 
HETATM   11  C18 UNL     1      22.706   1.736  52.105  1.00  0.00     0.045 A 
ENDROOT
BRANCH   8  12
HETATM   12  C11 UNL     1      26.468  -0.441  53.843  1.00  0.00    -0.002 A 
HETATM   13  C12 UNL     1      27.147   0.298  54.790  1.00  0.00     0.014 A 
HETATM   14  C13 UNL     1      28.535   0.228  54.868  1.00  0.00     0.001 A 
HETATM   15  C14 UNL     1      29.227  -0.595  53.978  1.00  0.00     0.000 A 
HETATM   16  C15 UNL     1      28.526  -1.324  53.038  1.00  0.00     0.001 A 
HETATM   17  C16 UNL     1      27.143  -1.245  52.973  1.00  0.00     0.014 A 
ENDBRANCH   8  12
BRANCH   1  18
HETATM   18  C3  UNL     1      20.845   3.008  51.060  1.00  0.00     0.067 C 
BRANCH  18  19
HETATM   19  C2  UNL     1      19.715   3.789  51.595  1.00  0.00     0.065 C 
BRANCH  19  20
HETATM   20  P1  UNL     1      18.405   4.077  50.583  1.00  0.00    -0.051 P 
BRANCH  20  21
HETATM   21  C1  UNL     1      16.734   3.559  51.147  1.00  0.00     0.260 C 
HETATM   22  O1  UNL     1      17.182   3.931  52.210  1.00  0.00    -0.302 OA
ENDBRANCH  20  21
ENDBRANCH  19  20
ENDBRANCH  18  19
ENDBRANCH   1  18
TORSDOF 5
ENDMDL
MODEL 5
REMARK VINA RESULT:      -7.7      4.251      7.908
REMARK  5 active torsions:
REMARK  status: ('A' for Active; 'I' for Inactive)
REMARK    1  A    between atoms: C1_2  and  P1_3 
REMARK    2  A    between atoms: P1_3  and  C2_4 
REMARK    3  A    between atoms: C2_4  and  C3_5 
REMARK    4  A    between atoms: C3_5  and  C4_6 
REMARK    5  A    between atoms: C10_13  and  C11_14 
ROOT
HETATM    1  C4  UNL     1      24.712   0.370  53.362  1.00  0.00    -0.052 A 
HETATM    2  C5  UNL     1      24.801   1.717  53.064  1.00  0.00     0.008 A 
HETATM    3  C6  UNL     1      23.655   2.406  52.738  1.00  0.00     0.019 A 
HETATM    4  C7  UNL     1      22.438   1.765  52.708  1.00  0.00     0.048 A 
HETATM    5  C8  UNL     1      21.231   2.360  52.393  1.00  0.00     0.187 A 
HETATM    6  O2  UNL     1      21.239   3.585  52.112  1.00  0.00    -0.287 OA
HETATM    7  C9  UNL     1      20.097   1.609  52.401  1.00  0.00     0.093 A 
HETATM    8  C10 UNL     1      20.059   0.264  52.706  1.00  0.00     0.090 A 
HETATM    9  O3  UNL     1      21.219  -0.275  53.000  1.00  0.00    -0.309 OA
HETATM   10  C17 UNL     1      22.355   0.417  53.006  1.00  0.00     0.090 A 
HETATM   11  C18 UNL     1      23.494  -0.290  53.336  1.00  0.00     0.045 A 
ENDROOT
BRANCH   8  12
HETATM   12  C11 UNL     1      18.861  -0.566  52.723  1.00  0.00    -0.002 A 
HETATM   13  C12 UNL     1      18.899  -1.671  53.547  1.00  0.00     0.014 A 
HETATM   14  C13 UNL     1      17.800  -2.522  53.627  1.00  0.00     0.001 A 
HETATM   15  C14 UNL     1      16.665  -2.242  52.865  1.00  0.00     0.000 A 
HETATM   16  C15 UNL     1      16.651  -1.130  52.046  1.00  0.00     0.001 A 
HETATM   17  C16 UNL     1      17.753  -0.292  51.978  1.00  0.00     0.014 A 
ENDBRANCH   8  12
BRANCH   1  18
HETATM   18  C3  UNL     1      25.949  -0.356  53.710  1.00  0.00     0.067 C 
BRANCH  18  19
HETATM   19  C2  UNL     1      26.819   0.379  54.646  1.00  0.00     0.065 C 
BRANCH  19  20
HETATM   20  P1  UNL     1      28.421   0.627  54.204  1.00  0.00    -0.051 P 
BRANCH  20  21
HETATM   21  C1  UNL     1      28.932   2.313  53.680  1.00  0.00     0.260 C 
HETATM   22  O1  UNL     1      27.902   2.600  54.251  1.00  0.00    -0.302 OA
ENDBRANCH  20  21
ENDBRANCH  19  20
ENDBRANCH  18  19
ENDBRANCH   1  18
TORSDOF 5
ENDMDL
MODEL 6
REMARK VINA RESULT:      -7.4      2.819      6.573
REMARK  5 active torsions:
REMARK  status: ('A' for Active; 'I' for Inactive)
REMARK    1  A    between atoms: C1_2  and  P1_3 
REMARK    2  A    between atoms: P1_3  and  C2_4 
REMARK    3  A    between atoms: C2_4  and  C3_5 
REMARK    4  A    between atoms: C3_5  and  C4_6 
REMARK    5  A    between atoms: C10_13  and  C11_14 
ROOT
HETATM    1  C4  UNL     1      25.992   5.413  48.969  1.00  0.00    -0.052 A 
HETATM    2  C5  UNL     1      24.618   5.276  48.910  1.00  0.00     0.008 A 
HETATM    3  C6  UNL     1      24.019   4.250  49.603  1.00  0.00     0.019 A 
HETATM    4  C7  UNL     1      24.774   3.371  50.344  1.00  0.00     0.048 A 
HETATM    5  C8  UNL     1      24.274   2.309  51.074  1.00  0.00     0.187 A 
HETATM    6  O2  UNL     1      23.031   2.127  51.065  1.00  0.00    -0.287 OA
HETATM    7  C9  UNL     1      25.135   1.514  51.766  1.00  0.00     0.093 A 
HETATM    8  C10 UNL     1      26.502   1.691  51.794  1.00  0.00     0.090 A 
HETATM    9  O3  UNL     1      26.949   2.705  51.092  1.00  0.00    -0.309 OA
HETATM   10  C17 UNL     1      26.149   3.512  50.400  1.00  0.00     0.090 A 
HETATM   11  C18 UNL     1      26.768   4.536  49.711  1.00  0.00     0.045 A 
ENDROOT
BRANCH   8  12
HETATM   12  C11 UNL     1      27.448   0.857  52.525  1.00  0.00    -0.002 A 
HETATM   13  C12 UNL     1      27.219  -0.503  52.481  1.00  0.00     0.014 A 
HETATM   14  C13 UNL     1      28.072  -1.377  53.150  1.00  0.00     0.001 A 
HETATM   15  C14 UNL     1      29.154  -0.861  53.863  1.00  0.00     0.000 A 
HETATM   16  C15 UNL     1      29.362   0.503  53.894  1.00  0.00     0.001 A 
HETATM   17  C16 UNL     1      28.505   1.362  53.222  1.00  0.00     0.014 A 
ENDBRANCH   8  12
BRANCH   1  18
HETATM   18  C3  UNL     1      26.623   6.518  48.221  1.00  0.00     0.067 C 
BRANCH  18  19
HETATM   19  C2  UNL     1      28.096   6.461  48.219  1.00  0.00     0.065 C 
BRANCH  19  20
HETATM   20  P1  UNL     1      28.940   7.885  47.925  1.00  0.00    -0.051 P 
BRANCH  20  21
HETATM   21  C1  UNL     1      30.425   8.247  48.946  1.00  0.00     0.260 C 
HETATM   22  O1  UNL     1      29.676   9.083  49.404  1.00  0.00    -0.302 OA
ENDBRANCH  20  21
ENDBRANCH  19  20
ENDBRANCH  18  19
ENDBRANCH   1  18
TORSDOF 5
ENDMDL
MODEL 7
REMARK VINA RESULT:      -7.3      3.856      6.849
REMARK  5 active torsions:
REMARK  status: ('A' for Active; 'I' for Inactive)
REMARK    1  A    between atoms: C1_2  and  P1_3 
REMARK    2  A    between atoms: P1_3  and  C2_4 
REMARK    3  A    between atoms: C2_4  and  C3_5 
REMARK    4  A    between atoms: C3_5  and  C4_6 
REMARK    5  A    between atoms: C10_13  and  C11_14 
ROOT
HETATM    1  C4  UNL     1      22.659   3.684  52.319  1.00  0.00    -0.052 A 
HETATM    2  C5  UNL     1      21.599   2.800  52.393  1.00  0.00     0.008 A 
HETATM    3  C6  UNL     1      21.851   1.472  52.649  1.00  0.00     0.019 A 
HETATM    4  C7  UNL     1      23.141   1.028  52.829  1.00  0.00     0.048 A 
HETATM    5  C8  UNL     1      23.504  -0.280  53.089  1.00  0.00     0.187 A 
HETATM    6  O2  UNL     1      22.588  -1.136  53.170  1.00  0.00    -0.287 OA
HETATM    7  C9  UNL     1      24.820  -0.586  53.246  1.00  0.00     0.093 A 
HETATM    8  C10 UNL     1      25.845   0.333  53.164  1.00  0.00     0.090 A 
HETATM    9  O3  UNL     1      25.472   1.566  52.915  1.00  0.00    -0.309 OA
HETATM   10  C17 UNL     1      24.199   1.915  52.753  1.00  0.00     0.090 A 
HETATM   11  C18 UNL     1      23.964   3.251  52.498  1.00  0.00     0.045 A 
ENDROOT
BRANCH   8  12
HETATM   12  C11 UNL     1      27.263   0.035  53.328  1.00  0.00    -0.002 A 
HETATM   13  C12 UNL     1      27.642  -1.268  53.081  1.00  0.00     0.014 A 
HETATM   14  C13 UNL     1      28.977  -1.644  53.213  1.00  0.00     0.001 A 
HETATM   15  C14 UNL     1      29.919  -0.690  53.597  1.00  0.00     0.000 A 
HETATM   16  C15 UNL     1      29.515   0.608  53.840  1.00  0.00     0.001 A 
HETATM   17  C16 UNL     1      28.183   0.968  53.704  1.00  0.00     0.014 A 
ENDBRANCH   8  12
BRANCH   1  18
HETATM   18  C3  UNL     1      22.374   5.105  52.044  1.00  0.00     0.067 C 
BRANCH  18  19
HETATM   19  C2  UNL     1      22.649   5.500  50.650  1.00  0.00     0.065 C 
BRANCH  19  20
HETATM   20  P1  UNL     1      22.715   7.141  50.294  1.00  0.00    -0.051 P 
BRANCH  20  21
HETATM   21  C1  UNL     1      24.321   8.014  50.490  1.00  0.00     0.260 C 
HETATM   22  O1  UNL     1      24.741   6.899  50.269  1.00  0.00    -0.302 OA
ENDBRANCH  20  21
ENDBRANCH  19  20
ENDBRANCH  18  19
ENDBRANCH   1  18
TORSDOF 5
ENDMDL
MODEL 8
REMARK VINA RESULT:      -7.3      3.096      4.080
REMARK  5 active torsions:
REMARK  status: ('A' for Active; 'I' for Inactive)
REMARK    1  A    between atoms: C1_2  and  P1_3 
REMARK    2  A    between atoms: P1_3  and  C2_4 
REMARK    3  A    between atoms: C2_4  and  C3_5 
REMARK    4  A    between atoms: C3_5  and  C4_6 
REMARK    5  A    between atoms: C10_13  and  C11_14 
ROOT
HETATM    1  C4  UNL     1      24.696   0.014  53.151  1.00  0.00    -0.052 A 
HETATM    2  C5  UNL     1      23.524  -0.664  53.430  1.00  0.00     0.008 A 
HETATM    3  C6  UNL     1      22.322  -0.018  53.258  1.00  0.00     0.019 A 
HETATM    4  C7  UNL     1      22.284   1.285  52.817  1.00  0.00     0.048 A 
HETATM    5  C8  UNL     1      21.134   2.024  52.613  1.00  0.00     0.187 A 
HETATM    6  O2  UNL     1      20.032   1.468  52.846  1.00  0.00    -0.287 OA
HETATM    7  C9  UNL     1      21.239   3.307  52.172  1.00  0.00     0.093 A 
HETATM    8  C10 UNL     1      22.434   3.942  51.907  1.00  0.00     0.090 A 
HETATM    9  O3  UNL     1      23.509   3.217  52.110  1.00  0.00    -0.309 OA
HETATM   10  C17 UNL     1      23.460   1.959  52.540  1.00  0.00     0.090 A 
HETATM   11  C18 UNL     1      24.675   1.327  52.706  1.00  0.00     0.045 A 
ENDROOT
BRANCH   8  12
HETATM   12  C11 UNL     1      22.576   5.313  51.434  1.00  0.00    -0.002 A 
HETATM   13  C12 UNL     1      23.864   5.807  51.380  1.00  0.00     0.014 A 
HETATM   14  C13 UNL     1      24.096   7.107  50.941  1.00  0.00     0.001 A 
HETATM   15  C14 UNL     1      23.013   7.901  50.559  1.00  0.00     0.000 A 
HETATM   16  C15 UNL     1      21.734   7.386  50.624  1.00  0.00     0.001 A 
HETATM   17  C16 UNL     1      21.519   6.088  51.062  1.00  0.00     0.014 A 
ENDBRANCH   8  12
BRANCH   1  18
HETATM   18  C3  UNL     1      25.979  -0.691  53.339  1.00  0.00     0.067 C 
BRANCH  18  19
HETATM   19  C2  UNL     1      27.133   0.025  52.762  1.00  0.00     0.065 C 
BRANCH  19  20
HETATM   20  P1  UNL     1      28.265   0.676  53.819  1.00  0.00    -0.051 P 
BRANCH  20  21
HETATM   21  C1  UNL     1      28.691   2.457  53.654  1.00  0.00     0.260 C 
HETATM   22  O1  UNL     1      28.184   2.285  52.566  1.00  0.00    -0.302 OA
ENDBRANCH  20  21
ENDBRANCH  19  20
ENDBRANCH  18  19
ENDBRANCH   1  18
TORSDOF 5
ENDMDL
MODEL 9
REMARK VINA RESULT:      -7.2      3.161      6.830
REMARK  5 active torsions:
REMARK  status: ('A' for Active; 'I' for Inactive)
REMARK    1  A    between atoms: C1_2  and  P1_3 
REMARK    2  A    between atoms: P1_3  and  C2_4 
REMARK    3  A    between atoms: C2_4  and  C3_5 
REMARK    4  A    between atoms: C3_5  and  C4_6 
REMARK    5  A    between atoms: C10_13  and  C11_14 
ROOT
HETATM    1  C4  UNL     1      23.663   3.384  50.306  1.00  0.00    -0.052 A 
HETATM    2  C5  UNL     1      22.437   3.045  50.847  1.00  0.00     0.008 A 
HETATM    3  C6  UNL     1      22.368   2.007  51.747  1.00  0.00     0.019 A 
HETATM    4  C7  UNL     1      23.502   1.315  52.105  1.00  0.00     0.048 A 
HETATM    5  C8  UNL     1      23.543   0.259  52.997  1.00  0.00     0.187 A 
HETATM    6  O2  UNL     1      22.462  -0.101  53.527  1.00  0.00    -0.287 OA
HETATM    7  C9  UNL     1      24.736  -0.339  53.264  1.00  0.00     0.093 A 
HETATM    8  C10 UNL     1      25.936   0.036  52.697  1.00  0.00     0.090 A 
HETATM    9  O3  UNL     1      25.867   1.039  51.855  1.00  0.00    -0.309 OA
HETATM   10  C17 UNL     1      24.727   1.658  51.561  1.00  0.00     0.090 A 
HETATM   11  C18 UNL     1      24.815   2.697  50.657  1.00  0.00     0.045 A 
ENDROOT
BRANCH   8  12
HETATM   12  C11 UNL     1      27.227  -0.586  52.964  1.00  0.00    -0.002 A 
HETATM   13  C12 UNL     1      27.306  -1.944  52.735  1.00  0.00     0.014 A 
HETATM   14  C13 UNL     1      28.501  -2.622  52.963  1.00  0.00     0.001 A 
HETATM   15  C14 UNL     1      29.611  -1.913  53.423  1.00  0.00     0.000 A 
HETATM   16  C15 UNL     1      29.506  -0.554  53.646  1.00  0.00     0.001 A 
HETATM   17  C16 UNL     1      28.311   0.108  53.414  1.00  0.00     0.014 A 
ENDBRANCH   8  12
BRANCH   1  18
HETATM   18  C3  UNL     1      23.723   4.499  49.342  1.00  0.00     0.067 C 
BRANCH  18  19
HETATM   19  C2  UNL     1      23.234   5.778  49.890  1.00  0.00     0.065 C 
BRANCH  19  20
HETATM   20  P1  UNL     1      24.234   6.615  50.950  1.00  0.00    -0.051 P 
BRANCH  20  21
HETATM   21  C1  UNL     1      25.713   7.467  50.267  1.00  0.00     0.260 C 
HETATM   22  O1  UNL     1      24.887   8.330  50.055  1.00  0.00    -0.302 OA
ENDBRANCH  20  21
ENDBRANCH  19  20
ENDBRANCH  18  19
ENDBRANCH   1  18
TORSDOF 5
ENDMDL
