MODEL 1
REMARK VINA RESULT:      -8.7      0.000      0.000
REMARK  6 active torsions:
REMARK  status: ('A' for Active; 'I' for Inactive)
REMARK    1  A    between atoms: C2_2  and  C3_3 
REMARK    2  A    between atoms: C3_3  and  C5_5 
REMARK    3  A    between atoms: C6_6  and  C7_7 
REMARK       I    between atoms: C7_7  and  N1_9 
REMARK    4  A    between atoms: N1_9  and  C8_10 
REMARK    5  A    between atoms: C11_13  and  C12_14 
REMARK    6  A    between atoms: C12_14  and  C13_15 
ROOT
HETATM    1  C13 UNL     1      29.768   0.056  53.279  1.00  0.00     0.128 C 
HETATM    2  C14 UNL     1      29.436   1.165  54.167  1.00  0.00     0.059 C 
HETATM    3  N2  UNL     1      29.173   2.036  54.865  1.00  0.00    -0.197 NA
ENDROOT
BRANCH   1   4
HETATM    4  C12 UNL     1      28.694  -1.025  53.337  1.00  0.00     0.048 C 
BRANCH   4   5
HETATM    5  C11 UNL     1      27.372  -0.461  52.992  1.00  0.00    -0.077 C 
HETATM    6  C10 UNL     1      26.843   0.474  52.161  1.00  0.00     0.005 C 
HETATM    7  C9  UNL     1      25.425   0.879  52.019  1.00  0.00     0.031 C 
HETATM    8  C8  UNL     1      24.137   0.849  52.282  1.00  0.00     0.049 C 
HETATM    9  C22 UNL     1      23.303   0.036  53.199  1.00  0.00     0.039 A 
HETATM   10  C17 UNL     1      23.530  -0.604  54.370  1.00  0.00     0.042 A 
HETATM   11  C21 UNL     1      22.036  -0.061  52.668  1.00  0.00     0.048 A 
HETATM   12  N3  UNL     1      24.614  -0.854  55.291  1.00  0.00    -0.389 N 
HETATM   13  C18 UNL     1      22.446  -1.301  54.924  1.00  0.00     0.030 A 
HETATM   14  C16 UNL     1      25.998  -0.515  54.938  1.00  0.00     0.124 C 
HETATM   15  H23 UNL     1      24.585  -1.253  56.235  1.00  0.00     0.159 HD
HETATM   16  C15 UNL     1      26.138  -1.051  53.528  1.00  0.00     0.053 C 
HETATM   17  C19 UNL     1      21.178  -1.388  54.376  1.00  0.00     0.004 A 
HETATM   18  C20 UNL     1      20.947  -0.738  53.182  1.00  0.00     0.025 A 
HETATM   19 CL1  UNL     1      21.528   0.658  51.130  1.00  0.00    -0.083 Cl
BRANCH   8  20
HETATM   20  N1  UNL     1      23.578   1.852  51.401  1.00  0.00    -0.323 N 
HETATM   21  C7  UNL     1      23.591   3.215  51.796  1.00  0.00     0.245 C 
HETATM   22  O1  UNL     1      23.868   4.107  52.592  1.00  0.00    -0.268 OA
HETATM   23  H12 UNL     1      23.187   1.546  50.468  1.00  0.00     0.169 HD
BRANCH  21  24
HETATM   24  C6  UNL     1      22.988   4.080  50.814  1.00  0.00     0.071 C 
HETATM   25  C5  UNL     1      23.121   4.181  49.483  1.00  0.00    -0.017 C 
BRANCH  25  26
HETATM   26  C3  UNL     1      22.559   5.015  48.416  1.00  0.00     0.004 C 
HETATM   27  C4  UNL     1      23.544   6.083  47.999  1.00  0.00     0.014 C 
BRANCH  26  28
HETATM   28  C2  UNL     1      22.247   4.181  47.170  1.00  0.00     0.003 C 
HETATM   29  C1  UNL     1      21.632   2.841  47.571  1.00  0.00     0.006 C 
ENDBRANCH  26  28
ENDBRANCH  25  26
ENDBRANCH  21  24
ENDBRANCH   8  20
ENDBRANCH   4   5
ENDBRANCH   1   4
TORSDOF 6
ENDMDL
MODEL 2
REMARK VINA RESULT:      -8.3      1.587      2.219
REMARK  6 active torsions:
REMARK  status: ('A' for Active; 'I' for Inactive)
REMARK    1  A    between atoms: C2_2  and  C3_3 
REMARK    2  A    between atoms: C3_3  and  C5_5 
REMARK    3  A    between atoms: C6_6  and  C7_7 
REMARK       I    between atoms: C7_7  and  N1_9 
REMARK    4  A    between atoms: N1_9  and  C8_10 
REMARK    5  A    between atoms: C11_13  and  C12_14 
REMARK    6  A    between atoms: C12_14  and  C13_15 
ROOT
HETATM    1  C13 UNL     1      29.735  -0.398  53.527  1.00  0.00     0.128 C 
HETATM    2  C14 UNL     1      29.366   0.746  54.353  1.00  0.00     0.059 C 
HETATM    3  N2  UNL     1      29.074   1.646  55.001  1.00  0.00    -0.197 NA
ENDROOT
BRANCH   1   4
HETATM    4  C12 UNL     1      28.531  -1.303  53.285  1.00  0.00     0.048 C 
BRANCH   4   5
HETATM    5  C11 UNL     1      27.378  -0.512  52.808  1.00  0.00    -0.077 C 
HETATM    6  C10 UNL     1      27.127   0.547  51.995  1.00  0.00     0.005 C 
HETATM    7  C9  UNL     1      25.824   1.182  51.691  1.00  0.00     0.031 C 
HETATM    8  C8  UNL     1      24.521   1.344  51.766  1.00  0.00     0.049 C 
HETATM    9  C22 UNL     1      23.445   0.618  52.483  1.00  0.00     0.039 A 
HETATM   10  C17 UNL     1      23.392  -0.124  53.613  1.00  0.00     0.042 A 
HETATM   11  C21 UNL     1      22.274   0.760  51.771  1.00  0.00     0.048 A 
HETATM   12  N3  UNL     1      24.273  -0.604  54.652  1.00  0.00    -0.389 N 
HETATM   13  C18 UNL     1      22.144  -0.672  53.946  1.00  0.00     0.030 A 
HETATM   14  C16 UNL     1      25.729  -0.470  54.528  1.00  0.00     0.124 C 
HETATM   15  H23 UNL     1      24.041  -1.053  55.544  1.00  0.00     0.159 HD
HETATM   16  C15 UNL     1      26.001  -0.929  53.111  1.00  0.00     0.053 C 
HETATM   17  C19 UNL     1      20.976  -0.518  53.219  1.00  0.00     0.004 A 
HETATM   18  C20 UNL     1      21.030   0.236  52.066  1.00  0.00     0.025 A 
HETATM   19 CL1  UNL     1      22.120   1.649  50.246  1.00  0.00    -0.083 Cl
BRANCH   8  20
HETATM   20  N1  UNL     1      24.259   2.478  50.907  1.00  0.00    -0.323 N 
HETATM   21  C7  UNL     1      25.345   3.248  50.414  1.00  0.00     0.245 C 
HETATM   22  O1  UNL     1      26.546   3.485  50.317  1.00  0.00    -0.268 OA
HETATM   23  H12 UNL     1      23.259   2.698  50.648  1.00  0.00     0.169 HD
BRANCH  21  24
HETATM   24  C6  UNL     1      24.914   4.344  49.585  1.00  0.00     0.071 C 
HETATM   25  C5  UNL     1      25.561   5.384  49.040  1.00  0.00    -0.017 C 
BRANCH  25  26
HETATM   26  C3  UNL     1      25.213   6.532  48.194  1.00  0.00     0.004 C 
HETATM   27  C4  UNL     1      23.714   6.652  48.049  1.00  0.00     0.014 C 
BRANCH  26  28
HETATM   28  C2  UNL     1      25.711   7.842  48.811  1.00  0.00     0.003 C 
HETATM   29  C1  UNL     1      25.923   7.672  50.315  1.00  0.00     0.006 C 
ENDBRANCH  26  28
ENDBRANCH  25  26
ENDBRANCH  21  24
ENDBRANCH   8  20
ENDBRANCH   4   5
ENDBRANCH   1   4
TORSDOF 6
ENDMDL
MODEL 3
REMARK VINA RESULT:      -8.0      2.749      7.666
REMARK  6 active torsions:
REMARK  status: ('A' for Active; 'I' for Inactive)
REMARK    1  A    between atoms: C2_2  and  C3_3 
REMARK    2  A    between atoms: C3_3  and  C5_5 
REMARK    3  A    between atoms: C6_6  and  C7_7 
REMARK       I    between atoms: C7_7  and  N1_9 
REMARK    4  A    between atoms: N1_9  and  C8_10 
REMARK    5  A    between atoms: C11_13  and  C12_14 
REMARK    6  A    between atoms: C12_14  and  C13_15 
ROOT
HETATM    1  C13 UNL     1      18.039  -0.829  52.237  1.00  0.00     0.128 C 
HETATM    2  C14 UNL     1      16.683  -0.461  52.633  1.00  0.00     0.059 C 
HETATM    3  N2  UNL     1      15.618  -0.174  52.946  1.00  0.00    -0.197 NA
ENDROOT
BRANCH   1   4
HETATM    4  C12 UNL     1      18.905  -1.107  53.462  1.00  0.00     0.048 C 
BRANCH   4   5
HETATM    5  C11 UNL     1      20.246  -0.512  53.293  1.00  0.00    -0.077 C 
HETATM    6  C10 UNL     1      21.494  -0.633  53.815  1.00  0.00     0.005 C 
HETATM    7  C9  UNL     1      22.714   0.133  53.467  1.00  0.00     0.031 C 
HETATM    8  C8  UNL     1      23.421   1.033  52.819  1.00  0.00     0.049 C 
HETATM    9  C22 UNL     1      23.101   1.995  51.739  1.00  0.00     0.039 A 
HETATM   10  C17 UNL     1      21.975   2.630  51.337  1.00  0.00     0.042 A 
HETATM   11  C21 UNL     1      24.247   2.233  51.012  1.00  0.00     0.048 A 
HETATM   12  N3  UNL     1      20.576   2.707  51.686  1.00  0.00    -0.389 N 
HETATM   13  C18 UNL     1      22.093   3.470  50.220  1.00  0.00     0.030 A 
HETATM   14  C16 UNL     1      19.985   1.767  52.646  1.00  0.00     0.124 C 
HETATM   15  H23 UNL     1      19.861   3.365  51.361  1.00  0.00     0.159 HD
HETATM   16  C15 UNL     1      20.522   0.424  52.194  1.00  0.00     0.053 C 
HETATM   17  C19 UNL     1      23.254   3.698  49.502  1.00  0.00     0.004 A 
HETATM   18  C20 UNL     1      24.401   3.050  49.909  1.00  0.00     0.025 A 
HETATM   19 CL1  UNL     1      25.819   1.480  51.330  1.00  0.00    -0.083 Cl
BRANCH   8  20
HETATM   20  N1  UNL     1      24.747   0.907  53.385  1.00  0.00    -0.323 N 
HETATM   21  C7  UNL     1      25.023  -0.149  54.293  1.00  0.00     0.245 C 
HETATM   22  O1  UNL     1      24.686  -1.143  54.930  1.00  0.00    -0.268 OA
HETATM   23  H12 UNL     1      25.491   1.598  53.092  1.00  0.00     0.169 HD
BRANCH  21  24
HETATM   24  C6  UNL     1      26.382  -0.125  54.771  1.00  0.00     0.071 C 
HETATM   25  C5  UNL     1      27.547   0.204  54.192  1.00  0.00    -0.017 C 
BRANCH  25  26
HETATM   26  C3  UNL     1      28.957   0.259  54.591  1.00  0.00     0.004 C 
HETATM   27  C4  UNL     1      29.803  -0.600  53.680  1.00  0.00     0.014 C 
BRANCH  26  28
HETATM   28  C2  UNL     1      29.502   1.686  54.495  1.00  0.00     0.003 C 
HETATM   29  C1  UNL     1      28.638   2.520  53.549  1.00  0.00     0.006 C 
ENDBRANCH  26  28
ENDBRANCH  25  26
ENDBRANCH  21  24
ENDBRANCH   8  20
ENDBRANCH   4   5
ENDBRANCH   1   4
TORSDOF 6
ENDMDL
MODEL 4
REMARK VINA RESULT:      -7.9      2.732      3.667
REMARK  6 active torsions:
REMARK  status: ('A' for Active; 'I' for Inactive)
REMARK    1  A    between atoms: C2_2  and  C3_3 
REMARK    2  A    between atoms: C3_3  and  C5_5 
REMARK    3  A    between atoms: C6_6  and  C7_7 
REMARK       I    between atoms: C7_7  and  N1_9 
REMARK    4  A    between atoms: N1_9  and  C8_10 
REMARK    5  A    between atoms: C11_13  and  C12_14 
REMARK    6  A    between atoms: C12_14  and  C13_15 
ROOT
HETATM    1  C13 UNL     1      28.257  -0.033  54.778  1.00  0.00     0.128 C 
HETATM    2  C14 UNL     1      28.969   1.240  54.762  1.00  0.00     0.059 C 
HETATM    3  N2  UNL     1      29.530   2.240  54.749  1.00  0.00    -0.197 NA
ENDROOT
BRANCH   1   4
HETATM    4  C12 UNL     1      28.017  -0.538  53.358  1.00  0.00     0.048 C 
BRANCH   4   5
HETATM    5  C11 UNL     1      27.111   0.375  52.631  1.00  0.00    -0.077 C 
HETATM    6  C10 UNL     1      27.167   1.555  51.960  1.00  0.00     0.005 C 
HETATM    7  C9  UNL     1      26.059   2.297  51.314  1.00  0.00     0.031 C 
HETATM    8  C8  UNL     1      24.816   2.515  50.944  1.00  0.00     0.049 C 
HETATM    9  C22 UNL     1      23.556   1.751  51.108  1.00  0.00     0.039 A 
HETATM   10  C17 UNL     1      23.101   0.855  52.014  1.00  0.00     0.042 A 
HETATM   11  C21 UNL     1      22.720   2.059  50.057  1.00  0.00     0.048 A 
HETATM   12  N3  UNL     1      23.550   0.182  53.210  1.00  0.00    -0.389 N 
HETATM   13  C18 UNL     1      21.819   0.332  51.790  1.00  0.00     0.030 A 
HETATM   14  C16 UNL     1      24.953   0.253  53.636  1.00  0.00     0.124 C 
HETATM   15  H23 UNL     1      23.013  -0.381  53.878  1.00  0.00     0.159 HD
HETATM   16  C15 UNL     1      25.719  -0.007  52.355  1.00  0.00     0.053 C 
HETATM   17  C19 UNL     1      20.991   0.654  50.728  1.00  0.00     0.004 A 
HETATM   18  C20 UNL     1      21.455   1.565  49.803  1.00  0.00     0.025 A 
HETATM   19 CL1  UNL     1      23.123   3.169  48.736  1.00  0.00    -0.083 Cl
BRANCH   8  20
HETATM   20  N1  UNL     1      24.879   3.776  50.237  1.00  0.00    -0.323 N 
HETATM   21  C7  UNL     1      26.080   4.151  49.580  1.00  0.00     0.245 C 
HETATM   22  O1  UNL     1      27.243   3.938  49.250  1.00  0.00    -0.268 OA
HETATM   23  H12 UNL     1      24.016   4.385  50.209  1.00  0.00     0.169 HD
BRANCH  21  24
HETATM   24  C6  UNL     1      25.979   5.435  48.935  1.00  0.00     0.071 C 
HETATM   25  C5  UNL     1      26.715   6.554  49.010  1.00  0.00    -0.017 C 
BRANCH  25  26
HETATM   26  C3  UNL     1      26.691   7.888  48.402  1.00  0.00     0.004 C 
HETATM   27  C4  UNL     1      27.396   8.890  49.287  1.00  0.00     0.014 C 
BRANCH  26  28
HETATM   28  C2  UNL     1      27.417   7.892  47.054  1.00  0.00     0.003 C 
HETATM   29  C1  UNL     1      27.801   9.319  46.663  1.00  0.00     0.006 C 
ENDBRANCH  26  28
ENDBRANCH  25  26
ENDBRANCH  21  24
ENDBRANCH   8  20
ENDBRANCH   4   5
ENDBRANCH   1   4
TORSDOF 6
ENDMDL
MODEL 5
REMARK VINA RESULT:      -7.6      2.344      3.177
REMARK  6 active torsions:
REMARK  status: ('A' for Active; 'I' for Inactive)
REMARK    1  A    between atoms: C2_2  and  C3_3 
REMARK    2  A    between atoms: C3_3  and  C5_5 
REMARK    3  A    between atoms: C6_6  and  C7_7 
REMARK       I    between atoms: C7_7  and  N1_9 
REMARK    4  A    between atoms: N1_9  and  C8_10 
REMARK    5  A    between atoms: C11_13  and  C12_14 
REMARK    6  A    between atoms: C12_14  and  C13_15 
ROOT
HETATM    1  C13 UNL     1      26.981  -0.387  53.055  1.00  0.00     0.128 C 
HETATM    2  C14 UNL     1      27.723   0.474  53.970  1.00  0.00     0.059 C 
HETATM    3  N2  UNL     1      28.305   1.152  54.689  1.00  0.00    -0.197 NA
ENDROOT
BRANCH   1   4
HETATM    4  C12 UNL     1      25.675  -0.854  53.691  1.00  0.00     0.048 C 
BRANCH   4   5
HETATM    5  C11 UNL     1      24.533  -0.091  53.147  1.00  0.00    -0.077 C 
HETATM    6  C10 UNL     1      24.301   1.067  52.475  1.00  0.00     0.005 C 
HETATM    7  C9  UNL     1      23.002   1.637  52.049  1.00  0.00     0.031 C 
HETATM    8  C8  UNL     1      21.693   1.676  51.921  1.00  0.00     0.049 C 
HETATM    9  C22 UNL     1      20.603   0.756  52.320  1.00  0.00     0.039 A 
HETATM   10  C17 UNL     1      20.451  -0.168  53.298  1.00  0.00     0.042 A 
HETATM   11  C21 UNL     1      19.550   0.920  51.446  1.00  0.00     0.048 A 
HETATM   12  N3  UNL     1      21.204  -0.743  54.388  1.00  0.00    -0.389 N 
HETATM   13  C18 UNL     1      19.234  -0.863  53.321  1.00  0.00     0.030 A 
HETATM   14  C16 UNL     1      22.638  -0.473  54.541  1.00  0.00     0.124 C 
HETATM   15  H23 UNL     1      20.883  -1.353  55.147  1.00  0.00     0.159 HD
HETATM   16  C15 UNL     1      23.179  -0.663  53.139  1.00  0.00     0.053 C 
HETATM   17  C19 UNL     1      18.186  -0.685  52.435  1.00  0.00     0.004 A 
HETATM   18  C20 UNL     1      18.340   0.255  51.437  1.00  0.00     0.025 A 
HETATM   19 CL1  UNL     1      19.544   2.038  50.071  1.00  0.00    -0.083 Cl
BRANCH   8  20
HETATM   20  N1  UNL     1      21.450   2.915  51.212  1.00  0.00    -0.323 N 
HETATM   21  C7  UNL     1      21.740   4.152  51.845  1.00  0.00     0.245 C 
HETATM   22  O1  UNL     1      22.146   4.808  52.799  1.00  0.00    -0.268 OA
HETATM   23  H12 UNL     1      21.077   2.869  50.225  1.00  0.00     0.169 HD
BRANCH  21  24
HETATM   24  C6  UNL     1      21.431   5.285  51.010  1.00  0.00     0.071 C 
HETATM   25  C5  UNL     1      21.855   6.557  51.007  1.00  0.00    -0.017 C 
BRANCH  25  26
HETATM   26  C3  UNL     1      21.603   7.762  50.210  1.00  0.00     0.004 C 
HETATM   27  C4  UNL     1      22.530   7.818  49.019  1.00  0.00     0.014 C 
BRANCH  26  28
HETATM   28  C2  UNL     1      20.172   7.774  49.666  1.00  0.00     0.003 C 
HETATM   29  C1  UNL     1      19.498   9.110  49.976  1.00  0.00     0.006 C 
ENDBRANCH  26  28
ENDBRANCH  25  26
ENDBRANCH  21  24
ENDBRANCH   8  20
ENDBRANCH   4   5
ENDBRANCH   1   4
TORSDOF 6
ENDMDL
MODEL 6
REMARK VINA RESULT:      -7.6      2.905      8.758
REMARK  6 active torsions:
REMARK  status: ('A' for Active; 'I' for Inactive)
REMARK    1  A    between atoms: C2_2  and  C3_3 
REMARK    2  A    between atoms: C3_3  and  C5_5 
REMARK    3  A    between atoms: C6_6  and  C7_7 
REMARK       I    between atoms: C7_7  and  N1_9 
REMARK    4  A    between atoms: N1_9  and  C8_10 
REMARK    5  A    between atoms: C11_13  and  C12_14 
REMARK    6  A    between atoms: C12_14  and  C13_15 
ROOT
HETATM    1  C13 UNL     1      19.554   3.733  46.099  1.00  0.00     0.128 C 
HETATM    2  C14 UNL     1      20.367   3.758  44.888  1.00  0.00     0.059 C 
HETATM    3  N2  UNL     1      21.006   3.779  43.936  1.00  0.00    -0.197 NA
ENDROOT
BRANCH   1   4
HETATM    4  C12 UNL     1      19.950   4.867  47.041  1.00  0.00     0.048 C 
BRANCH   4   5
HETATM    5  C11 UNL     1      21.135   4.487  47.838  1.00  0.00    -0.077 C 
HETATM    6  C10 UNL     1      21.487   3.571  48.777  1.00  0.00     0.005 C 
HETATM    7  C9  UNL     1      22.792   3.412  49.460  1.00  0.00     0.031 C 
HETATM    8  C8  UNL     1      24.046   3.700  49.733  1.00  0.00     0.049 C 
HETATM    9  C22 UNL     1      24.995   4.713  49.214  1.00  0.00     0.039 A 
HETATM   10  C17 UNL     1      24.862   5.941  48.660  1.00  0.00     0.042 A 
HETATM   11  C21 UNL     1      26.274   4.218  49.338  1.00  0.00     0.048 A 
HETATM   12  N3  UNL     1      23.819   6.864  48.277  1.00  0.00    -0.389 N 
HETATM   13  C18 UNL     1      26.046   6.585  48.271  1.00  0.00     0.030 A 
HETATM   14  C16 UNL     1      22.411   6.452  48.274  1.00  0.00     0.124 C 
HETATM   15  H23 UNL     1      23.894   7.845  47.990  1.00  0.00     0.159 HD
HETATM   16  C15 UNL     1      22.444   5.105  47.583  1.00  0.00     0.053 C 
HETATM   17  C19 UNL     1      27.324   6.072  48.404  1.00  0.00     0.004 A 
HETATM   18  C20 UNL     1      27.461   4.820  48.965  1.00  0.00     0.025 A 
HETATM   19 CL1  UNL     1      26.681   2.622  49.992  1.00  0.00    -0.083 Cl
BRANCH   8  20
HETATM   20  N1  UNL     1      24.415   2.728  50.740  1.00  0.00    -0.323 N 
HETATM   21  C7  UNL     1      24.104   2.978  52.102  1.00  0.00     0.245 C 
HETATM   22  O1  UNL     1      23.619   3.673  52.990  1.00  0.00    -0.268 OA
HETATM   23  H12 UNL     1      24.895   1.838  50.433  1.00  0.00     0.169 HD
BRANCH  21  24
HETATM   24  C6  UNL     1      24.548   1.920  52.973  1.00  0.00     0.071 C 
HETATM   25  C5  UNL     1      25.112   0.725  52.743  1.00  0.00    -0.017 C 
BRANCH  25  26
HETATM   26  C3  UNL     1      25.592  -0.401  53.551  1.00  0.00     0.004 C 
HETATM   27  C4  UNL     1      26.578  -1.237  52.769  1.00  0.00     0.014 C 
BRANCH  26  28
HETATM   28  C2  UNL     1      26.317   0.092  54.807  1.00  0.00     0.003 C 
HETATM   29  C1  UNL     1      27.762   0.461  54.473  1.00  0.00     0.006 C 
ENDBRANCH  26  28
ENDBRANCH  25  26
ENDBRANCH  21  24
ENDBRANCH   8  20
ENDBRANCH   4   5
ENDBRANCH   1   4
TORSDOF 6
ENDMDL
MODEL 7
REMARK VINA RESULT:      -7.5      3.258      7.869
REMARK  6 active torsions:
REMARK  status: ('A' for Active; 'I' for Inactive)
REMARK    1  A    between atoms: C2_2  and  C3_3 
REMARK    2  A    between atoms: C3_3  and  C5_5 
REMARK    3  A    between atoms: C6_6  and  C7_7 
REMARK       I    between atoms: C7_7  and  N1_9 
REMARK    4  A    between atoms: N1_9  and  C8_10 
REMARK    5  A    between atoms: C11_13  and  C12_14 
REMARK    6  A    between atoms: C12_14  and  C13_15 
ROOT
HETATM    1  C13 UNL     1      20.719   3.686  46.161  1.00  0.00     0.128 C 
HETATM    2  C14 UNL     1      20.758   3.729  44.703  1.00  0.00     0.059 C 
HETATM    3  N2  UNL     1      20.791   3.763  43.558  1.00  0.00    -0.197 NA
ENDROOT
BRANCH   1   4
HETATM    4  C12 UNL     1      22.111   3.442  46.734  1.00  0.00     0.048 C 
BRANCH   4   5
HETATM    5  C11 UNL     1      22.022   2.716  48.018  1.00  0.00    -0.077 C 
HETATM    6  C10 UNL     1      21.177   1.868  48.660  1.00  0.00     0.005 C 
HETATM    7  C9  UNL     1      21.319   1.277  50.010  1.00  0.00     0.031 C 
HETATM    8  C8  UNL     1      21.904   1.056  51.168  1.00  0.00     0.049 C 
HETATM    9  C22 UNL     1      23.180   1.511  51.767  1.00  0.00     0.039 A 
HETATM   10  C17 UNL     1      23.968   2.600  51.609  1.00  0.00     0.042 A 
HETATM   11  C21 UNL     1      23.610   0.553  52.659  1.00  0.00     0.048 A 
HETATM   12  N3  UNL     1      24.017   3.811  50.824  1.00  0.00    -0.389 N 
HETATM   13  C18 UNL     1      25.142   2.642  52.374  1.00  0.00     0.030 A 
HETATM   14  C16 UNL     1      23.099   4.020  49.698  1.00  0.00     0.124 C 
HETATM   15  H23 UNL     1      24.628   4.628  50.929  1.00  0.00     0.159 HD
HETATM   16  C15 UNL     1      23.154   2.701  48.956  1.00  0.00     0.053 C 
HETATM   17  C19 UNL     1      25.558   1.671  53.267  1.00  0.00     0.004 A 
HETATM   18  C20 UNL     1      24.758   0.559  53.428  1.00  0.00     0.025 A 
HETATM   19 CL1  UNL     1      22.764  -0.968  52.994  1.00  0.00    -0.083 Cl
BRANCH   8  20
HETATM   20  N1  UNL     1      20.996   0.159  51.851  1.00  0.00    -0.323 N 
HETATM   21  C7  UNL     1      19.629   0.517  51.988  1.00  0.00     0.245 C 
HETATM   22  O1  UNL     1      18.690   1.285  51.803  1.00  0.00    -0.268 OA
HETATM   23  H12 UNL     1      21.371  -0.758  52.218  1.00  0.00     0.169 HD
BRANCH  21  24
HETATM   24  C6  UNL     1      18.867  -0.477  52.700  1.00  0.00     0.071 C 
HETATM   25  C5  UNL     1      17.620  -0.947  52.553  1.00  0.00    -0.017 C 
BRANCH  25  26
HETATM   26  C3  UNL     1      16.770  -1.941  53.217  1.00  0.00     0.004 C 
HETATM   27  C4  UNL     1      15.705  -2.448  52.273  1.00  0.00     0.014 C 
BRANCH  26  28
HETATM   28  C2  UNL     1      17.588  -3.155  53.664  1.00  0.00     0.003 C 
HETATM   29  C1  UNL     1      16.869  -4.449  53.281  1.00  0.00     0.006 C 
ENDBRANCH  26  28
ENDBRANCH  25  26
ENDBRANCH  21  24
ENDBRANCH   8  20
ENDBRANCH   4   5
ENDBRANCH   1   4
TORSDOF 6
ENDMDL
MODEL 8
REMARK VINA RESULT:      -7.5      3.575      8.944
REMARK  6 active torsions:
REMARK  status: ('A' for Active; 'I' for Inactive)
REMARK    1  A    between atoms: C2_2  and  C3_3 
REMARK    2  A    between atoms: C3_3  and  C5_5 
REMARK    3  A    between atoms: C6_6  and  C7_7 
REMARK       I    between atoms: C7_7  and  N1_9 
REMARK    4  A    between atoms: N1_9  and  C8_10 
REMARK    5  A    between atoms: C11_13  and  C12_14 
REMARK    6  A    between atoms: C12_14  and  C13_15 
ROOT
HETATM    1  C13 UNL     1      20.229   7.917  49.046  1.00  0.00     0.128 C 
HETATM    2  C14 UNL     1      20.134   9.353  48.808  1.00  0.00     0.059 C 
HETATM    3  N2  UNL     1      20.058  10.482  48.622  1.00  0.00    -0.197 NA
ENDROOT
BRANCH   1   4
HETATM    4  C12 UNL     1      20.622   7.632  50.492  1.00  0.00     0.048 C 
BRANCH   4   5
HETATM    5  C11 UNL     1      21.773   6.707  50.543  1.00  0.00    -0.077 C 
HETATM    6  C10 UNL     1      22.072   5.468  51.013  1.00  0.00     0.005 C 
HETATM    7  C9  UNL     1      23.366   4.749  50.948  1.00  0.00     0.031 C 
HETATM    8  C8  UNL     1      24.634   4.586  50.639  1.00  0.00     0.049 C 
HETATM    9  C22 UNL     1      25.624   5.428  49.927  1.00  0.00     0.039 A 
HETATM   10  C17 UNL     1      25.778   6.760  49.740  1.00  0.00     0.042 A 
HETATM   11  C21 UNL     1      26.552   4.601  49.331  1.00  0.00     0.048 A 
HETATM   12  N3  UNL     1      25.115   7.997  50.078  1.00  0.00    -0.389 N 
HETATM   13  C18 UNL     1      26.872   7.162  48.959  1.00  0.00     0.030 A 
HETATM   14  C16 UNL     1      23.773   7.997  50.671  1.00  0.00     0.124 C 
HETATM   15  H23 UNL     1      25.449   8.961  49.976  1.00  0.00     0.159 HD
HETATM   16  C15 UNL     1      23.013   7.006  49.813  1.00  0.00     0.053 C 
HETATM   17  C19 UNL     1      27.796   6.317  48.370  1.00  0.00     0.004 A 
HETATM   18  C20 UNL     1      27.639   4.959  48.557  1.00  0.00     0.025 A 
HETATM   19 CL1  UNL     1      26.524   2.831  49.406  1.00  0.00    -0.083 Cl
BRANCH   8  20
HETATM   20  N1  UNL     1      24.951   3.269  51.149  1.00  0.00    -0.323 N 
HETATM   21  C7  UNL     1      24.796   3.000  52.534  1.00  0.00     0.245 C 
HETATM   22  O1  UNL     1      24.491   3.339  53.673  1.00  0.00    -0.268 OA
HETATM   23  H12 UNL     1      25.274   2.527  50.470  1.00  0.00     0.169 HD
BRANCH  21  24
HETATM   24  C6  UNL     1      25.164   1.650  52.878  1.00  0.00     0.071 C 
HETATM   25  C5  UNL     1      26.279   1.111  53.391  1.00  0.00    -0.017 C 
BRANCH  25  26
HETATM   26  C3  UNL     1      26.739  -0.229  53.771  1.00  0.00     0.004 C 
HETATM   27  C4  UNL     1      26.700  -1.162  52.582  1.00  0.00     0.014 C 
BRANCH  26  28
HETATM   28  C2  UNL     1      28.186  -0.195  54.268  1.00  0.00     0.003 C 
HETATM   29  C1  UNL     1      29.074  -1.062  53.375  1.00  0.00     0.006 C 
ENDBRANCH  26  28
ENDBRANCH  25  26
ENDBRANCH  21  24
ENDBRANCH   8  20
ENDBRANCH   4   5
ENDBRANCH   1   4
TORSDOF 6
ENDMDL
MODEL 9
REMARK VINA RESULT:      -7.3      7.775     11.663
REMARK  6 active torsions:
REMARK  status: ('A' for Active; 'I' for Inactive)
REMARK    1  A    between atoms: C2_2  and  C3_3 
REMARK    2  A    between atoms: C3_3  and  C5_5 
REMARK    3  A    between atoms: C6_6  and  C7_7 
REMARK       I    between atoms: C7_7  and  N1_9 
REMARK    4  A    between atoms: N1_9  and  C8_10 
REMARK    5  A    between atoms: C11_13  and  C12_14 
REMARK    6  A    between atoms: C12_14  and  C13_15 
ROOT
HETATM    1  C13 UNL     1      24.777   5.717  48.868  1.00  0.00     0.128 C 
HETATM    2  C14 UNL     1      23.807   5.594  49.951  1.00  0.00     0.059 C 
HETATM    3  N2  UNL     1      23.045   5.500  50.803  1.00  0.00    -0.197 NA
ENDROOT
BRANCH   1   4
HETATM    4  C12 UNL     1      25.161   7.176  48.646  1.00  0.00     0.048 C 
BRANCH   4   5
HETATM    5  C11 UNL     1      26.622   7.305  48.464  1.00  0.00    -0.077 C 
HETATM    6  C10 UNL     1      27.689   6.522  48.160  1.00  0.00     0.005 C 
HETATM    7  C9  UNL     1      29.114   6.912  48.057  1.00  0.00     0.031 C 
HETATM    8  C8  UNL     1      30.139   7.737  48.097  1.00  0.00     0.049 C 
HETATM    9  C22 UNL     1      30.266   9.190  48.358  1.00  0.00     0.039 A 
HETATM   10  C17 UNL     1      29.545  10.095  49.062  1.00  0.00     0.042 A 
HETATM   11  C21 UNL     1      31.375   9.658  47.689  1.00  0.00     0.048 A 
HETATM   12  N3  UNL     1      28.345  10.155  49.863  1.00  0.00    -0.389 N 
HETATM   13  C18 UNL     1      30.006  11.419  49.039  1.00  0.00     0.030 A 
HETATM   14  C16 UNL     1      27.414   9.022  49.915  1.00  0.00     0.124 C 
HETATM   15  H23 UNL     1      28.002  10.913  50.462  1.00  0.00     0.159 HD
HETATM   16  C15 UNL     1      27.267   8.625  48.460  1.00  0.00     0.053 C 
HETATM   17  C19 UNL     1      31.125  11.872  48.361  1.00  0.00     0.004 A 
HETATM   18  C20 UNL     1      31.858  10.952  47.642  1.00  0.00     0.025 A 
HETATM   19 CL1  UNL     1      32.438   8.666  46.676  1.00  0.00    -0.083 Cl
BRANCH   8  20
HETATM   20  N1  UNL     1      31.274   6.897  47.781  1.00  0.00    -0.323 N 
HETATM   21  C7  UNL     1      31.725   5.943  48.730  1.00  0.00     0.245 C 
HETATM   22  O1  UNL     1      31.644   5.379  49.817  1.00  0.00    -0.268 OA
HETATM   23  H12 UNL     1      31.734   7.002  46.835  1.00  0.00     0.169 HD
BRANCH  21  24
HETATM   24  C6  UNL     1      32.868   5.199  48.265  1.00  0.00     0.071 C 
HETATM   25  C5  UNL     1      33.553   5.206  47.112  1.00  0.00    -0.017 C 
BRANCH  25  26
HETATM   26  C3  UNL     1      34.711   4.498  46.556  1.00  0.00     0.004 C 
HETATM   27  C4  UNL     1      34.837   3.122  47.165  1.00  0.00     0.014 C 
BRANCH  26  28
HETATM   28  C2  UNL     1      34.566   4.308  45.044  1.00  0.00     0.003 C 
HETATM   29  C1  UNL     1      33.127   4.582  44.610  1.00  0.00     0.006 C 
ENDBRANCH  26  28
ENDBRANCH  25  26
ENDBRANCH  21  24
ENDBRANCH   8  20
ENDBRANCH   4   5
ENDBRANCH   1   4
TORSDOF 6
ENDMDL
