MODEL 1
REMARK VINA RESULT:      -7.9      0.000      0.000
REMARK  3 active torsions:
REMARK  status: ('A' for Active; 'I' for Inactive)
REMARK    1  A    between atoms: C3_3  and  C4_5 
REMARK    2  A    between atoms: C8_11  and  N3_12 
REMARK    3  A    between atoms: N3_12  and  C9_13 
ROOT
HETATM    1  C4  UNL     1      24.429   0.482  53.383  1.00  0.00    -0.004 C 
HETATM    2  C5  UNL     1      25.179   0.038  54.453  1.00  0.00     0.070 C 
HETATM    3  C6  UNL     1      26.572   0.419  54.927  1.00  0.00     0.156 C 
HETATM    4  N1  UNL     1      27.101   1.524  54.109  1.00  0.00    -0.282 NA
HETATM    5  C7  UNL     1      26.992   1.418  52.817  1.00  0.00     0.228 C 
HETATM    6  N2  UNL     1      27.294   2.144  51.637  1.00  0.00    -0.225 NA
HETATM    7  C8  UNL     1      26.161   2.325  50.919  1.00  0.00     0.129 C 
HETATM    8  C15 UNL     1      24.809   1.832  51.245  1.00  0.00     0.047 C 
HETATM    9  C16 UNL     1      24.070   1.170  52.079  1.00  0.00    -0.013 C 
ENDROOT
BRANCH   7  10
HETATM   10  N3  UNL     1      26.464   3.048  49.753  1.00  0.00    -0.341 N 
HETATM   11  H8  UNL     1      26.838   2.430  48.991  1.00  0.00     0.167 HD
BRANCH  10  12
HETATM   12  C9  UNL     1      26.308   4.446  49.588  1.00  0.00     0.034 A 
HETATM   13  C10 UNL     1      27.251   5.055  48.749  1.00  0.00     0.029 A 
HETATM   14  C11 UNL     1      27.226   6.411  48.507  1.00  0.00     0.004 A 
HETATM   15  C12 UNL     1      26.282   7.241  49.068  1.00  0.00     0.019 A 
HETATM   16  C13 UNL     1      25.352   6.647  49.894  1.00  0.00     0.013 A 
HETATM   17 BR1  UNL     1      23.996   7.688  50.731  1.00  0.00    -0.051 Br
HETATM   18  C14 UNL     1      25.398   5.289  50.121  1.00  0.00     0.048 A 
ENDBRANCH  10  12
ENDBRANCH   7  10
BRANCH   1  19
HETATM   19  C3  UNL     1      23.376  -0.443  53.852  1.00  0.00    -0.063 A 
HETATM   20  C2  UNL     1      22.108  -0.871  53.215  1.00  0.00     0.024 A 
HETATM   21  C1  UNL     1      21.639  -1.705  54.159  1.00  0.00     0.010 A 
HETATM   22  O1  UNL     1      22.735  -1.235  54.537  1.00  0.00     0.000 OA
ENDBRANCH   1  19
TORSDOF 3
ENDMDL
MODEL 2
REMARK VINA RESULT:      -7.7      2.520      3.746
REMARK  3 active torsions:
REMARK  status: ('A' for Active; 'I' for Inactive)
REMARK    1  A    between atoms: C3_3  and  C4_5 
REMARK    2  A    between atoms: C8_11  and  N3_12 
REMARK    3  A    between atoms: N3_12  and  C9_13 
ROOT
HETATM    1  C4  UNL     1      26.441   0.091  52.807  1.00  0.00    -0.004 C 
HETATM    2  C5  UNL     1      25.847  -0.598  53.845  1.00  0.00     0.070 C 
HETATM    3  C6  UNL     1      24.397  -0.688  54.288  1.00  0.00     0.156 C 
HETATM    4  N1  UNL     1      23.531   0.032  53.337  1.00  0.00    -0.282 NA
HETATM    5  C7  UNL     1      23.902   1.225  52.976  1.00  0.00     0.228 C 
HETATM    6  N2  UNL     1      23.483   2.285  52.132  1.00  0.00    -0.225 NA
HETATM    7  C8  UNL     1      24.473   2.577  51.255  1.00  0.00     0.129 C 
HETATM    8  C15 UNL     1      25.807   1.954  51.174  1.00  0.00     0.047 C 
HETATM    9  C16 UNL     1      26.622   1.072  51.664  1.00  0.00    -0.013 C 
ENDROOT
BRANCH   7  10
HETATM   10  N3  UNL     1      24.053   3.624  50.417  1.00  0.00    -0.341 N 
HETATM   11  H8  UNL     1      23.148   3.403  49.931  1.00  0.00     0.167 HD
BRANCH  10  12
HETATM   12  C9  UNL     1      24.743   4.844  50.216  1.00  0.00     0.034 A 
HETATM   13  C10 UNL     1      24.231   5.941  50.921  1.00  0.00     0.029 A 
HETATM   14  C11 UNL     1      24.798   7.192  50.811  1.00  0.00     0.004 A 
HETATM   15  C12 UNL     1      25.891   7.437  50.011  1.00  0.00     0.019 A 
HETATM   16  C13 UNL     1      26.398   6.361  49.315  1.00  0.00     0.013 A 
HETATM   17 BR1  UNL     1      27.907   6.570  48.173  1.00  0.00    -0.051 Br
HETATM   18  C14 UNL     1      25.814   5.119  49.441  1.00  0.00     0.048 A 
ENDBRANCH  10  12
ENDBRANCH   7  10
BRANCH   1  19
HETATM   19  C3  UNL     1      27.718  -0.496  53.265  1.00  0.00    -0.063 A 
HETATM   20  C2  UNL     1      29.045   0.125  53.487  1.00  0.00     0.024 A 
HETATM   21  C1  UNL     1      29.743  -0.949  53.897  1.00  0.00     0.010 A 
HETATM   22  O1  UNL     1      28.565  -1.294  53.656  1.00  0.00     0.000 OA
ENDBRANCH   1  19
TORSDOF 3
ENDMDL
MODEL 3
REMARK VINA RESULT:      -7.6      1.496      1.807
REMARK  3 active torsions:
REMARK  status: ('A' for Active; 'I' for Inactive)
REMARK    1  A    between atoms: C3_3  and  C4_5 
REMARK    2  A    between atoms: C8_11  and  N3_12 
REMARK    3  A    between atoms: N3_12  and  C9_13 
ROOT
HETATM    1  C4  UNL     1      24.359   0.812  53.033  1.00  0.00    -0.004 C 
HETATM    2  C5  UNL     1      25.300   0.358  53.936  1.00  0.00     0.070 C 
HETATM    3  C6  UNL     1      26.730   0.797  54.200  1.00  0.00     0.156 C 
HETATM    4  N1  UNL     1      27.057   1.977  53.379  1.00  0.00    -0.282 NA
HETATM    5  C7  UNL     1      26.739   1.934  52.118  1.00  0.00     0.228 C 
HETATM    6  N2  UNL     1      26.803   2.742  50.953  1.00  0.00    -0.225 NA
HETATM    7  C8  UNL     1      25.558   2.891  50.444  1.00  0.00     0.129 C 
HETATM    8  C15 UNL     1      24.307   2.298  50.953  1.00  0.00     0.047 C 
HETATM    9  C16 UNL     1      23.753   1.547  51.852  1.00  0.00    -0.013 C 
ENDROOT
BRANCH   7  10
HETATM   10  N3  UNL     1      25.624   3.695  49.293  1.00  0.00    -0.341 N 
HETATM   11  H8  UNL     1      25.244   3.204  48.446  1.00  0.00     0.167 HD
BRANCH  10  12
HETATM   12  C9  UNL     1      26.145   5.011  49.236  1.00  0.00     0.034 A 
HETATM   13  C10 UNL     1      25.431   5.966  49.972  1.00  0.00     0.029 A 
HETATM   14  C11 UNL     1      25.818   7.287  49.998  1.00  0.00     0.004 A 
HETATM   15  C12 UNL     1      26.920   7.745  49.312  1.00  0.00     0.019 A 
HETATM   16  C13 UNL     1      27.626   6.809  48.587  1.00  0.00     0.013 A 
HETATM   17 BR1  UNL     1      29.169   7.317  47.593  1.00  0.00    -0.051 Br
HETATM   18  C14 UNL     1      27.219   5.493  48.576  1.00  0.00     0.048 A 
ENDBRANCH  10  12
ENDBRANCH   7  10
BRANCH   1  19
HETATM   19  C3  UNL     1      23.448  -0.200  53.607  1.00  0.00    -0.063 A 
HETATM   20  C2  UNL     1      22.135  -0.700  53.137  1.00  0.00     0.024 A 
HETATM   21  C1  UNL     1      21.863  -1.595  54.103  1.00  0.00     0.010 A 
HETATM   22  O1  UNL     1      22.967  -1.058  54.343  1.00  0.00     0.000 OA
ENDBRANCH   1  19
TORSDOF 3
ENDMDL
MODEL 4
REMARK VINA RESULT:      -7.3      3.732      7.792
REMARK  3 active torsions:
REMARK  status: ('A' for Active; 'I' for Inactive)
REMARK    1  A    between atoms: C3_3  and  C4_5 
REMARK    2  A    between atoms: C8_11  and  N3_12 
REMARK    3  A    between atoms: N3_12  and  C9_13 
ROOT
HETATM    1  C4  UNL     1      26.670   4.996  48.997  1.00  0.00    -0.004 C 
HETATM    2  C5  UNL     1      26.436   6.255  48.480  1.00  0.00     0.070 C 
HETATM    3  C6  UNL     1      25.180   7.109  48.453  1.00  0.00     0.156 C 
HETATM    4  N1  UNL     1      24.103   6.451  49.214  1.00  0.00    -0.282 NA
HETATM    5  C7  UNL     1      23.890   5.189  48.980  1.00  0.00     0.228 C 
HETATM    6  N2  UNL     1      23.050   4.130  49.409  1.00  0.00    -0.225 NA
HETATM    7  C8  UNL     1      23.814   3.102  49.849  1.00  0.00     0.129 C 
HETATM    8  C15 UNL     1      25.287   3.026  49.861  1.00  0.00     0.047 C 
HETATM    9  C16 UNL     1      26.405   3.623  49.586  1.00  0.00    -0.013 C 
ENDROOT
BRANCH   7  10
HETATM   10  N3  UNL     1      22.979   2.057  50.277  1.00  0.00    -0.341 N 
HETATM   11  H8  UNL     1      22.154   1.924  49.641  1.00  0.00     0.167 HD
BRANCH  10  12
HETATM   12  C9  UNL     1      23.182   1.261  51.431  1.00  0.00     0.034 A 
HETATM   13  C10 UNL     1      22.064   0.533  51.857  1.00  0.00     0.029 A 
HETATM   14  C11 UNL     1      22.115  -0.275  52.972  1.00  0.00     0.004 A 
HETATM   15  C12 UNL     1      23.258  -0.415  53.726  1.00  0.00     0.019 A 
HETATM   16  C13 UNL     1      24.362   0.299  53.310  1.00  0.00     0.013 A 
HETATM   17 BR1  UNL     1      26.003   0.190  54.270  1.00  0.00    -0.051 Br
HETATM   18  C14 UNL     1      24.285   1.100  52.193  1.00  0.00     0.048 A 
ENDBRANCH  10  12
ENDBRANCH   7  10
BRANCH   1  19
HETATM   19  C3  UNL     1      28.062   5.159  48.527  1.00  0.00    -0.063 A 
HETATM   20  C2  UNL     1      28.818   6.373  48.140  1.00  0.00     0.024 A 
HETATM   21  C1  UNL     1      30.003   5.822  47.825  1.00  0.00     0.010 A 
HETATM   22  O1  UNL     1      29.216   4.919  48.184  1.00  0.00     0.000 OA
ENDBRANCH   1  19
TORSDOF 3
ENDMDL
MODEL 5
REMARK VINA RESULT:      -7.3      1.786      2.119
REMARK  3 active torsions:
REMARK  status: ('A' for Active; 'I' for Inactive)
REMARK    1  A    between atoms: C3_3  and  C4_5 
REMARK    2  A    between atoms: C8_11  and  N3_12 
REMARK    3  A    between atoms: N3_12  and  C9_13 
ROOT
HETATM    1  C4  UNL     1      24.268   0.539  52.999  1.00  0.00    -0.004 C 
HETATM    2  C5  UNL     1      25.078  -0.542  53.284  1.00  0.00     0.070 C 
HETATM    3  C6  UNL     1      26.586  -0.711  53.210  1.00  0.00     0.156 C 
HETATM    4  N1  UNL     1      27.223   0.571  52.859  1.00  0.00    -0.282 NA
HETATM    5  C7  UNL     1      26.715   1.239  51.865  1.00  0.00     0.228 C 
HETATM    6  N2  UNL     1      26.908   2.455  51.161  1.00  0.00    -0.225 NA
HETATM    7  C8  UNL     1      25.764   3.179  51.195  1.00  0.00     0.129 C 
HETATM    8  C15 UNL     1      24.482   2.794  51.813  1.00  0.00     0.047 C 
HETATM    9  C16 UNL     1      23.826   1.892  52.474  1.00  0.00    -0.013 C 
ENDROOT
BRANCH   7  10
HETATM   10  N3  UNL     1      25.961   4.384  50.500  1.00  0.00    -0.341 N 
HETATM   11  H8  UNL     1      26.980   4.602  50.367  1.00  0.00     0.167 HD
BRANCH  10  12
HETATM   12  C9  UNL     1      24.934   5.239  50.027  1.00  0.00     0.034 A 
HETATM   13  C10 UNL     1      24.643   6.332  50.853  1.00  0.00     0.029 A 
HETATM   14  C11 UNL     1      23.660   7.239  50.523  1.00  0.00     0.004 A 
HETATM   15  C12 UNL     1      22.913   7.127  49.372  1.00  0.00     0.019 A 
HETATM   16  C13 UNL     1      23.196   6.053  48.556  1.00  0.00     0.013 A 
HETATM   17 BR1  UNL     1      22.232   5.787  46.936  1.00  0.00    -0.051 Br
HETATM   18  C14 UNL     1      24.184   5.159  48.908  1.00  0.00     0.048 A 
ENDBRANCH  10  12
ENDBRANCH   7  10
BRANCH   1  19
HETATM   19  C3  UNL     1      23.132  -0.320  53.396  1.00  0.00    -0.063 A 
HETATM   20  C2  UNL     1      21.830   0.020  54.014  1.00  0.00     0.024 A 
HETATM   21  C1  UNL     1      21.283  -1.205  54.103  1.00  0.00     0.010 A 
HETATM   22  O1  UNL     1      22.420  -1.301  53.590  1.00  0.00     0.000 OA
ENDBRANCH   1  19
TORSDOF 3
ENDMDL
MODEL 6
REMARK VINA RESULT:      -7.2      3.721      4.840
REMARK  3 active torsions:
REMARK  status: ('A' for Active; 'I' for Inactive)
REMARK    1  A    between atoms: C3_3  and  C4_5 
REMARK    2  A    between atoms: C8_11  and  N3_12 
REMARK    3  A    between atoms: N3_12  and  C9_13 
ROOT
HETATM    1  C4  UNL     1      24.928  -0.193  53.915  1.00  0.00    -0.004 C 
HETATM    2  C5  UNL     1      24.676  -0.949  55.042  1.00  0.00     0.070 C 
HETATM    3  C6  UNL     1      23.381  -1.512  55.603  1.00  0.00     0.156 C 
HETATM    4  N1  UNL     1      22.268  -1.244  54.674  1.00  0.00    -0.282 NA
HETATM    5  C7  UNL     1      22.161  -0.036  54.202  1.00  0.00     0.228 C 
HETATM    6  N2  UNL     1      21.345   0.718  53.320  1.00  0.00    -0.225 NA
HETATM    7  C8  UNL     1      22.117   1.261  52.350  1.00  0.00     0.129 C 
HETATM    8  C15 UNL     1      23.581   1.155  52.210  1.00  0.00     0.047 C 
HETATM    9  C16 UNL     1      24.684   0.676  52.695  1.00  0.00    -0.013 C 
ENDROOT
BRANCH   7  10
HETATM   10  N3  UNL     1      21.305   2.004  51.477  1.00  0.00    -0.341 N 
HETATM   11  H8  UNL     1      20.377   2.245  51.907  1.00  0.00     0.167 HD
BRANCH  10  12
HETATM   12  C9  UNL     1      21.652   2.392  50.159  1.00  0.00     0.034 A 
HETATM   13  C10 UNL     1      21.622   1.364  49.208  1.00  0.00     0.029 A 
HETATM   14  C11 UNL     1      21.947   1.596  47.890  1.00  0.00     0.004 A 
HETATM   15  C12 UNL     1      22.317   2.840  47.432  1.00  0.00     0.019 A 
HETATM   16  C13 UNL     1      22.349   3.855  48.364  1.00  0.00     0.013 A 
HETATM   17 BR1  UNL     1      22.846   5.622  47.855  1.00  0.00    -0.051 Br
HETATM   18  C14 UNL     1      22.019   3.598  49.677  1.00  0.00     0.048 A 
ENDBRANCH  10  12
ENDBRANCH   7  10
BRANCH   1  19
HETATM   19  C3  UNL     1      26.351  -0.235  54.312  1.00  0.00    -0.063 A 
HETATM   20  C2  UNL     1      27.419   0.786  54.202  1.00  0.00     0.024 A 
HETATM   21  C1  UNL     1      28.448   0.111  54.743  1.00  0.00     0.010 A 
HETATM   22  O1  UNL     1      27.431  -0.618  54.752  1.00  0.00     0.000 OA
ENDBRANCH   1  19
TORSDOF 3
ENDMDL
MODEL 7
REMARK VINA RESULT:      -7.1      4.125      6.704
REMARK  3 active torsions:
REMARK  status: ('A' for Active; 'I' for Inactive)
REMARK    1  A    between atoms: C3_3  and  C4_5 
REMARK    2  A    between atoms: C8_11  and  N3_12 
REMARK    3  A    between atoms: N3_12  and  C9_13 
ROOT
HETATM    1  C4  UNL     1      25.626   1.009  52.325  1.00  0.00    -0.004 C 
HETATM    2  C5  UNL     1      26.538   1.607  51.478  1.00  0.00     0.070 C 
HETATM    3  C6  UNL     1      26.454   2.880  50.653  1.00  0.00     0.156 C 
HETATM    4  N1  UNL     1      25.192   3.587  50.938  1.00  0.00    -0.282 NA
HETATM    5  C7  UNL     1      24.099   2.881  50.937  1.00  0.00     0.228 C 
HETATM    6  N2  UNL     1      22.705   3.036  51.150  1.00  0.00    -0.225 NA
HETATM    7  C8  UNL     1      22.305   2.192  52.130  1.00  0.00     0.129 C 
HETATM    8  C15 UNL     1      23.135   1.217  52.862  1.00  0.00     0.047 C 
HETATM    9  C16 UNL     1      24.314   0.702  53.022  1.00  0.00    -0.013 C 
ENDROOT
BRANCH   7  10
HETATM   10  N3  UNL     1      20.925   2.351  52.341  1.00  0.00    -0.341 N 
HETATM   11  H8  UNL     1      20.699   3.267  52.803  1.00  0.00     0.167 HD
BRANCH  10  12
HETATM   12  C9  UNL     1      19.926   1.408  51.998  1.00  0.00     0.034 A 
HETATM   13  C10 UNL     1      19.356   1.579  50.730  1.00  0.00     0.029 A 
HETATM   14  C11 UNL     1      18.365   0.740  50.269  1.00  0.00     0.004 A 
HETATM   15  C12 UNL     1      17.880  -0.307  51.020  1.00  0.00     0.019 A 
HETATM   16  C13 UNL     1      18.437  -0.479  52.269  1.00  0.00     0.013 A 
HETATM   17 BR1  UNL     1      17.851  -1.891  53.404  1.00  0.00    -0.051 Br
HETATM   18  C14 UNL     1      19.427   0.373  52.707  1.00  0.00     0.048 A 
ENDBRANCH  10  12
ENDBRANCH   7  10
BRANCH   1  19
HETATM   19  C3  UNL     1      26.654  -0.028  52.555  1.00  0.00    -0.063 A 
HETATM   20  C2  UNL     1      26.538  -1.502  52.651  1.00  0.00     0.024 A 
HETATM   21  C1  UNL     1      27.825  -1.827  52.861  1.00  0.00     0.010 A 
HETATM   22  O1  UNL     1      27.730  -0.585  52.753  1.00  0.00     0.000 OA
ENDBRANCH   1  19
TORSDOF 3
ENDMDL
MODEL 8
REMARK VINA RESULT:      -6.9      3.315      4.460
REMARK  3 active torsions:
REMARK  status: ('A' for Active; 'I' for Inactive)
REMARK    1  A    between atoms: C3_3  and  C4_5 
REMARK    2  A    between atoms: C8_11  and  N3_12 
REMARK    3  A    between atoms: N3_12  and  C9_13 
ROOT
HETATM    1  C4  UNL     1      26.653   0.193  52.723  1.00  0.00    -0.004 C 
HETATM    2  C5  UNL     1      26.113  -0.565  53.743  1.00  0.00     0.070 C 
HETATM    3  C6  UNL     1      24.692  -0.670  54.269  1.00  0.00     0.156 C 
HETATM    4  N1  UNL     1      23.780   0.129  53.431  1.00  0.00    -0.282 NA
HETATM    5  C7  UNL     1      24.148   1.342  53.137  1.00  0.00     0.228 C 
HETATM    6  N2  UNL     1      23.695   2.467  52.402  1.00  0.00    -0.225 NA
HETATM    7  C8  UNL     1      24.632   2.812  51.488  1.00  0.00     0.129 C 
HETATM    8  C15 UNL     1      25.948   2.181  51.277  1.00  0.00     0.047 C 
HETATM    9  C16 UNL     1      26.778   1.256  51.647  1.00  0.00    -0.013 C 
ENDROOT
BRANCH   7  10
HETATM   10  N3  UNL     1      24.178   3.924  50.759  1.00  0.00    -0.341 N 
HETATM   11  H8  UNL     1      24.710   4.798  50.998  1.00  0.00     0.167 HD
BRANCH  10  12
HETATM   12  C9  UNL     1      23.123   3.914  49.814  1.00  0.00     0.034 A 
HETATM   13  C10 UNL     1      23.262   2.983  48.776  1.00  0.00     0.029 A 
HETATM   14  C11 UNL     1      22.316   2.871  47.781  1.00  0.00     0.004 A 
HETATM   15  C12 UNL     1      21.188   3.658  47.747  1.00  0.00     0.019 A 
HETATM   16  C13 UNL     1      21.046   4.576  48.765  1.00  0.00     0.013 A 
HETATM   17 BR1  UNL     1      19.529   5.724  48.830  1.00  0.00    -0.051 Br
HETATM   18  C14 UNL     1      22.006   4.669  49.749  1.00  0.00     0.048 A 
ENDBRANCH  10  12
ENDBRANCH   7  10
BRANCH   1  19
HETATM   19  C3  UNL     1      27.946  -0.441  53.055  1.00  0.00    -0.063 A 
HETATM   20  C2  UNL     1      29.025  -0.017  53.977  1.00  0.00     0.024 A 
HETATM   21  C1  UNL     1      29.893  -1.029  53.807  1.00  0.00     0.010 A 
HETATM   22  O1  UNL     1      28.891  -1.224  53.083  1.00  0.00     0.000 OA
ENDBRANCH   1  19
TORSDOF 3
ENDMDL
MODEL 9
REMARK VINA RESULT:      -6.8      5.792      8.496
REMARK  3 active torsions:
REMARK  status: ('A' for Active; 'I' for Inactive)
REMARK    1  A    between atoms: C3_3  and  C4_5 
REMARK    2  A    between atoms: C8_11  and  N3_12 
REMARK    3  A    between atoms: N3_12  and  C9_13 
ROOT
HETATM    1  C4  UNL     1      27.608   6.055  48.571  1.00  0.00    -0.004 C 
HETATM    2  C5  UNL     1      26.749   7.086  48.893  1.00  0.00     0.070 C 
HETATM    3  C6  UNL     1      26.930   8.594  48.844  1.00  0.00     0.156 C 
HETATM    4  N1  UNL     1      28.235   8.928  48.247  1.00  0.00    -0.282 NA
HETATM    5  C7  UNL     1      29.276   8.284  48.687  1.00  0.00     0.228 C 
HETATM    6  N2  UNL     1      30.675   8.201  48.469  1.00  0.00    -0.225 NA
HETATM    7  C8  UNL     1      31.006   6.924  48.162  1.00  0.00     0.129 C 
HETATM    8  C15 UNL     1      30.103   5.760  48.094  1.00  0.00     0.047 C 
HETATM    9  C16 UNL     1      28.889   5.322  48.219  1.00  0.00    -0.013 C 
ENDROOT
BRANCH   7  10
HETATM   10  N3  UNL     1      32.391   6.847  47.943  1.00  0.00    -0.341 N 
HETATM   11  H8  UNL     1      32.917   7.592  48.465  1.00  0.00     0.167 HD
BRANCH  10  12
HETATM   12  C9  UNL     1      33.042   5.899  47.115  1.00  0.00     0.034 A 
HETATM   13  C10 UNL     1      33.848   4.973  47.790  1.00  0.00     0.029 A 
HETATM   14  C11 UNL     1      34.548   4.001  47.110  1.00  0.00     0.004 A 
HETATM   15  C12 UNL     1      34.498   3.882  45.739  1.00  0.00     0.019 A 
HETATM   16  C13 UNL     1      33.707   4.791  45.070  1.00  0.00     0.013 A 
HETATM   17 BR1  UNL     1      33.556   4.732  43.173  1.00  0.00    -0.051 Br
HETATM   18  C14 UNL     1      33.016   5.754  45.773  1.00  0.00     0.048 A 
ENDBRANCH  10  12
ENDBRANCH   7  10
BRANCH   1  19
HETATM   19  C3  UNL     1      26.509   5.140  48.944  1.00  0.00    -0.063 A 
HETATM   20  C2  UNL     1      26.534   3.735  49.413  1.00  0.00     0.024 A 
HETATM   21  C1  UNL     1      25.217   3.513  49.569  1.00  0.00     0.010 A 
HETATM   22  O1  UNL     1      25.390   4.685  49.165  1.00  0.00     0.000 OA
ENDBRANCH   1  19
TORSDOF 3
ENDMDL
