MODEL 1
REMARK VINA RESULT:      -8.2      0.000      0.000
REMARK  6 active torsions:
REMARK  status: ('A' for Active; 'I' for Inactive)
REMARK    1  A    between atoms: C5_5  and  C6_6 
REMARK    2  A    between atoms: C6_6  and  C7_8 
REMARK    3  A    between atoms: C7_8  and  C8_9 
REMARK    4  A    between atoms: C8_9  and  C9_10 
REMARK    5  A    between atoms: C10_12  and  O1_13 
REMARK    6  A    between atoms: C16_21  and  N3_22 
ROOT
HETATM    1  C8  UNL     1      25.102   1.014  53.018  1.00  0.00     0.070 A 
HETATM    2  C12 UNL     1      25.597   0.165  51.923  1.00  0.00    -0.007 A 
HETATM    3  C13 UNL     1      26.770  -0.404  51.712  1.00  0.00    -0.001 A 
HETATM    4  C14 UNL     1      27.811  -0.201  52.697  1.00  0.00     0.021 A 
HETATM    5  C15 UNL     1      27.444   0.550  53.712  1.00  0.00     0.046 A 
HETATM    6 CL1  UNL     1      28.587   0.888  54.983  1.00  0.00    -0.087 Cl
HETATM    7  C16 UNL     1      26.172   1.244  54.062  1.00  0.00     0.281 A 
ENDROOT
BRANCH   1   8
HETATM    8  C7  UNL     1      24.647   2.382  52.584  1.00  0.00     0.082 C 
BRANCH   8   9
HETATM    9  C6  UNL     1      24.373   2.532  51.154  1.00  0.00     0.037 C 
HETATM   10  N1  UNL     1      23.437   1.853  50.596  1.00  0.00    -0.304 NA
HETATM   11  H6  UNL     1      23.219   1.940  49.588  1.00  0.00     0.186 HD
BRANCH   9  12
HETATM   12  C5  UNL     1      25.209   3.480  50.427  1.00  0.00    -0.012 A 
HETATM   13  C4  UNL     1      24.925   4.824  50.331  1.00  0.00     0.014 A 
HETATM   14  C3  UNL     1      25.693   5.743  49.653  1.00  0.00     0.007 A 
HETATM   15  C2  UNL     1      26.833   5.318  49.016  1.00  0.00    -0.062 A 
HETATM   16  C1  UNL     1      27.744   6.210  48.253  1.00  0.00     0.048 C 
HETATM   17  C18 UNL     1      27.178   3.985  49.071  1.00  0.00     0.007 A 
HETATM   18  C17 UNL     1      26.362   3.119  49.768  1.00  0.00     0.014 A 
ENDBRANCH   9  12
ENDBRANCH   8   9
ENDBRANCH   1   8
BRANCH   1  19
HETATM   19  C9  UNL     1      23.975   0.277  53.713  1.00  0.00     0.093 A 
HETATM   20  N2  UNL     1      23.946  -0.587  54.499  1.00  0.00    -0.221 NA
HETATM   21  C10 UNL     1      22.868  -1.138  55.021  1.00  0.00     0.169 A 
HETATM   22  C11 UNL     1      21.648  -0.638  54.591  1.00  0.00     0.109 A 
HETATM   23  S1  UNL     1      22.150   0.633  53.424  1.00  0.00    -0.081 SA
BRANCH  21  24
HETATM   24  O1  UNL     1      22.998  -2.178  55.963  1.00  0.00    -0.344 OA
HETATM   25  H9  UNL     1      23.836  -2.738  56.047  1.00  0.00     0.219 HD
ENDBRANCH  21  24
ENDBRANCH   1  19
BRANCH   7  26
HETATM   26  N3  UNL     1      26.471   2.661  54.246  1.00  0.00     0.089 N 
HETATM   27  H15 UNL     1      26.183   2.909  55.214  1.00  0.00     0.313 HD
HETATM   28  H16 UNL     1      25.905   3.176  53.533  1.00  0.00     0.313 HD
ENDBRANCH   7  26
TORSDOF 6
ENDMDL
MODEL 2
REMARK VINA RESULT:      -8.0      4.140      6.784
REMARK  6 active torsions:
REMARK  status: ('A' for Active; 'I' for Inactive)
REMARK    1  A    between atoms: C5_5  and  C6_6 
REMARK    2  A    between atoms: C6_6  and  C7_8 
REMARK    3  A    between atoms: C7_8  and  C8_9 
REMARK    4  A    between atoms: C8_9  and  C9_10 
REMARK    5  A    between atoms: C10_12  and  O1_13 
REMARK    6  A    between atoms: C16_21  and  N3_22 
ROOT
HETATM    1  C8  UNL     1      22.559   3.238  50.978  1.00  0.00     0.070 A 
HETATM    2  C12 UNL     1      22.890   2.266  49.925  1.00  0.00    -0.007 A 
HETATM    3  C13 UNL     1      22.177   1.765  48.932  1.00  0.00    -0.001 A 
HETATM    4  C14 UNL     1      20.806   2.208  48.790  1.00  0.00     0.021 A 
HETATM    5  C15 UNL     1      20.433   3.082  49.698  1.00  0.00     0.046 A 
HETATM    6 CL1  UNL     1      18.808   3.712  49.661  1.00  0.00    -0.087 Cl
HETATM    7  C16 UNL     1      21.129   3.717  50.853  1.00  0.00     0.281 A 
ENDROOT
BRANCH   1   8
HETATM    8  C7  UNL     1      22.696   2.704  52.379  1.00  0.00     0.082 C 
BRANCH   8   9
HETATM    9  C6  UNL     1      24.049   2.731  52.935  1.00  0.00     0.037 C 
HETATM   10  N1  UNL     1      24.498   3.790  53.505  1.00  0.00    -0.304 NA
HETATM   11  H6  UNL     1      25.448   3.838  53.910  1.00  0.00     0.186 HD
BRANCH   9  12
HETATM   12  C5  UNL     1      24.832   1.507  52.804  1.00  0.00    -0.012 A 
HETATM   13  C4  UNL     1      25.962   1.410  52.025  1.00  0.00     0.014 A 
HETATM   14  C3  UNL     1      26.722   0.271  51.881  1.00  0.00     0.007 A 
HETATM   15  C2  UNL     1      26.351  -0.867  52.554  1.00  0.00    -0.062 A 
HETATM   16  C1  UNL     1      27.086  -2.157  52.482  1.00  0.00     0.048 C 
HETATM   17  C18 UNL     1      25.228  -0.841  53.353  1.00  0.00     0.007 A 
HETATM   18  C17 UNL     1      24.513   0.335  53.451  1.00  0.00     0.014 A 
ENDBRANCH   9  12
ENDBRANCH   8   9
ENDBRANCH   1   8
BRANCH   1  19
HETATM   19  C9  UNL     1      23.438   4.457  50.788  1.00  0.00     0.093 A 
HETATM   20  N2  UNL     1      23.393   5.550  51.198  1.00  0.00    -0.221 NA
HETATM   21  C10 UNL     1      24.247   6.522  50.939  1.00  0.00     0.169 A 
HETATM   22  C11 UNL     1      25.301   6.210  50.093  1.00  0.00     0.109 A 
HETATM   23  S1  UNL     1      24.983   4.482  49.714  1.00  0.00    -0.081 SA
BRANCH  21  24
HETATM   24  O1  UNL     1      24.056   7.794  51.514  1.00  0.00    -0.344 OA
HETATM   25  H9  UNL     1      24.699   8.562  51.369  1.00  0.00     0.219 HD
ENDBRANCH  21  24
ENDBRANCH   1  19
BRANCH   7  26
HETATM   26  N3  UNL     1      20.346   3.440  52.054  1.00  0.00     0.089 N 
HETATM   27  H15 UNL     1      20.063   4.358  52.450  1.00  0.00     0.313 HD
HETATM   28  H16 UNL     1      20.979   2.920  52.705  1.00  0.00     0.313 HD
ENDBRANCH   7  26
TORSDOF 6
ENDMDL
MODEL 3
REMARK VINA RESULT:      -7.9      3.172      5.147
REMARK  6 active torsions:
REMARK  status: ('A' for Active; 'I' for Inactive)
REMARK    1  A    between atoms: C5_5  and  C6_6 
REMARK    2  A    between atoms: C6_6  and  C7_8 
REMARK    3  A    between atoms: C7_8  and  C8_9 
REMARK    4  A    between atoms: C8_9  and  C9_10 
REMARK    5  A    between atoms: C10_12  and  O1_13 
REMARK    6  A    between atoms: C16_21  and  N3_22 
ROOT
HETATM    1  C8  UNL     1      23.385   2.257  52.084  1.00  0.00     0.070 A 
HETATM    2  C12 UNL     1      23.833   3.355  52.955  1.00  0.00    -0.007 A 
HETATM    3  C13 UNL     1      23.438   4.611  53.063  1.00  0.00    -0.001 A 
HETATM    4  C14 UNL     1      22.371   5.064  52.196  1.00  0.00     0.021 A 
HETATM    5  C15 UNL     1      21.915   4.136  51.384  1.00  0.00     0.046 A 
HETATM    6 CL1  UNL     1      20.627   4.527  50.276  1.00  0.00    -0.087 Cl
HETATM    7  C16 UNL     1      22.270   2.704  51.165  1.00  0.00     0.281 A 
ENDROOT
BRANCH   1   8
HETATM    8  C7  UNL     1      24.460   1.700  51.188  1.00  0.00     0.082 C 
BRANCH   8   9
HETATM    9  C6  UNL     1      25.785   2.304  51.341  1.00  0.00     0.037 C 
HETATM   10  N1  UNL     1      26.027   3.471  50.863  1.00  0.00    -0.304 NA
HETATM   11  H6  UNL     1      26.951   3.924  50.958  1.00  0.00     0.186 HD
BRANCH   9  12
HETATM   12  C5  UNL     1      26.783   1.515  52.053  1.00  0.00    -0.012 A 
HETATM   13  C4  UNL     1      27.802   2.070  52.794  1.00  0.00     0.014 A 
HETATM   14  C3  UNL     1      28.758   1.353  53.477  1.00  0.00     0.007 A 
HETATM   15  C2  UNL     1      28.718  -0.019  53.436  1.00  0.00    -0.062 A 
HETATM   16  C1  UNL     1      29.690  -0.903  54.129  1.00  0.00     0.048 C 
HETATM   17  C18 UNL     1      27.724  -0.642  52.713  1.00  0.00     0.007 A 
HETATM   18  C17 UNL     1      26.798   0.138  52.052  1.00  0.00     0.014 A 
ENDBRANCH   9  12
ENDBRANCH   8   9
ENDBRANCH   1   8
BRANCH   1  19
HETATM   19  C9  UNL     1      22.808   1.165  52.961  1.00  0.00     0.093 A 
HETATM   20  N2  UNL     1      21.743   0.967  53.397  1.00  0.00    -0.221 NA
HETATM   21  C10 UNL     1      21.383  -0.046  54.162  1.00  0.00     0.169 A 
HETATM   22  C11 UNL     1      22.373  -0.966  54.475  1.00  0.00     0.109 A 
HETATM   23  S1  UNL     1      23.803  -0.289  53.622  1.00  0.00    -0.081 SA
BRANCH  21  24
HETATM   24  O1  UNL     1      20.052  -0.147  54.612  1.00  0.00    -0.344 OA
HETATM   25  H9  UNL     1      19.259  -0.118  53.985  1.00  0.00     0.219 HD
ENDBRANCH  21  24
ENDBRANCH   1  19
BRANCH   7  26
HETATM   26  N3  UNL     1      22.614   2.540  49.755  1.00  0.00     0.089 N 
HETATM   27  H15 UNL     1      21.808   2.895  49.203  1.00  0.00     0.313 HD
HETATM   28  H16 UNL     1      22.759   1.515  49.606  1.00  0.00     0.313 HD
ENDBRANCH   7  26
TORSDOF 6
ENDMDL
MODEL 4
REMARK VINA RESULT:      -7.9      8.553     10.795
REMARK  6 active torsions:
REMARK  status: ('A' for Active; 'I' for Inactive)
REMARK    1  A    between atoms: C5_5  and  C6_6 
REMARK    2  A    between atoms: C6_6  and  C7_8 
REMARK    3  A    between atoms: C7_8  and  C8_9 
REMARK    4  A    between atoms: C8_9  and  C9_10 
REMARK    5  A    between atoms: C10_12  and  O1_13 
REMARK    6  A    between atoms: C16_21  and  N3_22 
ROOT
HETATM    1  C8  UNL     1      30.403   7.589  48.317  1.00  0.00     0.070 A 
HETATM    2  C12 UNL     1      29.532   6.428  48.079  1.00  0.00    -0.007 A 
HETATM    3  C13 UNL     1      28.223   6.275  48.173  1.00  0.00    -0.001 A 
HETATM    4  C14 UNL     1      27.433   7.418  48.579  1.00  0.00     0.021 A 
HETATM    5  C15 UNL     1      28.143   8.501  48.810  1.00  0.00     0.046 A 
HETATM    6 CL1  UNL     1      27.335   9.962  49.308  1.00  0.00    -0.087 Cl
HETATM    7  C16 UNL     1      29.602   8.799  48.744  1.00  0.00     0.281 A 
ENDROOT
BRANCH   1   8
HETATM    8  C7  UNL     1      31.438   7.378  49.390  1.00  0.00     0.082 C 
BRANCH   8   9
HETATM    9  C6  UNL     1      31.832   5.988  49.621  1.00  0.00     0.037 C 
HETATM   10  N1  UNL     1      31.450   5.370  50.680  1.00  0.00    -0.304 NA
HETATM   11  H6  UNL     1      31.711   4.387  50.869  1.00  0.00     0.186 HD
BRANCH   9  12
HETATM   12  C5  UNL     1      32.663   5.368  48.597  1.00  0.00    -0.012 A 
HETATM   13  C4  UNL     1      32.294   4.238  47.901  1.00  0.00     0.014 A 
HETATM   14  C3  UNL     1      33.055   3.629  46.929  1.00  0.00     0.007 A 
HETATM   15  C2  UNL     1      34.277   4.166  46.606  1.00  0.00    -0.062 A 
HETATM   16  C1  UNL     1      35.190   3.604  45.577  1.00  0.00     0.048 C 
HETATM   17  C18 UNL     1      34.710   5.298  47.263  1.00  0.00     0.007 A 
HETATM   18  C17 UNL     1      33.896   5.855  48.227  1.00  0.00     0.014 A 
ENDBRANCH   9  12
ENDBRANCH   8   9
ENDBRANCH   1   8
BRANCH   1  19
HETATM   19  C9  UNL     1      31.068   7.955  47.006  1.00  0.00     0.093 A 
HETATM   20  N2  UNL     1      30.957   7.559  45.912  1.00  0.00    -0.221 NA
HETATM   21  C10 UNL     1      31.617   7.983  44.852  1.00  0.00     0.169 A 
HETATM   22  C11 UNL     1      32.535   9.001  45.062  1.00  0.00     0.109 A 
HETATM   23  S1  UNL     1      32.381   9.291  46.830  1.00  0.00    -0.081 SA
BRANCH  21  24
HETATM   24  O1  UNL     1      31.370   7.401  43.593  1.00  0.00    -0.344 OA
HETATM   25  H9  UNL     1      30.544   7.609  43.047  1.00  0.00     0.219 HD
ENDBRANCH  21  24
ENDBRANCH   1  19
BRANCH   7  26
HETATM   26  N3  UNL     1      30.015   9.303  50.051  1.00  0.00     0.089 N 
HETATM   27  H15 UNL     1      29.520   8.733  50.766  1.00  0.00     0.313 HD
HETATM   28  H16 UNL     1      29.718  10.306  50.087  1.00  0.00     0.313 HD
ENDBRANCH   7  26
TORSDOF 6
ENDMDL
MODEL 5
REMARK VINA RESULT:      -7.9      2.720      4.126
REMARK  6 active torsions:
REMARK  status: ('A' for Active; 'I' for Inactive)
REMARK    1  A    between atoms: C5_5  and  C6_6 
REMARK    2  A    between atoms: C6_6  and  C7_8 
REMARK    3  A    between atoms: C7_8  and  C8_9 
REMARK    4  A    between atoms: C8_9  and  C9_10 
REMARK    5  A    between atoms: C10_12  and  O1_13 
REMARK    6  A    between atoms: C16_21  and  N3_22 
ROOT
HETATM    1  C8  UNL     1      24.024   2.555  51.517  1.00  0.00     0.070 A 
HETATM    2  C12 UNL     1      24.145   3.758  52.354  1.00  0.00    -0.007 A 
HETATM    3  C13 UNL     1      23.292   4.728  52.630  1.00  0.00    -0.001 A 
HETATM    4  C14 UNL     1      21.974   4.664  52.036  1.00  0.00     0.021 A 
HETATM    5  C15 UNL     1      21.787   3.612  51.270  1.00  0.00     0.046 A 
HETATM    6 CL1  UNL     1      20.249   3.392  50.481  1.00  0.00    -0.087 Cl
HETATM    7  C16 UNL     1      22.655   2.463  50.881  1.00  0.00     0.281 A 
ENDROOT
BRANCH   1   8
HETATM    8  C7  UNL     1      25.012   2.487  50.383  1.00  0.00     0.082 C 
BRANCH   8   9
HETATM    9  C6  UNL     1      26.223   3.292  50.552  1.00  0.00     0.037 C 
HETATM   10  N1  UNL     1      27.121   2.946  51.402  1.00  0.00    -0.304 NA
HETATM   11  H6  UNL     1      27.988   3.493  51.541  1.00  0.00     0.186 HD
BRANCH   9  12
HETATM   12  C5  UNL     1      26.339   4.479  49.713  1.00  0.00    -0.012 A 
HETATM   13  C4  UNL     1      25.314   5.381  49.529  1.00  0.00     0.014 A 
HETATM   14  C3  UNL     1      25.393   6.509  48.745  1.00  0.00     0.007 A 
HETATM   15  C2  UNL     1      26.566   6.783  48.086  1.00  0.00    -0.062 A 
HETATM   16  C1  UNL     1      26.776   7.967  47.212  1.00  0.00     0.048 C 
HETATM   17  C18 UNL     1      27.633   5.923  48.226  1.00  0.00     0.007 A 
HETATM   18  C17 UNL     1      27.485   4.810  49.027  1.00  0.00     0.014 A 
ENDBRANCH   9  12
ENDBRANCH   8   9
ENDBRANCH   1   8
BRANCH   1  19
HETATM   19  C9  UNL     1      24.163   1.341  52.413  1.00  0.00     0.093 A 
HETATM   20  N2  UNL     1      25.081   0.726  52.793  1.00  0.00    -0.221 NA
HETATM   21  C10 UNL     1      25.047  -0.329  53.585  1.00  0.00     0.169 A 
HETATM   22  C11 UNL     1      23.792  -0.745  54.004  1.00  0.00     0.109 A 
HETATM   23  S1  UNL     1      22.710   0.447  53.206  1.00  0.00    -0.081 SA
BRANCH  21  24
HETATM   24  O1  UNL     1      26.247  -0.966  53.957  1.00  0.00    -0.344 OA
HETATM   25  H9  UNL     1      26.722  -1.630  53.359  1.00  0.00     0.219 HD
ENDBRANCH  21  24
ENDBRANCH   1  19
BRANCH   7  26
HETATM   26  N3  UNL     1      22.723   2.428  49.423  1.00  0.00     0.089 N 
HETATM   27  H15 UNL     1      23.240   1.564  49.164  1.00  0.00     0.313 HD
HETATM   28  H16 UNL     1      23.242   3.287  49.132  1.00  0.00     0.313 HD
ENDBRANCH   7  26
TORSDOF 6
ENDMDL
MODEL 6
REMARK VINA RESULT:      -7.8      4.207      7.414
REMARK  6 active torsions:
REMARK  status: ('A' for Active; 'I' for Inactive)
REMARK    1  A    between atoms: C5_5  and  C6_6 
REMARK    2  A    between atoms: C6_6  and  C7_8 
REMARK    3  A    between atoms: C7_8  and  C8_9 
REMARK    4  A    between atoms: C8_9  and  C9_10 
REMARK    5  A    between atoms: C10_12  and  O1_13 
REMARK    6  A    between atoms: C16_21  and  N3_22 
ROOT
HETATM    1  C8  UNL     1      23.902   4.166  50.156  1.00  0.00     0.070 A 
HETATM    2  C12 UNL     1      23.751   2.900  49.423  1.00  0.00    -0.007 A 
HETATM    3  C13 UNL     1      22.770   2.428  48.673  1.00  0.00    -0.001 A 
HETATM    4  C14 UNL     1      21.595   3.253  48.493  1.00  0.00     0.021 A 
HETATM    5  C15 UNL     1      21.654   4.408  49.121  1.00  0.00     0.046 A 
HETATM    6 CL1  UNL     1      20.314   5.515  49.002  1.00  0.00    -0.087 Cl
HETATM    7  C16 UNL     1      22.685   5.048  49.986  1.00  0.00     0.281 A 
ENDROOT
BRANCH   1   8
HETATM    8  C7  UNL     1      24.091   4.002  51.641  1.00  0.00     0.082 C 
BRANCH   8   9
HETATM    9  C6  UNL     1      24.814   2.800  52.057  1.00  0.00     0.037 C 
HETATM   10  N1  UNL     1      26.090   2.733  51.933  1.00  0.00    -0.304 NA
HETATM   11  H6  UNL     1      26.629   1.897  52.221  1.00  0.00     0.186 HD
BRANCH   9  12
HETATM   12  C5  UNL     1      24.011   1.715  52.608  1.00  0.00    -0.012 A 
HETATM   13  C4  UNL     1      24.548   0.537  53.077  1.00  0.00     0.014 A 
HETATM   14  C3  UNL     1      23.818  -0.504  53.603  1.00  0.00     0.007 A 
HETATM   15  C2  UNL     1      22.451  -0.389  53.680  1.00  0.00    -0.062 A 
HETATM   16  C1  UNL     1      21.554  -1.440  54.226  1.00  0.00     0.048 C 
HETATM   17  C18 UNL     1      21.847   0.764  53.228  1.00  0.00     0.007 A 
HETATM   18  C17 UNL     1      22.640   1.768  52.712  1.00  0.00     0.014 A 
ENDBRANCH   9  12
ENDBRANCH   8   9
ENDBRANCH   1   8
BRANCH   1  19
HETATM   19  C9  UNL     1      25.069   4.922  49.554  1.00  0.00     0.093 A 
HETATM   20  N2  UNL     1      26.219   4.722  49.513  1.00  0.00    -0.221 NA
HETATM   21  C10 UNL     1      27.130   5.486  48.943  1.00  0.00     0.169 A 
HETATM   22  C11 UNL     1      26.670   6.644  48.332  1.00  0.00     0.109 A 
HETATM   23  S1  UNL     1      24.900   6.552  48.629  1.00  0.00    -0.081 SA
BRANCH  21  24
HETATM   24  O1  UNL     1      28.486   5.107  48.978  1.00  0.00    -0.344 OA
HETATM   25  H9  UNL     1      28.907   4.513  48.274  1.00  0.00     0.219 HD
ENDBRANCH  21  24
ENDBRANCH   1  19
BRANCH   7  26
HETATM   26  N3  UNL     1      22.056   5.376  51.263  1.00  0.00     0.089 N 
HETATM   27  H15 UNL     1      21.030   5.277  51.129  1.00  0.00     0.313 HD
HETATM   28  H16 UNL     1      22.322   6.364  51.477  1.00  0.00     0.313 HD
ENDBRANCH   7  26
TORSDOF 6
ENDMDL
MODEL 7
REMARK VINA RESULT:      -7.5      3.072      6.263
REMARK  6 active torsions:
REMARK  status: ('A' for Active; 'I' for Inactive)
REMARK    1  A    between atoms: C5_5  and  C6_6 
REMARK    2  A    between atoms: C6_6  and  C7_8 
REMARK    3  A    between atoms: C7_8  and  C8_9 
REMARK    4  A    between atoms: C8_9  and  C9_10 
REMARK    5  A    between atoms: C10_12  and  O1_13 
REMARK    6  A    between atoms: C16_21  and  N3_22 
ROOT
HETATM    1  C8  UNL     1      23.652   2.507  51.772  1.00  0.00     0.070 A 
HETATM    2  C12 UNL     1      23.132   2.000  50.493  1.00  0.00    -0.007 A 
HETATM    3  C13 UNL     1      23.189   2.483  49.265  1.00  0.00    -0.001 A 
HETATM    4  C14 UNL     1      23.875   3.741  49.061  1.00  0.00     0.021 A 
HETATM    5  C15 UNL     1      24.370   4.261  50.163  1.00  0.00     0.046 A 
HETATM    6 CL1  UNL     1      25.225   5.778  50.083  1.00  0.00    -0.087 Cl
HETATM    7  C16 UNL     1      24.373   3.824  51.588  1.00  0.00     0.281 A 
ENDROOT
BRANCH   1   8
HETATM    8  C7  UNL     1      22.594   2.756  52.815  1.00  0.00     0.082 C 
BRANCH   8   9
HETATM    9  C6  UNL     1      21.214   2.738  52.331  1.00  0.00     0.037 C 
HETATM   10  N1  UNL     1      20.730   3.749  51.705  1.00  0.00    -0.304 NA
HETATM   11  H6  UNL     1      19.759   3.764  51.349  1.00  0.00     0.186 HD
BRANCH   9  12
HETATM   12  C5  UNL     1      20.446   1.527  52.598  1.00  0.00    -0.012 A 
HETATM   13  C4  UNL     1      19.294   1.194  51.919  1.00  0.00     0.014 A 
HETATM   14  C3  UNL     1      18.549   0.060  52.147  1.00  0.00     0.007 A 
HETATM   15  C2  UNL     1      18.958  -0.824  53.115  1.00  0.00    -0.062 A 
HETATM   16  C1  UNL     1      18.241  -2.081  53.455  1.00  0.00     0.048 C 
HETATM   17  C18 UNL     1      20.103  -0.553  53.833  1.00  0.00     0.007 A 
HETATM   18  C17 UNL     1      20.802   0.602  53.553  1.00  0.00     0.014 A 
ENDBRANCH   9  12
ENDBRANCH   8   9
ENDBRANCH   1   8
BRANCH   1  19
HETATM   19  C9  UNL     1      24.681   1.522  52.286  1.00  0.00     0.093 A 
HETATM   20  N2  UNL     1      24.670   0.721  53.137  1.00  0.00    -0.221 NA
HETATM   21  C10 UNL     1      25.662  -0.079  53.476  1.00  0.00     0.169 A 
HETATM   22  C11 UNL     1      26.835   0.049  52.747  1.00  0.00     0.109 A 
HETATM   23  S1  UNL     1      26.418   1.353  51.583  1.00  0.00    -0.081 SA
BRANCH  21  24
HETATM   24  O1  UNL     1      25.494  -0.997  54.531  1.00  0.00    -0.344 OA
HETATM   25  H9  UNL     1      24.996  -1.872  54.420  1.00  0.00     0.219 HD
ENDBRANCH  21  24
ENDBRANCH   1  19
BRANCH   7  26
HETATM   26  N3  UNL     1      23.781   4.895  52.385  1.00  0.00     0.089 N 
HETATM   27  H15 UNL     1      24.233   5.782  52.085  1.00  0.00     0.313 HD
HETATM   28  H16 UNL     1      23.997   4.673  53.384  1.00  0.00     0.313 HD
ENDBRANCH   7  26
TORSDOF 6
ENDMDL
MODEL 8
REMARK VINA RESULT:      -7.5      4.101      6.623
REMARK  6 active torsions:
REMARK  status: ('A' for Active; 'I' for Inactive)
REMARK    1  A    between atoms: C5_5  and  C6_6 
REMARK    2  A    between atoms: C6_6  and  C7_8 
REMARK    3  A    between atoms: C7_8  and  C8_9 
REMARK    4  A    between atoms: C8_9  and  C9_10 
REMARK    5  A    between atoms: C10_12  and  O1_13 
REMARK    6  A    between atoms: C16_21  and  N3_22 
ROOT
HETATM    1  C8  UNL     1      22.273   2.854  51.156  1.00  0.00     0.070 A 
HETATM    2  C12 UNL     1      22.628   2.009  50.005  1.00  0.00    -0.007 A 
HETATM    3  C13 UNL     1      21.893   1.465  49.052  1.00  0.00    -0.001 A 
HETATM    4  C14 UNL     1      20.466   1.700  49.077  1.00  0.00     0.021 A 
HETATM    5  C15 UNL     1      20.067   2.450  50.080  1.00  0.00     0.046 A 
HETATM    6 CL1  UNL     1      18.374   2.824  50.249  1.00  0.00    -0.087 Cl
HETATM    7  C16 UNL     1      20.783   3.114  51.207  1.00  0.00     0.281 A 
ENDROOT
BRANCH   1   8
HETATM    8  C7  UNL     1      22.636   2.264  52.493  1.00  0.00     0.082 C 
BRANCH   8   9
HETATM    9  C6  UNL     1      22.931   0.831  52.491  1.00  0.00     0.037 C 
HETATM   10  N1  UNL     1      21.992  -0.027  52.316  1.00  0.00    -0.304 NA
HETATM   11  H6  UNL     1      22.171  -1.046  52.307  1.00  0.00     0.186 HD
BRANCH   9  12
HETATM   12  C5  UNL     1      24.325   0.452  52.694  1.00  0.00    -0.012 A 
HETATM   13  C4  UNL     1      24.724  -0.530  53.572  1.00  0.00     0.014 A 
HETATM   14  C3  UNL     1      26.030  -0.910  53.785  1.00  0.00     0.007 A 
HETATM   15  C2  UNL     1      27.030  -0.282  53.084  1.00  0.00    -0.062 A 
HETATM   16  C1  UNL     1      28.475  -0.601  53.225  1.00  0.00     0.048 C 
HETATM   17  C18 UNL     1      26.701   0.711  52.187  1.00  0.00     0.007 A 
HETATM   18  C17 UNL     1      25.373   1.042  52.024  1.00  0.00     0.014 A 
ENDBRANCH   9  12
ENDBRANCH   8   9
ENDBRANCH   1   8
BRANCH   1  19
HETATM   19  C9  UNL     1      22.939   4.202  50.973  1.00  0.00     0.093 A 
HETATM   20  N2  UNL     1      24.039   4.531  50.758  1.00  0.00    -0.221 NA
HETATM   21  C10 UNL     1      24.478   5.767  50.624  1.00  0.00     0.169 A 
HETATM   22  C11 UNL     1      23.533   6.775  50.751  1.00  0.00     0.109 A 
HETATM   23  S1  UNL     1      22.028   5.846  51.067  1.00  0.00    -0.081 SA
BRANCH  21  24
HETATM   24  O1  UNL     1      25.842   6.003  50.365  1.00  0.00    -0.344 OA
HETATM   25  H9  UNL     1      26.470   5.281  50.036  1.00  0.00     0.219 HD
ENDBRANCH  21  24
ENDBRANCH   1  19
BRANCH   7  26
HETATM   26  N3  UNL     1      20.183   2.649  52.454  1.00  0.00     0.089 N 
HETATM   27  H15 UNL     1      20.011   1.629  52.346  1.00  0.00     0.313 HD
HETATM   28  H16 UNL     1      19.288   3.178  52.565  1.00  0.00     0.313 HD
ENDBRANCH   7  26
TORSDOF 6
ENDMDL
MODEL 9
REMARK VINA RESULT:      -7.5      4.154      7.674
REMARK  6 active torsions:
REMARK  status: ('A' for Active; 'I' for Inactive)
REMARK    1  A    between atoms: C5_5  and  C6_6 
REMARK    2  A    between atoms: C6_6  and  C7_8 
REMARK    3  A    between atoms: C7_8  and  C8_9 
REMARK    4  A    between atoms: C8_9  and  C9_10 
REMARK    5  A    between atoms: C10_12  and  O1_13 
REMARK    6  A    between atoms: C16_21  and  N3_22 
ROOT
HETATM    1  C8  UNL     1      22.408   2.736  50.723  1.00  0.00     0.070 A 
HETATM    2  C12 UNL     1      22.274   1.519  49.908  1.00  0.00    -0.007 A 
HETATM    3  C13 UNL     1      21.428   1.190  48.949  1.00  0.00    -0.001 A 
HETATM    4  C14 UNL     1      20.416   2.155  48.575  1.00  0.00     0.021 A 
HETATM    5  C15 UNL     1      20.469   3.275  49.262  1.00  0.00     0.046 A 
HETATM    6 CL1  UNL     1      19.315   4.537  48.929  1.00  0.00    -0.087 Cl
HETATM    7  C16 UNL     1      21.359   3.762  50.354  1.00  0.00     0.281 A 
ENDROOT
BRANCH   1   8
HETATM    8  C7  UNL     1      22.260   2.509  52.205  1.00  0.00     0.082 C 
BRANCH   8   9
HETATM    9  C6  UNL     1      22.553   1.151  52.667  1.00  0.00     0.037 C 
HETATM   10  N1  UNL     1      23.767   0.762  52.817  1.00  0.00    -0.304 NA
HETATM   11  H6  UNL     1      24.005  -0.189  53.145  1.00  0.00     0.186 HD
BRANCH   9  12
HETATM   12  C5  UNL     1      21.405   0.295  52.941  1.00  0.00    -0.012 A 
HETATM   13  C4  UNL     1      21.451  -0.785  53.795  1.00  0.00     0.014 A 
HETATM   14  C3  UNL     1      20.386  -1.611  54.074  1.00  0.00     0.007 A 
HETATM   15  C2  UNL     1      19.176  -1.366  53.473  1.00  0.00    -0.062 A 
HETATM   16  C1  UNL     1      17.954  -2.183  53.691  1.00  0.00     0.048 C 
HETATM   17  C18 UNL     1      19.059  -0.301  52.606  1.00  0.00     0.007 A 
HETATM   18  C17 UNL     1      20.167   0.486  52.371  1.00  0.00     0.014 A 
ENDBRANCH   9  12
ENDBRANCH   8   9
ENDBRANCH   1   8
BRANCH   1  19
HETATM   19  C9  UNL     1      23.751   3.365  50.416  1.00  0.00     0.093 A 
HETATM   20  N2  UNL     1      24.842   3.139  50.769  1.00  0.00    -0.221 NA
HETATM   21  C10 UNL     1      25.934   3.786  50.409  1.00  0.00     0.169 A 
HETATM   22  C11 UNL     1      25.764   4.838  49.522  1.00  0.00     0.109 A 
HETATM   23  S1  UNL     1      23.987   4.828  49.256  1.00  0.00    -0.081 SA
BRANCH  21  24
HETATM   24  O1  UNL     1      27.184   3.392  50.925  1.00  0.00    -0.344 OA
HETATM   25  H9  UNL     1      27.471   2.424  50.984  1.00  0.00     0.219 HD
ENDBRANCH  21  24
ENDBRANCH   1  19
BRANCH   7  26
HETATM   26  N3  UNL     1      20.516   4.126  51.489  1.00  0.00     0.089 N 
HETATM   27  H15 UNL     1      20.964   3.729  52.339  1.00  0.00     0.313 HD
HETATM   28  H16 UNL     1      19.580   3.693  51.312  1.00  0.00     0.313 HD
ENDBRANCH   7  26
TORSDOF 6
ENDMDL
