MODEL 1
REMARK VINA RESULT:      -7.8      0.000      0.000
REMARK  4 active torsions:
REMARK  status: ('A' for Active; 'I' for Inactive)
REMARK    1  A    between atoms: O1_2  and  C2_3 
REMARK    2  A    between atoms: C6_9  and  N3_10 
REMARK    3  A    between atoms: N3_10  and  C7_11 
REMARK    4  A    between atoms: C15_21  and  O2_22 
ROOT
HETATM    1  C2  UNL     1      21.350   0.642  51.960  1.00  0.00     0.103 A 
HETATM    2  C3  UNL     1      21.780   1.343  50.853  1.00  0.00     0.072 A 
HETATM    3  C4  UNL     1      23.020   1.942  50.861  1.00  0.00     0.075 A 
HETATM    4  N1  UNL     1      23.382   2.612  49.744  1.00  0.00    -0.241 NA
HETATM    5  C5  UNL     1      24.574   3.229  49.648  1.00  0.00     0.236 A 
HETATM    6  N2  UNL     1      25.370   3.142  50.714  1.00  0.00    -0.224 NA
HETATM    7  C6  UNL     1      25.118   2.512  51.861  1.00  0.00     0.142 A 
HETATM    8  C13 UNL     1      23.894   1.892  51.924  1.00  0.00     0.042 A 
HETATM    9  C14 UNL     1      23.420   1.185  52.998  1.00  0.00     0.057 A 
HETATM   10  C15 UNL     1      22.191   0.566  53.047  1.00  0.00     0.102 A 
ENDROOT
BRANCH   7  11
HETATM   11  N3  UNL     1      25.984   2.431  52.977  1.00  0.00    -0.340 N 
HETATM   12  H6  UNL     1      25.873   3.051  53.799  1.00  0.00     0.167 HD
BRANCH  11  13
HETATM   13  C7  UNL     1      27.084   1.576  53.201  1.00  0.00     0.035 A 
HETATM   14  C8  UNL     1      28.323   1.964  53.682  1.00  0.00     0.032 A 
HETATM   15  C9  UNL     1      29.373   1.104  53.893  1.00  0.00     0.046 A 
HETATM   16  C10 UNL     1      29.245  -0.236  53.628  1.00  0.00     0.138 A 
HETATM   17  F1  UNL     1      30.317  -0.998  53.863  1.00  0.00    -0.204 F 
HETATM   18  C11 UNL     1      28.029  -0.665  53.148  1.00  0.00     0.074 A 
HETATM   19 CL1  UNL     1      27.921  -2.387  52.827  1.00  0.00    -0.081 Cl
HETATM   20  C12 UNL     1      27.002   0.232  52.951  1.00  0.00     0.056 A 
ENDBRANCH  11  13
ENDBRANCH   7  11
BRANCH  10  21
HETATM   21  O2  UNL     1      21.692  -0.153  54.119  1.00  0.00    -0.353 OA
HETATM   22  C16 UNL     1      21.990  -1.463  54.465  1.00  0.00     0.210 C 
ENDBRANCH  10  21
BRANCH   1  23
HETATM   23  O1  UNL     1      20.100   0.045  51.939  1.00  0.00    -0.353 OA
HETATM   24  C1  UNL     1      18.996   0.833  51.574  1.00  0.00     0.210 C 
ENDBRANCH   1  23
TORSDOF 4
ENDMDL
MODEL 2
REMARK VINA RESULT:      -7.6      4.256      6.610
REMARK  4 active torsions:
REMARK  status: ('A' for Active; 'I' for Inactive)
REMARK    1  A    between atoms: O1_2  and  C2_3 
REMARK    2  A    between atoms: C6_9  and  N3_10 
REMARK    3  A    between atoms: N3_10  and  C7_11 
REMARK    4  A    between atoms: C15_21  and  O2_22 
ROOT
HETATM    1  C2  UNL     1      26.616   0.167  54.179  1.00  0.00     0.103 A 
HETATM    2  C3  UNL     1      25.495  -0.575  53.871  1.00  0.00     0.072 A 
HETATM    3  C4  UNL     1      24.370   0.054  53.384  1.00  0.00     0.075 A 
HETATM    4  N1  UNL     1      23.307  -0.731  53.099  1.00  0.00    -0.241 NA
HETATM    5  C5  UNL     1      22.161  -0.217  52.616  1.00  0.00     0.236 A 
HETATM    6  N2  UNL     1      22.138   1.104  52.436  1.00  0.00    -0.224 NA
HETATM    7  C6  UNL     1      23.122   1.970  52.682  1.00  0.00     0.142 A 
HETATM    8  C13 UNL     1      24.275   1.411  53.173  1.00  0.00     0.042 A 
HETATM    9  C14 UNL     1      25.414   2.102  53.494  1.00  0.00     0.057 A 
HETATM   10  C15 UNL     1      26.566   1.529  53.984  1.00  0.00     0.102 A 
ENDROOT
BRANCH   7  11
HETATM   11  N3  UNL     1      23.071   3.369  52.478  1.00  0.00    -0.340 N 
HETATM   12  H6  UNL     1      22.649   4.007  53.176  1.00  0.00     0.167 HD
BRANCH  11  13
HETATM   13  C7  UNL     1      23.537   4.136  51.389  1.00  0.00     0.035 A 
HETATM   14  C8  UNL     1      23.925   3.636  50.157  1.00  0.00     0.032 A 
HETATM   15  C9  UNL     1      24.370   4.411  49.114  1.00  0.00     0.046 A 
HETATM   16  C10 UNL     1      24.456   5.774  49.242  1.00  0.00     0.138 A 
HETATM   17  F1  UNL     1      24.899   6.448  48.177  1.00  0.00    -0.204 F 
HETATM   18  C11 UNL     1      24.079   6.314  50.451  1.00  0.00     0.074 A 
HETATM   19 CL1  UNL     1      24.208   8.060  50.558  1.00  0.00    -0.081 Cl
HETATM   20  C12 UNL     1      23.638   5.499  51.470  1.00  0.00     0.056 A 
ENDBRANCH  11  13
ENDBRANCH   7  11
BRANCH  10  21
HETATM   21  O2  UNL     1      27.727   2.206  54.315  1.00  0.00    -0.353 OA
HETATM   22  C16 UNL     1      28.755   2.581  53.462  1.00  0.00     0.210 C 
ENDBRANCH  10  21
BRANCH   1  23
HETATM   23  O1  UNL     1      27.739  -0.477  54.668  1.00  0.00    -0.353 OA
HETATM   24  C1  UNL     1      28.645  -1.024  53.744  1.00  0.00     0.210 C 
ENDBRANCH   1  23
TORSDOF 4
ENDMDL
MODEL 3
REMARK VINA RESULT:      -7.5      3.724      6.387
REMARK  4 active torsions:
REMARK  status: ('A' for Active; 'I' for Inactive)
REMARK    1  A    between atoms: O1_2  and  C2_3 
REMARK    2  A    between atoms: C6_9  and  N3_10 
REMARK    3  A    between atoms: N3_10  and  C7_11 
REMARK    4  A    between atoms: C15_21  and  O2_22 
ROOT
HETATM    1  C2  UNL     1      27.527   0.245  54.003  1.00  0.00     0.103 A 
HETATM    2  C3  UNL     1      27.827   1.014  52.899  1.00  0.00     0.072 A 
HETATM    3  C4  UNL     1      26.848   1.788  52.316  1.00  0.00     0.075 A 
HETATM    4  N1  UNL     1      27.209   2.519  51.238  1.00  0.00    -0.241 NA
HETATM    5  C5  UNL     1      26.328   3.311  50.598  1.00  0.00     0.236 A 
HETATM    6  N2  UNL     1      25.089   3.329  51.087  1.00  0.00    -0.224 NA
HETATM    7  C6  UNL     1      24.624   2.652  52.138  1.00  0.00     0.142 A 
HETATM    8  C13 UNL     1      25.549   1.856  52.767  1.00  0.00     0.042 A 
HETATM    9  C14 UNL     1      25.302   1.075  53.865  1.00  0.00     0.057 A 
HETATM   10  C15 UNL     1      26.239   0.282  54.489  1.00  0.00     0.102 A 
ENDROOT
BRANCH   7  11
HETATM   11  N3  UNL     1      23.302   2.693  52.638  1.00  0.00    -0.340 N 
HETATM   12  H6  UNL     1      23.026   3.340  53.398  1.00  0.00     0.167 HD
BRANCH  11  13
HETATM   13  C7  UNL     1      22.173   1.937  52.255  1.00  0.00     0.035 A 
HETATM   14  C8  UNL     1      21.442   2.110  51.092  1.00  0.00     0.032 A 
HETATM   15  C9  UNL     1      20.350   1.354  50.746  1.00  0.00     0.046 A 
HETATM   16  C10 UNL     1      19.906   0.348  51.567  1.00  0.00     0.138 A 
HETATM   17  F1  UNL     1      18.837  -0.337  51.152  1.00  0.00    -0.204 F 
HETATM   18  C11 UNL     1      20.604   0.140  52.735  1.00  0.00     0.074 A 
HETATM   19 CL1  UNL     1      19.995  -1.158  53.745  1.00  0.00    -0.081 Cl
HETATM   20  C12 UNL     1      21.696   0.923  53.042  1.00  0.00     0.056 A 
ENDBRANCH  11  13
ENDBRANCH   7  11
BRANCH  10  21
HETATM   21  O2  UNL     1      26.013  -0.515  55.599  1.00  0.00    -0.353 OA
HETATM   22  C16 UNL     1      24.871  -1.244  55.892  1.00  0.00     0.210 C 
ENDBRANCH  10  21
BRANCH   1  23
HETATM   23  O1  UNL     1      28.521  -0.529  54.579  1.00  0.00    -0.353 OA
HETATM   24  C1  UNL     1      29.666  -0.812  53.816  1.00  0.00     0.210 C 
ENDBRANCH   1  23
TORSDOF 4
ENDMDL
MODEL 4
REMARK VINA RESULT:      -7.5      2.257      3.678
REMARK  4 active torsions:
REMARK  status: ('A' for Active; 'I' for Inactive)
REMARK    1  A    between atoms: O1_2  and  C2_3 
REMARK    2  A    between atoms: C6_9  and  N3_10 
REMARK    3  A    between atoms: N3_10  and  C7_11 
REMARK    4  A    between atoms: C15_21  and  O2_22 
ROOT
HETATM    1  C2  UNL     1      19.894   0.361  51.565  1.00  0.00     0.103 A 
HETATM    2  C3  UNL     1      20.042  -0.265  52.785  1.00  0.00     0.072 A 
HETATM    3  C4  UNL     1      21.298  -0.413  53.331  1.00  0.00     0.075 A 
HETATM    4  N1  UNL     1      21.373  -1.034  54.530  1.00  0.00    -0.241 NA
HETATM    5  C5  UNL     1      22.552  -1.226  55.151  1.00  0.00     0.236 A 
HETATM    6  N2  UNL     1      23.632  -0.771  54.516  1.00  0.00    -0.224 NA
HETATM    7  C6  UNL     1      23.676  -0.148  53.338  1.00  0.00     0.142 A 
HETATM    8  C13 UNL     1      22.456   0.032  52.734  1.00  0.00     0.042 A 
HETATM    9  C14 UNL     1      22.255   0.646  51.526  1.00  0.00     0.057 A 
HETATM   10  C15 UNL     1      21.026   0.822  50.931  1.00  0.00     0.102 A 
ENDROOT
BRANCH   7  11
HETATM   11  N3  UNL     1      24.838   0.329  52.689  1.00  0.00    -0.340 N 
HETATM   12  H6  UNL     1      24.786   0.971  51.878  1.00  0.00     0.167 HD
BRANCH  11  13
HETATM   13  C7  UNL     1      26.196   0.063  52.968  1.00  0.00     0.035 A 
HETATM   14  C8  UNL     1      26.846  -1.140  52.748  1.00  0.00     0.032 A 
HETATM   15  C9  UNL     1      28.171  -1.364  53.027  1.00  0.00     0.046 A 
HETATM   16  C10 UNL     1      28.952  -0.371  53.560  1.00  0.00     0.138 A 
HETATM   17  F1  UNL     1      30.231  -0.678  53.799  1.00  0.00    -0.204 F 
HETATM   18  C11 UNL     1      28.347   0.843  53.795  1.00  0.00     0.074 A 
HETATM   19 CL1  UNL     1      29.393   2.076  54.475  1.00  0.00    -0.081 Cl
HETATM   20  C12 UNL     1      27.014   1.024  53.499  1.00  0.00     0.056 A 
ENDBRANCH  11  13
ENDBRANCH   7  11
BRANCH  10  21
HETATM   21  O2  UNL     1      20.799   1.439  49.713  1.00  0.00    -0.353 OA
HETATM   22  C16 UNL     1      21.661   2.279  49.022  1.00  0.00     0.210 C 
ENDBRANCH  10  21
BRANCH   1  23
HETATM   23  O1  UNL     1      18.626   0.503  51.027  1.00  0.00    -0.353 OA
HETATM   24  C1  UNL     1      17.758   1.438  51.614  1.00  0.00     0.210 C 
ENDBRANCH   1  23
TORSDOF 4
ENDMDL
MODEL 5
REMARK VINA RESULT:      -7.5      4.023      5.740
REMARK  4 active torsions:
REMARK  status: ('A' for Active; 'I' for Inactive)
REMARK    1  A    between atoms: O1_2  and  C2_3 
REMARK    2  A    between atoms: C6_9  and  N3_10 
REMARK    3  A    between atoms: N3_10  and  C7_11 
REMARK    4  A    between atoms: C15_21  and  O2_22 
ROOT
HETATM    1  C2  UNL     1      25.128   0.162  53.802  1.00  0.00     0.103 A 
HETATM    2  C3  UNL     1      24.001   0.042  53.017  1.00  0.00     0.072 A 
HETATM    3  C4  UNL     1      23.615   1.088  52.208  1.00  0.00     0.075 A 
HETATM    4  N1  UNL     1      22.503   0.904  51.462  1.00  0.00    -0.241 NA
HETATM    5  C5  UNL     1      22.042   1.862  50.636  1.00  0.00     0.236 A 
HETATM    6  N2  UNL     1      22.743   2.996  50.601  1.00  0.00    -0.224 NA
HETATM    7  C6  UNL     1      23.848   3.284  51.290  1.00  0.00     0.142 A 
HETATM    8  C13 UNL     1      24.290   2.284  52.120  1.00  0.00     0.042 A 
HETATM    9  C14 UNL     1      25.401   2.354  52.920  1.00  0.00     0.057 A 
HETATM   10  C15 UNL     1      25.835   1.343  53.747  1.00  0.00     0.102 A 
ENDROOT
BRANCH   7  11
HETATM   11  N3  UNL     1      24.575   4.496  51.230  1.00  0.00    -0.340 N 
HETATM   12  H6  UNL     1      24.438   5.250  51.927  1.00  0.00     0.167 HD
BRANCH  11  13
HETATM   13  C7  UNL     1      25.553   4.912  50.301  1.00  0.00     0.035 A 
HETATM   14  C8  UNL     1      26.479   4.090  49.681  1.00  0.00     0.032 A 
HETATM   15  C9  UNL     1      27.416   4.526  48.777  1.00  0.00     0.046 A 
HETATM   16  C10 UNL     1      27.487   5.851  48.427  1.00  0.00     0.138 A 
HETATM   17  F1  UNL     1      28.429   6.186  47.540  1.00  0.00    -0.204 F 
HETATM   18  C11 UNL     1      26.584   6.704  49.019  1.00  0.00     0.074 A 
HETATM   19 CL1  UNL     1      26.720   8.384  48.533  1.00  0.00    -0.081 Cl
HETATM   20  C12 UNL     1      25.661   6.223  49.921  1.00  0.00     0.056 A 
ENDBRANCH  11  13
ENDBRANCH   7  11
BRANCH  10  21
HETATM   21  O2  UNL     1      26.953   1.390  54.562  1.00  0.00    -0.353 OA
HETATM   22  C16 UNL     1      28.242   0.986  54.246  1.00  0.00     0.210 C 
ENDBRANCH  10  21
BRANCH   1  23
HETATM   23  O1  UNL     1      25.505  -0.897  54.611  1.00  0.00    -0.353 OA
HETATM   24  C1  UNL     1      24.609  -1.323  55.605  1.00  0.00     0.210 C 
ENDBRANCH   1  23
TORSDOF 4
ENDMDL
MODEL 6
REMARK VINA RESULT:      -7.3      4.635      7.784
REMARK  4 active torsions:
REMARK  status: ('A' for Active; 'I' for Inactive)
REMARK    1  A    between atoms: O1_2  and  C2_3 
REMARK    2  A    between atoms: C6_9  and  N3_10 
REMARK    3  A    between atoms: N3_10  and  C7_11 
REMARK    4  A    between atoms: C15_21  and  O2_22 
ROOT
HETATM    1  C2  UNL     1      27.337   0.710  53.511  1.00  0.00     0.103 A 
HETATM    2  C3  UNL     1      26.803  -0.023  54.549  1.00  0.00     0.072 A 
HETATM    3  C4  UNL     1      25.461  -0.333  54.551  1.00  0.00     0.075 A 
HETATM    4  N1  UNL     1      25.002  -1.057  55.597  1.00  0.00    -0.241 NA
HETATM    5  C5  UNL     1      23.708  -1.414  55.691  1.00  0.00     0.236 A 
HETATM    6  N2  UNL     1      22.912  -1.014  54.700  1.00  0.00    -0.224 NA
HETATM    7  C6  UNL     1      23.255  -0.301  53.626  1.00  0.00     0.142 A 
HETATM    8  C13 UNL     1      24.582   0.046  53.561  1.00  0.00     0.042 A 
HETATM    9  C14 UNL     1      25.160   0.772  52.554  1.00  0.00     0.057 A 
HETATM   10  C15 UNL     1      26.494   1.111  52.499  1.00  0.00     0.102 A 
ENDROOT
BRANCH   7  11
HETATM   11  N3  UNL     1      22.389   0.108  52.585  1.00  0.00    -0.340 N 
HETATM   12  H6  UNL     1      22.735   0.625  51.758  1.00  0.00     0.167 HD
BRANCH  11  13
HETATM   13  C7  UNL     1      20.996  -0.078  52.451  1.00  0.00     0.035 A 
HETATM   14  C8  UNL     1      20.183  -0.765  53.337  1.00  0.00     0.032 A 
HETATM   15  C9  UNL     1      18.829  -0.923  53.179  1.00  0.00     0.046 A 
HETATM   16  C10 UNL     1      18.183  -0.388  52.093  1.00  0.00     0.138 A 
HETATM   17  F1  UNL     1      16.864  -0.591  52.021  1.00  0.00    -0.204 F 
HETATM   18  C11 UNL     1      18.953   0.305  51.187  1.00  0.00     0.074 A 
HETATM   19 CL1  UNL     1      18.076   0.968  49.820  1.00  0.00    -0.081 Cl
HETATM   20  C12 UNL     1      20.309   0.439  51.385  1.00  0.00     0.056 A 
ENDBRANCH  11  13
ENDBRANCH   7  11
BRANCH  10  21
HETATM   21  O2  UNL     1      27.100   1.842  51.492  1.00  0.00    -0.353 OA
HETATM   22  C16 UNL     1      26.554   2.893  50.769  1.00  0.00     0.210 C 
ENDBRANCH  10  21
BRANCH   1  23
HETATM   23  O1  UNL     1      28.688   1.015  53.522  1.00  0.00    -0.353 OA
HETATM   24  C1  UNL     1      29.604  -0.040  53.670  1.00  0.00     0.210 C 
ENDBRANCH   1  23
TORSDOF 4
ENDMDL
MODEL 7
REMARK VINA RESULT:      -7.3      3.985      5.666
REMARK  4 active torsions:
REMARK  status: ('A' for Active; 'I' for Inactive)
REMARK    1  A    between atoms: O1_2  and  C2_3 
REMARK    2  A    between atoms: C6_9  and  N3_10 
REMARK    3  A    between atoms: N3_10  and  C7_11 
REMARK    4  A    between atoms: C15_21  and  O2_22 
ROOT
HETATM    1  C2  UNL     1      23.038   0.778  52.944  1.00  0.00     0.103 A 
HETATM    2  C3  UNL     1      24.276   0.795  53.550  1.00  0.00     0.072 A 
HETATM    3  C4  UNL     1      25.343   1.390  52.914  1.00  0.00     0.075 A 
HETATM    4  N1  UNL     1      26.528   1.375  53.564  1.00  0.00    -0.241 NA
HETATM    5  C5  UNL     1      27.631   1.932  53.031  1.00  0.00     0.236 A 
HETATM    6  N2  UNL     1      27.486   2.495  51.831  1.00  0.00    -0.224 NA
HETATM    7  C6  UNL     1      26.371   2.568  51.103  1.00  0.00     0.142 A 
HETATM    8  C13 UNL     1      25.266   1.991  51.677  1.00  0.00     0.042 A 
HETATM    9  C14 UNL     1      24.016   1.947  51.117  1.00  0.00     0.057 A 
HETATM   10  C15 UNL     1      22.914   1.366  51.705  1.00  0.00     0.102 A 
ENDROOT
BRANCH   7  11
HETATM   11  N3  UNL     1      26.244   3.176  49.832  1.00  0.00    -0.340 N 
HETATM   12  H6  UNL     1      25.882   2.656  49.012  1.00  0.00     0.167 HD
BRANCH  11  13
HETATM   13  C7  UNL     1      26.550   4.494  49.432  1.00  0.00     0.035 A 
HETATM   14  C8  UNL     1      27.619   4.869  48.635  1.00  0.00     0.032 A 
HETATM   15  C9  UNL     1      27.886   6.162  48.260  1.00  0.00     0.046 A 
HETATM   16  C10 UNL     1      27.078   7.192  48.670  1.00  0.00     0.138 A 
HETATM   17  F1  UNL     1      27.414   8.418  48.257  1.00  0.00    -0.204 F 
HETATM   18  C11 UNL     1      26.002   6.865  49.464  1.00  0.00     0.074 A 
HETATM   19 CL1  UNL     1      25.003   8.219  49.958  1.00  0.00    -0.081 Cl
HETATM   20  C12 UNL     1      25.771   5.553  49.816  1.00  0.00     0.056 A 
ENDBRANCH  11  13
ENDBRANCH   7  11
BRANCH  10  21
HETATM   21  O2  UNL     1      21.644   1.310  51.159  1.00  0.00    -0.353 OA
HETATM   22  C16 UNL     1      21.262   0.694  49.976  1.00  0.00     0.210 C 
ENDBRANCH  10  21
BRANCH   1  23
HETATM   23  O1  UNL     1      21.975   0.175  53.594  1.00  0.00    -0.353 OA
HETATM   24  C1  UNL     1      22.039  -1.208  53.827  1.00  0.00     0.210 C 
ENDBRANCH   1  23
TORSDOF 4
ENDMDL
MODEL 8
REMARK VINA RESULT:      -7.3      4.127      6.842
REMARK  4 active torsions:
REMARK  status: ('A' for Active; 'I' for Inactive)
REMARK    1  A    between atoms: O1_2  and  C2_3 
REMARK    2  A    between atoms: C6_9  and  N3_10 
REMARK    3  A    between atoms: N3_10  and  C7_11 
REMARK    4  A    between atoms: C15_21  and  O2_22 
ROOT
HETATM    1  C2  UNL     1      26.271  -0.092  53.238  1.00  0.00     0.103 A 
HETATM    2  C3  UNL     1      25.364  -0.758  54.035  1.00  0.00     0.072 A 
HETATM    3  C4  UNL     1      24.027  -0.437  53.968  1.00  0.00     0.075 A 
HETATM    4  N1  UNL     1      23.191  -1.130  54.774  1.00  0.00    -0.241 NA
HETATM    5  C5  UNL     1      21.866  -0.896  54.782  1.00  0.00     0.236 A 
HETATM    6  N2  UNL     1      21.430   0.055  53.955  1.00  0.00    -0.224 NA
HETATM    7  C6  UNL     1      22.160   0.797  53.121  1.00  0.00     0.142 A 
HETATM    8  C13 UNL     1      23.507   0.531  53.138  1.00  0.00     0.042 A 
HETATM    9  C14 UNL     1      24.447   1.163  52.367  1.00  0.00     0.057 A 
HETATM   10  C15 UNL     1      25.795   0.885  52.392  1.00  0.00     0.102 A 
ENDROOT
BRANCH   7  11
HETATM   11  N3  UNL     1      21.670   1.798  52.250  1.00  0.00    -0.340 N 
HETATM   12  H6  UNL     1      21.091   2.584  52.593  1.00  0.00     0.167 HD
BRANCH  11  13
HETATM   13  C7  UNL     1      21.842   1.938  50.856  1.00  0.00     0.035 A 
HETATM   14  C8  UNL     1      21.518   0.986  49.903  1.00  0.00     0.032 A 
HETATM   15  C9  UNL     1      21.694   1.156  48.552  1.00  0.00     0.046 A 
HETATM   16  C10 UNL     1      22.220   2.322  48.055  1.00  0.00     0.138 A 
HETATM   17  F1  UNL     1      22.356   2.400  46.727  1.00  0.00    -0.204 F 
HETATM   18  C11 UNL     1      22.556   3.296  48.967  1.00  0.00     0.074 A 
HETATM   19 CL1  UNL     1      23.222   4.765  48.277  1.00  0.00    -0.081 Cl
HETATM   20  C12 UNL     1      22.362   3.083  50.315  1.00  0.00     0.056 A 
ENDBRANCH  11  13
ENDBRANCH   7  11
BRANCH  10  21
HETATM   21  O2  UNL     1      26.763   1.510  51.624  1.00  0.00    -0.353 OA
HETATM   22  C16 UNL     1      26.672   2.745  50.998  1.00  0.00     0.210 C 
ENDBRANCH  10  21
BRANCH   1  23
HETATM   23  O1  UNL     1      27.613  -0.424  53.316  1.00  0.00    -0.353 OA
HETATM   24  C1  UNL     1      28.332  -0.015  54.451  1.00  0.00     0.210 C 
ENDBRANCH   1  23
TORSDOF 4
ENDMDL
MODEL 9
REMARK VINA RESULT:      -7.2      4.403      7.365
REMARK  4 active torsions:
REMARK  status: ('A' for Active; 'I' for Inactive)
REMARK    1  A    between atoms: O1_2  and  C2_3 
REMARK    2  A    between atoms: C6_9  and  N3_10 
REMARK    3  A    between atoms: N3_10  and  C7_11 
REMARK    4  A    between atoms: C15_21  and  O2_22 
ROOT
HETATM    1  C2  UNL     1      27.565   1.390  53.167  1.00  0.00     0.103 A 
HETATM    2  C3  UNL     1      27.185   0.622  54.247  1.00  0.00     0.072 A 
HETATM    3  C4  UNL     1      25.917   0.087  54.295  1.00  0.00     0.075 A 
HETATM    4  N1  UNL     1      25.610  -0.659  55.380  1.00  0.00    -0.241 NA
HETATM    5  C5  UNL     1      24.399  -1.229  55.522  1.00  0.00     0.236 A 
HETATM    6  N2  UNL     1      23.528  -1.015  54.536  1.00  0.00    -0.224 NA
HETATM    7  C6  UNL     1      23.722  -0.301  53.427  1.00  0.00     0.142 A 
HETATM    8  C13 UNL     1      24.967   0.265  53.314  1.00  0.00     0.042 A 
HETATM    9  C14 UNL     1      25.393   1.035  52.264  1.00  0.00     0.057 A 
HETATM   10  C15 UNL     1      26.647   1.596  52.162  1.00  0.00     0.102 A 
ENDROOT
BRANCH   7  11
HETATM   11  N3  UNL     1      22.779  -0.093  52.393  1.00  0.00    -0.340 N 
HETATM   12  H6  UNL     1      22.724  -0.720  51.570  1.00  0.00     0.167 HD
BRANCH  11  13
HETATM   13  C7  UNL     1      21.799   0.914  52.260  1.00  0.00     0.035 A 
HETATM   14  C8  UNL     1      20.431   0.707  52.205  1.00  0.00     0.032 A 
HETATM   15  C9  UNL     1      19.503   1.711  52.080  1.00  0.00     0.046 A 
HETATM   16  C10 UNL     1      19.897   3.023  51.999  1.00  0.00     0.138 A 
HETATM   17  F1  UNL     1      18.926   3.934  51.879  1.00  0.00    -0.204 F 
HETATM   18  C11 UNL     1      21.249   3.275  52.051  1.00  0.00     0.074 A 
HETATM   19 CL1  UNL     1      21.695   4.968  51.945  1.00  0.00    -0.081 Cl
HETATM   20  C12 UNL     1      22.145   2.236  52.177  1.00  0.00     0.056 A 
ENDBRANCH  11  13
ENDBRANCH   7  11
BRANCH  10  21
HETATM   21  O2  UNL     1      27.099   2.376  51.112  1.00  0.00    -0.353 OA
HETATM   22  C16 UNL     1      26.340   3.177  50.271  1.00  0.00     0.210 C 
ENDBRANCH  10  21
BRANCH   1  23
HETATM   23  O1  UNL     1      28.843   1.923  53.131  1.00  0.00    -0.353 OA
HETATM   24  C1  UNL     1      29.526   2.088  54.348  1.00  0.00     0.210 C 
ENDBRANCH   1  23
TORSDOF 4
ENDMDL
