MODEL 1
REMARK VINA RESULT:      -7.4      0.000      0.000
REMARK  4 active torsions:
REMARK  status: ('A' for Active; 'I' for Inactive)
REMARK    1  A    between atoms: O1_2  and  C2_3 
REMARK    2  A    between atoms: C6_9  and  N3_10 
REMARK    3  A    between atoms: N3_10  and  C7_11 
REMARK    4  A    between atoms: C14_18  and  O2_19 
ROOT
HETATM    1  C2  UNL     1      20.839  -0.313  52.965  1.00  0.00     0.103 A 
HETATM    2  C3  UNL     1      21.259  -0.878  54.150  1.00  0.00     0.072 A 
HETATM    3  C4  UNL     1      22.609  -0.922  54.494  1.00  0.00     0.075 A 
HETATM    4  N1  UNL     1      22.986  -1.487  55.669  1.00  0.00    -0.241 NA
HETATM    5  C5  UNL     1      24.292  -1.520  55.984  1.00  0.00     0.236 A 
HETATM    6  N2  UNL     1      25.198  -0.987  55.117  1.00  0.00    -0.224 NA
HETATM    7  C6  UNL     1      24.814  -0.430  53.955  1.00  0.00     0.141 A 
HETATM    8  C12 UNL     1      23.491  -0.369  53.583  1.00  0.00     0.042 A 
HETATM    9  C13 UNL     1      23.120   0.196  52.407  1.00  0.00     0.057 A 
HETATM   10  C14 UNL     1      21.773   0.232  52.079  1.00  0.00     0.102 A 
ENDROOT
BRANCH   7  11
HETATM   11  N3  UNL     1      25.863   0.086  53.147  1.00  0.00    -0.344 N 
HETATM   12  H6  UNL     1      25.849   0.814  52.404  1.00  0.00     0.167 HD
BRANCH  11  13
HETATM   13  C7  UNL     1      27.188  -0.411  53.305  1.00  0.00     0.014 A 
HETATM   14  C8  UNL     1      27.623  -1.582  52.861  1.00  0.00     0.025 A 
HETATM   15  C9  UNL     1      29.030  -1.730  53.215  1.00  0.00    -0.002 A 
HETATM   16  C10 UNL     1      29.446  -0.646  53.874  1.00  0.00    -0.021 A 
HETATM   17  C11 UNL     1      28.305   0.289  53.988  1.00  0.00     0.084 A 
ENDBRANCH  11  13
ENDBRANCH   7  11
BRANCH  10  18
HETATM   18  O2  UNL     1      21.379   0.808  50.880  1.00  0.00    -0.353 OA
HETATM   19  C15 UNL     1      22.188   1.823  50.339  1.00  0.00     0.210 C 
ENDBRANCH  10  18
BRANCH   1  20
HETATM   20  O1  UNL     1      19.518  -0.229  52.548  1.00  0.00    -0.353 OA
HETATM   21  C1  UNL     1      18.490  -1.012  53.171  1.00  0.00     0.210 C 
ENDBRANCH   1  20
TORSDOF 4
ENDMDL
MODEL 2
REMARK VINA RESULT:      -7.3      1.909      3.429
REMARK  4 active torsions:
REMARK  status: ('A' for Active; 'I' for Inactive)
REMARK    1  A    between atoms: O1_2  and  C2_3 
REMARK    2  A    between atoms: C6_9  and  N3_10 
REMARK    3  A    between atoms: N3_10  and  C7_11 
REMARK    4  A    between atoms: C14_18  and  O2_19 
ROOT
HETATM    1  C2  UNL     1      22.170   0.584  51.790  1.00  0.00     0.103 A 
HETATM    2  C3  UNL     1      22.921   1.468  51.046  1.00  0.00     0.072 A 
HETATM    3  C4  UNL     1      24.238   1.769  51.390  1.00  0.00     0.075 A 
HETATM    4  N1  UNL     1      24.948   2.645  50.634  1.00  0.00    -0.241 NA
HETATM    5  C5  UNL     1      26.217   2.922  50.981  1.00  0.00     0.236 A 
HETATM    6  N2  UNL     1      26.753   2.317  52.078  1.00  0.00    -0.224 NA
HETATM    7  C6  UNL     1      26.041   1.451  52.821  1.00  0.00     0.141 A 
HETATM    8  C12 UNL     1      24.739   1.131  52.511  1.00  0.00     0.042 A 
HETATM    9  C13 UNL     1      24.034   0.255  53.270  1.00  0.00     0.057 A 
HETATM   10  C14 UNL     1      22.725  -0.033  52.915  1.00  0.00     0.102 A 
ENDROOT
BRANCH   7  11
HETATM   11  N3  UNL     1      26.723   0.895  53.936  1.00  0.00    -0.344 N 
HETATM   12  H6  UNL     1      26.556   1.008  54.956  1.00  0.00     0.167 HD
BRANCH  11  13
HETATM   13  C7  UNL     1      27.833   0.029  53.726  1.00  0.00     0.014 A 
HETATM   14  C8  UNL     1      27.778  -1.155  53.133  1.00  0.00     0.025 A 
HETATM   15  C9  UNL     1      29.115  -1.736  53.108  1.00  0.00    -0.002 A 
HETATM   16  C10 UNL     1      29.981  -0.901  53.687  1.00  0.00    -0.021 A 
HETATM   17  C11 UNL     1      29.237   0.297  54.132  1.00  0.00     0.084 A 
ENDBRANCH  11  13
ENDBRANCH   7  11
BRANCH  10  18
HETATM   18  O2  UNL     1      21.992  -0.928  53.682  1.00  0.00    -0.353 OA
HETATM   19  C15 UNL     1      22.453  -1.215  54.979  1.00  0.00     0.210 C 
ENDBRANCH  10  18
BRANCH   1  20
HETATM   20  O1  UNL     1      20.856   0.231  51.517  1.00  0.00    -0.353 OA
HETATM   21  C1  UNL     1      19.981   1.116  50.803  1.00  0.00     0.210 C 
ENDBRANCH   1  20
TORSDOF 4
ENDMDL
MODEL 3
REMARK VINA RESULT:      -7.1      3.098      6.708
REMARK  4 active torsions:
REMARK  status: ('A' for Active; 'I' for Inactive)
REMARK    1  A    between atoms: O1_2  and  C2_3 
REMARK    2  A    between atoms: C6_9  and  N3_10 
REMARK    3  A    between atoms: N3_10  and  C7_11 
REMARK    4  A    between atoms: C14_18  and  O2_19 
ROOT
HETATM    1  C2  UNL     1      26.495   1.119  54.085  1.00  0.00     0.103 A 
HETATM    2  C3  UNL     1      25.925   2.360  53.895  1.00  0.00     0.072 A 
HETATM    3  C4  UNL     1      24.727   2.509  53.198  1.00  0.00     0.075 A 
HETATM    4  N1  UNL     1      24.195   3.746  53.030  1.00  0.00    -0.241 NA
HETATM    5  C5  UNL     1      23.040   3.870  52.355  1.00  0.00     0.236 A 
HETATM    6  N2  UNL     1      22.437   2.753  51.860  1.00  0.00    -0.224 NA
HETATM    7  C6  UNL     1      22.972   1.531  52.031  1.00  0.00     0.141 A 
HETATM    8  C12 UNL     1      24.153   1.347  52.714  1.00  0.00     0.042 A 
HETATM    9  C13 UNL     1      24.680   0.108  52.878  1.00  0.00     0.057 A 
HETATM   10  C14 UNL     1      25.872  -0.023  53.574  1.00  0.00     0.102 A 
ENDROOT
BRANCH   7  11
HETATM   11  N3  UNL     1      22.238   0.456  51.463  1.00  0.00    -0.344 N 
HETATM   12  H6  UNL     1      22.472  -0.180  50.674  1.00  0.00     0.167 HD
BRANCH  11  13
HETATM   13  C7  UNL     1      20.961   0.114  51.990  1.00  0.00     0.014 A 
HETATM   14  C8  UNL     1      19.803   0.305  51.373  1.00  0.00     0.025 A 
HETATM   15  C9  UNL     1      18.724  -0.171  52.230  1.00  0.00    -0.002 A 
HETATM   16  C10 UNL     1      19.231  -0.651  53.369  1.00  0.00    -0.021 A 
HETATM   17  C11 UNL     1      20.702  -0.510  53.313  1.00  0.00     0.084 A 
ENDBRANCH  11  13
ENDBRANCH   7  11
BRANCH  10  18
HETATM   18  O2  UNL     1      26.422  -1.285  53.751  1.00  0.00    -0.353 OA
HETATM   19  C15 UNL     1      27.028  -1.900  52.642  1.00  0.00     0.210 C 
ENDBRANCH  10  18
BRANCH   1  20
HETATM   20  O1  UNL     1      27.681   0.885  54.765  1.00  0.00    -0.353 OA
HETATM   21  C1  UNL     1      28.952   1.195  54.175  1.00  0.00     0.210 C 
ENDBRANCH   1  20
TORSDOF 4
ENDMDL
MODEL 4
REMARK VINA RESULT:      -7.1      3.238      6.777
REMARK  4 active torsions:
REMARK  status: ('A' for Active; 'I' for Inactive)
REMARK    1  A    between atoms: O1_2  and  C2_3 
REMARK    2  A    between atoms: C6_9  and  N3_10 
REMARK    3  A    between atoms: N3_10  and  C7_11 
REMARK    4  A    between atoms: C14_18  and  O2_19 
ROOT
HETATM    1  C2  UNL     1      27.632   0.296  53.880  1.00  0.00     0.103 A 
HETATM    2  C3  UNL     1      27.903   1.110  52.801  1.00  0.00     0.072 A 
HETATM    3  C4  UNL     1      26.912   1.903  52.224  1.00  0.00     0.075 A 
HETATM    4  N1  UNL     1      27.216   2.692  51.162  1.00  0.00    -0.241 NA
HETATM    5  C5  UNL     1      26.248   3.450  50.619  1.00  0.00     0.236 A 
HETATM    6  N2  UNL     1      24.993   3.406  51.149  1.00  0.00    -0.224 NA
HETATM    7  C6  UNL     1      24.703   2.620  52.201  1.00  0.00     0.141 A 
HETATM    8  C12 UNL     1      25.656   1.824  52.796  1.00  0.00     0.042 A 
HETATM    9  C13 UNL     1      25.346   1.038  53.857  1.00  0.00     0.057 A 
HETATM   10  C14 UNL     1      26.343   0.254  54.419  1.00  0.00     0.102 A 
ENDROOT
BRANCH   7  11
HETATM   11  N3  UNL     1      23.356   2.671  52.651  1.00  0.00    -0.344 N 
HETATM   12  H6  UNL     1      22.885   3.332  53.301  1.00  0.00     0.167 HD
BRANCH  11  13
HETATM   13  C7  UNL     1      22.420   1.701  52.193  1.00  0.00     0.014 A 
HETATM   14  C8  UNL     1      21.744   0.865  52.969  1.00  0.00     0.025 A 
HETATM   15  C9  UNL     1      20.889   0.030  52.133  1.00  0.00    -0.002 A 
HETATM   16  C10 UNL     1      21.049   0.361  50.850  1.00  0.00    -0.021 A 
HETATM   17  C11 UNL     1      22.041   1.457  50.778  1.00  0.00     0.084 A 
ENDBRANCH  11  13
ENDBRANCH   7  11
BRANCH  10  18
HETATM   18  O2  UNL     1      26.042  -0.555  55.505  1.00  0.00    -0.353 OA
HETATM   19  C15 UNL     1      24.773  -1.158  55.546  1.00  0.00     0.210 C 
ENDBRANCH  10  18
BRANCH   1  20
HETATM   20  O1  UNL     1      28.558  -0.522  54.511  1.00  0.00    -0.353 OA
HETATM   21  C1  UNL     1      29.748  -0.956  53.838  1.00  0.00     0.210 C 
ENDBRANCH   1  20
TORSDOF 4
ENDMDL
MODEL 5
REMARK VINA RESULT:      -6.9      2.802      5.892
REMARK  4 active torsions:
REMARK  status: ('A' for Active; 'I' for Inactive)
REMARK    1  A    between atoms: O1_2  and  C2_3 
REMARK    2  A    between atoms: C6_9  and  N3_10 
REMARK    3  A    between atoms: N3_10  and  C7_11 
REMARK    4  A    between atoms: C14_18  and  O2_19 
ROOT
HETATM    1  C2  UNL     1      26.633   0.107  53.325  1.00  0.00     0.103 A 
HETATM    2  C3  UNL     1      25.684  -0.611  54.020  1.00  0.00     0.072 A 
HETATM    3  C4  UNL     1      24.326  -0.319  53.905  1.00  0.00     0.075 A 
HETATM    4  N1  UNL     1      23.419  -1.047  54.604  1.00  0.00    -0.241 NA
HETATM    5  C5  UNL     1      22.113  -0.751  54.481  1.00  0.00     0.236 A 
HETATM    6  N2  UNL     1      21.739   0.270  53.658  1.00  0.00    -0.224 NA
HETATM    7  C6  UNL     1      22.646   0.985  52.970  1.00  0.00     0.141 A 
HETATM    8  C12 UNL     1      23.994   0.724  53.059  1.00  0.00     0.042 A 
HETATM    9  C13 UNL     1      24.896   1.456  52.358  1.00  0.00     0.057 A 
HETATM   10  C14 UNL     1      26.243   1.153  52.484  1.00  0.00     0.102 A 
ENDROOT
BRANCH   7  11
HETATM   11  N3  UNL     1      22.117   2.019  52.151  1.00  0.00    -0.344 N 
HETATM   12  H6  UNL     1      21.753   2.960  52.402  1.00  0.00     0.167 HD
BRANCH  11  13
HETATM   13  C7  UNL     1      22.028   1.831  50.743  1.00  0.00     0.014 A 
HETATM   14  C8  UNL     1      21.346   0.866  50.142  1.00  0.00     0.025 A 
HETATM   15  C9  UNL     1      21.498   1.006  48.698  1.00  0.00    -0.002 A 
HETATM   16  C10 UNL     1      22.274   2.059  48.426  1.00  0.00    -0.021 A 
HETATM   17  C11 UNL     1      22.679   2.675  49.709  1.00  0.00     0.084 A 
ENDBRANCH  11  13
ENDBRANCH   7  11
BRANCH  10  18
HETATM   18  O2  UNL     1      27.177   1.892  51.772  1.00  0.00    -0.353 OA
HETATM   19  C15 UNL     1      26.702   2.847  50.857  1.00  0.00     0.210 C 
ENDBRANCH  10  18
BRANCH   1  20
HETATM   20  O1  UNL     1      28.001  -0.119  53.384  1.00  0.00    -0.353 OA
HETATM   21  C1  UNL     1      28.754   0.176  54.569  1.00  0.00     0.210 C 
ENDBRANCH   1  20
TORSDOF 4
ENDMDL
MODEL 6
REMARK VINA RESULT:      -6.7      2.193      3.354
REMARK  4 active torsions:
REMARK  status: ('A' for Active; 'I' for Inactive)
REMARK    1  A    between atoms: O1_2  and  C2_3 
REMARK    2  A    between atoms: C6_9  and  N3_10 
REMARK    3  A    between atoms: N3_10  and  C7_11 
REMARK    4  A    between atoms: C14_18  and  O2_19 
ROOT
HETATM    1  C2  UNL     1      23.085   2.302  50.166  1.00  0.00     0.103 A 
HETATM    2  C3  UNL     1      22.498   1.302  50.912  1.00  0.00     0.072 A 
HETATM    3  C4  UNL     1      23.133   0.762  52.029  1.00  0.00     0.075 A 
HETATM    4  N1  UNL     1      22.524  -0.222  52.739  1.00  0.00    -0.241 NA
HETATM    5  C5  UNL     1      23.151  -0.731  53.813  1.00  0.00     0.236 A 
HETATM    6  N2  UNL     1      24.377  -0.245  54.159  1.00  0.00    -0.224 NA
HETATM    7  C6  UNL     1      24.971   0.730  53.448  1.00  0.00     0.141 A 
HETATM    8  C12 UNL     1      24.374   1.286  52.340  1.00  0.00     0.042 A 
HETATM    9  C13 UNL     1      24.988   2.269  51.634  1.00  0.00     0.057 A 
HETATM   10  C14 UNL     1      24.343   2.795  50.525  1.00  0.00     0.102 A 
ENDROOT
BRANCH   7  11
HETATM   11  N3  UNL     1      26.247   1.141  53.920  1.00  0.00    -0.344 N 
HETATM   12  H6  UNL     1      26.543   2.018  54.392  1.00  0.00     0.167 HD
BRANCH  11  13
HETATM   13  C7  UNL     1      27.369   0.278  53.767  1.00  0.00     0.014 A 
HETATM   14  C8  UNL     1      27.404  -0.803  52.999  1.00  0.00     0.025 A 
HETATM   15  C9  UNL     1      28.721  -1.418  53.106  1.00  0.00    -0.002 A 
HETATM   16  C10 UNL     1      29.485  -0.708  53.940  1.00  0.00    -0.021 A 
HETATM   17  C11 UNL     1      28.687   0.436  54.434  1.00  0.00     0.084 A 
ENDBRANCH  11  13
ENDBRANCH   7  11
BRANCH  10  18
HETATM   18  O2  UNL     1      24.958   3.802  49.794  1.00  0.00    -0.353 OA
HETATM   19  C15 UNL     1      24.958   5.101  50.333  1.00  0.00     0.210 C 
ENDBRANCH  10  18
BRANCH   1  20
HETATM   20  O1  UNL     1      22.523   2.892  49.044  1.00  0.00    -0.353 OA
HETATM   21  C1  UNL     1      22.326   2.149  47.832  1.00  0.00     0.210 C 
ENDBRANCH   1  20
TORSDOF 4
ENDMDL
MODEL 7
REMARK VINA RESULT:      -6.7      3.663      5.157
REMARK  4 active torsions:
REMARK  status: ('A' for Active; 'I' for Inactive)
REMARK    1  A    between atoms: O1_2  and  C2_3 
REMARK    2  A    between atoms: C6_9  and  N3_10 
REMARK    3  A    between atoms: N3_10  and  C7_11 
REMARK    4  A    between atoms: C14_18  and  O2_19 
ROOT
HETATM    1  C2  UNL     1      23.027   0.782  53.042  1.00  0.00     0.103 A 
HETATM    2  C3  UNL     1      24.276   0.927  53.607  1.00  0.00     0.072 A 
HETATM    3  C4  UNL     1      25.327   1.512  52.902  1.00  0.00     0.075 A 
HETATM    4  N1  UNL     1      26.544   1.638  53.490  1.00  0.00    -0.241 NA
HETATM    5  C5  UNL     1      27.545   2.205  52.796  1.00  0.00     0.236 A 
HETATM    6  N2  UNL     1      27.310   2.636  51.524  1.00  0.00    -0.224 NA
HETATM    7  C6  UNL     1      26.101   2.507  50.951  1.00  0.00     0.141 A 
HETATM    8  C12 UNL     1      25.041   1.934  51.616  1.00  0.00     0.042 A 
HETATM    9  C13 UNL     1      23.827   1.811  51.023  1.00  0.00     0.057 A 
HETATM   10  C14 UNL     1      22.793   1.226  51.737  1.00  0.00     0.102 A 
ENDROOT
BRANCH   7  11
HETATM   11  N3  UNL     1      25.997   2.999  49.622  1.00  0.00    -0.344 N 
HETATM   12  H6  UNL     1      25.691   2.527  48.749  1.00  0.00     0.167 HD
BRANCH  11  13
HETATM   13  C7  UNL     1      26.349   4.349  49.338  1.00  0.00     0.014 A 
HETATM   14  C8  UNL     1      25.618   5.411  49.648  1.00  0.00     0.025 A 
HETATM   15  C9  UNL     1      26.311   6.612  49.195  1.00  0.00    -0.002 A 
HETATM   16  C10 UNL     1      27.463   6.275  48.610  1.00  0.00    -0.021 A 
HETATM   17  C11 UNL     1      27.586   4.801  48.651  1.00  0.00     0.084 A 
ENDBRANCH  11  13
ENDBRANCH   7  11
BRANCH  10  18
HETATM   18  O2  UNL     1      21.545   1.094  51.144  1.00  0.00    -0.353 OA
HETATM   19  C15 UNL     1      21.490   0.986  49.744  1.00  0.00     0.210 C 
ENDBRANCH  10  18
BRANCH   1  20
HETATM   20  O1  UNL     1      21.931   0.212  53.673  1.00  0.00    -0.353 OA
HETATM   21  C1  UNL     1      21.943  -1.160  54.093  1.00  0.00     0.210 C 
ENDBRANCH   1  20
TORSDOF 4
ENDMDL
MODEL 8
REMARK VINA RESULT:      -6.5      3.822      5.334
REMARK  4 active torsions:
REMARK  status: ('A' for Active; 'I' for Inactive)
REMARK    1  A    between atoms: O1_2  and  C2_3 
REMARK    2  A    between atoms: C6_9  and  N3_10 
REMARK    3  A    between atoms: N3_10  and  C7_11 
REMARK    4  A    between atoms: C14_18  and  O2_19 
ROOT
HETATM    1  C2  UNL     1      24.297   5.294  50.286  1.00  0.00     0.103 A 
HETATM    2  C3  UNL     1      23.435   4.579  51.090  1.00  0.00     0.072 A 
HETATM    3  C4  UNL     1      23.803   3.351  51.636  1.00  0.00     0.075 A 
HETATM    4  N1  UNL     1      22.928   2.675  52.424  1.00  0.00    -0.241 NA
HETATM    5  C5  UNL     1      23.300   1.492  52.942  1.00  0.00     0.236 A 
HETATM    6  N2  UNL     1      24.543   1.007  52.663  1.00  0.00    -0.224 NA
HETATM    7  C6  UNL     1      25.402   1.684  51.882  1.00  0.00     0.141 A 
HETATM    8  C12 UNL     1      25.073   2.899  51.326  1.00  0.00     0.042 A 
HETATM    9  C13 UNL     1      25.952   3.570  50.539  1.00  0.00     0.057 A 
HETATM   10  C14 UNL     1      25.570   4.790  50.003  1.00  0.00     0.102 A 
ENDROOT
BRANCH   7  11
HETATM   11  N3  UNL     1      26.663   1.061  51.674  1.00  0.00    -0.344 N 
HETATM   12  H6  UNL     1      27.068   0.623  50.823  1.00  0.00     0.167 HD
BRANCH  11  13
HETATM   13  C7  UNL     1      27.593   0.973  52.748  1.00  0.00     0.014 A 
HETATM   14  C8  UNL     1      27.918  -0.142  53.388  1.00  0.00     0.025 A 
HETATM   15  C9  UNL     1      28.900   0.173  54.420  1.00  0.00    -0.002 A 
HETATM   16  C10 UNL     1      29.168   1.480  54.404  1.00  0.00    -0.021 A 
HETATM   17  C11 UNL     1      28.356   2.103  53.335  1.00  0.00     0.084 A 
ENDBRANCH  11  13
ENDBRANCH   7  11
BRANCH  10  18
HETATM   18  O2  UNL     1      26.459   5.488  49.198  1.00  0.00    -0.353 OA
HETATM   19  C15 UNL     1      27.567   4.793  48.683  1.00  0.00     0.210 C 
ENDBRANCH  10  18
BRANCH   1  20
HETATM   20  O1  UNL     1      24.010   6.520  49.704  1.00  0.00    -0.353 OA
HETATM   21  C1  UNL     1      23.876   7.707  50.498  1.00  0.00     0.210 C 
ENDBRANCH   1  20
TORSDOF 4
ENDMDL
MODEL 9
REMARK VINA RESULT:      -6.5      3.764      5.382
REMARK  4 active torsions:
REMARK  status: ('A' for Active; 'I' for Inactive)
REMARK    1  A    between atoms: O1_2  and  C2_3 
REMARK    2  A    between atoms: C6_9  and  N3_10 
REMARK    3  A    between atoms: N3_10  and  C7_11 
REMARK    4  A    between atoms: C14_18  and  O2_19 
ROOT
HETATM    1  C2  UNL     1      22.513  -0.030  52.875  1.00  0.00     0.103 A 
HETATM    2  C3  UNL     1      21.564   0.725  52.219  1.00  0.00     0.072 A 
HETATM    3  C4  UNL     1      21.847   2.013  51.768  1.00  0.00     0.075 A 
HETATM    4  N1  UNL     1      20.888   2.727  51.126  1.00  0.00    -0.241 NA
HETATM    5  C5  UNL     1      21.179   3.968  50.698  1.00  0.00     0.236 A 
HETATM    6  N2  UNL     1      22.426   4.471  50.919  1.00  0.00    -0.224 NA
HETATM    7  C6  UNL     1      23.369   3.755  51.556  1.00  0.00     0.141 A 
HETATM    8  C12 UNL     1      23.125   2.481  52.015  1.00  0.00     0.042 A 
HETATM    9  C13 UNL     1      24.088   1.772  52.656  1.00  0.00     0.057 A 
HETATM   10  C14 UNL     1      23.790   0.493  53.100  1.00  0.00     0.102 A 
ENDROOT
BRANCH   7  11
HETATM   11  N3  UNL     1      24.624   4.403  51.719  1.00  0.00    -0.344 N 
HETATM   12  H6  UNL     1      25.058   4.833  52.559  1.00  0.00     0.167 HD
BRANCH  11  13
HETATM   13  C7  UNL     1      25.501   4.534  50.606  1.00  0.00     0.014 A 
HETATM   14  C8  UNL     1      26.283   3.575  50.131  1.00  0.00     0.025 A 
HETATM   15  C9  UNL     1      27.029   4.092  48.989  1.00  0.00    -0.002 A 
HETATM   16  C10 UNL     1      26.697   5.368  48.774  1.00  0.00    -0.021 A 
HETATM   17  C11 UNL     1      25.693   5.759  49.788  1.00  0.00     0.084 A 
ENDBRANCH  11  13
ENDBRANCH   7  11
BRANCH  10  18
HETATM   18  O2  UNL     1      24.765  -0.245  53.756  1.00  0.00    -0.353 OA
HETATM   19  C15 UNL     1      25.977   0.396  54.068  1.00  0.00     0.210 C 
ENDBRANCH  10  18
BRANCH   1  20
HETATM   20  O1  UNL     1      22.313  -1.316  53.355  1.00  0.00    -0.353 OA
HETATM   21  C1  UNL     1      21.318  -1.593  54.350  1.00  0.00     0.210 C 
ENDBRANCH   1  20
TORSDOF 4
ENDMDL
