MODEL 1
REMARK VINA RESULT:      -8.2      0.000      0.000
REMARK  5 active torsions:
REMARK  status: ('A' for Active; 'I' for Inactive)
REMARK    1  A    between atoms: O1_2  and  C2_3 
REMARK    2  A    between atoms: C2_3  and  O2_4 
REMARK    3  A    between atoms: O2_4  and  C3_5 
REMARK    4  A    between atoms: C11_16  and  N3_17 
REMARK    5  A    between atoms: N3_17  and  C12_18 
ROOT
HETATM    1  C3  UNL     1      25.650  -0.014  54.948  1.00  0.00     0.074 A 
HETATM    2  C4  UNL     1      25.102  -0.839  55.907  1.00  0.00     0.037 A 
HETATM    3  C5  UNL     1      23.870  -1.422  55.709  1.00  0.00     0.014 A 
HETATM    4  C6  UNL     1      23.127  -1.223  54.566  1.00  0.00    -0.006 A 
HETATM    5  C7  UNL     1      23.674  -0.392  53.597  1.00  0.00     0.088 A 
HETATM    6  C8  UNL     1      24.912   0.196  53.793  1.00  0.00     0.074 A 
HETATM    7  O3  UNL     1      23.084  -0.054  52.361  1.00  0.00    -0.289 OA
HETATM    8  C9  UNL     1      21.688   0.056  52.176  1.00  0.00     0.202 A 
HETATM    9  N1  UNL     1      21.420   0.675  51.012  1.00  0.00    -0.215 NA
HETATM   10  C10 UNL     1      20.141   0.880  50.647  1.00  0.00     0.238 A 
HETATM   11  N2  UNL     1      19.175   0.465  51.445  1.00  0.00    -0.222 NA
HETATM   12  C11 UNL     1      19.339  -0.157  52.616  1.00  0.00     0.160 A 
HETATM   13  C18 UNL     1      20.633  -0.370  52.998  1.00  0.00     0.129 A 
HETATM   14  N4  UNL     1      20.801  -1.013  54.268  1.00  0.00    -0.379 N 
HETATM   15  C19 UNL     1      21.828  -1.986  54.635  1.00  0.00     0.161 C 
HETATM   16  H15 UNL     1      20.043  -0.665  54.932  1.00  0.00     0.160 HD
ENDROOT
BRANCH  12  17
HETATM   17  N3  UNL     1      18.277  -0.596  53.449  1.00  0.00    -0.339 N 
HETATM   18  H10 UNL     1      17.966  -0.142  54.328  1.00  0.00     0.167 HD
BRANCH  17  19
HETATM   19  C12 UNL     1      17.462  -1.743  53.247  1.00  0.00     0.035 A 
HETATM   20  C13 UNL     1      17.741  -3.012  53.731  1.00  0.00     0.029 A 
HETATM   21  C14 UNL     1      16.956  -4.121  53.550  1.00  0.00     0.004 A 
HETATM   22  C15 UNL     1      15.784  -4.009  52.832  1.00  0.00     0.019 A 
HETATM   23  C16 UNL     1      15.436  -2.781  52.317  1.00  0.00     0.013 A 
HETATM   24 BR1  UNL     1      13.807  -2.674  51.337  1.00  0.00    -0.051 Br
HETATM   25  C17 UNL     1      16.278  -1.715  52.543  1.00  0.00     0.048 A 
ENDBRANCH  17  19
ENDBRANCH  12  17
BRANCH   1  26
HETATM   26  O2  UNL     1      26.862   0.654  54.969  1.00  0.00    -0.326 OA
BRANCH  26  27
HETATM   27  C2  UNL     1      27.922   0.477  54.083  1.00  0.00     0.344 C 
BRANCH  27  28
HETATM   28  O1  UNL     1      29.050  -0.093  54.664  1.00  0.00    -0.371 OA
HETATM   29  C1  UNL     1      29.739  -0.891  53.729  1.00  0.00     0.204 C 
ENDBRANCH  27  28
ENDBRANCH  26  27
ENDBRANCH   1  26
TORSDOF 5
ENDMDL
MODEL 2
REMARK VINA RESULT:      -8.1      6.986      8.669
REMARK  5 active torsions:
REMARK  status: ('A' for Active; 'I' for Inactive)
REMARK    1  A    between atoms: O1_2  and  C2_3 
REMARK    2  A    between atoms: C2_3  and  O2_4 
REMARK    3  A    between atoms: O2_4  and  C3_5 
REMARK    4  A    between atoms: C11_16  and  N3_17 
REMARK    5  A    between atoms: N3_17  and  C12_18 
ROOT
HETATM    1  C3  UNL     1      28.166   7.292  47.567  1.00  0.00     0.074 A 
HETATM    2  C4  UNL     1      28.901   6.170  47.890  1.00  0.00     0.037 A 
HETATM    3  C5  UNL     1      28.308   5.104  48.528  1.00  0.00     0.014 A 
HETATM    4  C6  UNL     1      26.975   5.091  48.875  1.00  0.00    -0.006 A 
HETATM    5  C7  UNL     1      26.231   6.219  48.553  1.00  0.00     0.088 A 
HETATM    6  C8  UNL     1      26.824   7.294  47.911  1.00  0.00     0.074 A 
HETATM    7  O3  UNL     1      24.858   6.414  48.817  1.00  0.00    -0.289 OA
HETATM    8  C9  UNL     1      24.203   5.865  49.941  1.00  0.00     0.202 A 
HETATM    9  N1  UNL     1      23.001   6.447  50.110  1.00  0.00    -0.215 NA
HETATM   10  C10 UNL     1      22.214   6.063  51.131  1.00  0.00     0.238 A 
HETATM   11  N2  UNL     1      22.643   5.118  51.948  1.00  0.00    -0.222 NA
HETATM   12  C11 UNL     1      23.816   4.483  51.864  1.00  0.00     0.160 A 
HETATM   13  C18 UNL     1      24.624   4.865  50.831  1.00  0.00     0.129 A 
HETATM   14  N4  UNL     1      25.891   4.198  50.764  1.00  0.00    -0.379 N 
HETATM   15  C19 UNL     1      26.614   3.797  49.558  1.00  0.00     0.161 C 
HETATM   16  H15 UNL     1      26.245   4.033  51.756  1.00  0.00     0.160 HD
ENDROOT
BRANCH  12  17
HETATM   17  N3  UNL     1      24.244   3.467  52.756  1.00  0.00    -0.339 N 
HETATM   18  H10 UNL     1      25.000   3.556  53.461  1.00  0.00     0.167 HD
BRANCH  17  19
HETATM   19  C12 UNL     1      23.738   2.141  52.836  1.00  0.00     0.035 A 
HETATM   20  C13 UNL     1      24.491   1.019  53.143  1.00  0.00     0.029 A 
HETATM   21  C14 UNL     1      24.009  -0.261  53.232  1.00  0.00     0.004 A 
HETATM   22  C15 UNL     1      22.669  -0.496  53.003  1.00  0.00     0.019 A 
HETATM   23  C16 UNL     1      21.853   0.568  52.691  1.00  0.00     0.013 A 
HETATM   24 BR1  UNL     1      20.011   0.196  52.387  1.00  0.00    -0.051 Br
HETATM   25  C17 UNL     1      22.414   1.824  52.622  1.00  0.00     0.048 A 
ENDBRANCH  17  19
ENDBRANCH  12  17
BRANCH   1  26
HETATM   26  O2  UNL     1      28.585   8.450  46.933  1.00  0.00    -0.326 OA
BRANCH  26  27
HETATM   27  C2  UNL     1      29.797   9.107  47.124  1.00  0.00     0.344 C 
BRANCH  27  28
HETATM   28  O1  UNL     1      29.751  10.097  48.100  1.00  0.00    -0.371 OA
HETATM   29  C1  UNL     1      30.490   9.706  49.235  1.00  0.00     0.204 C 
ENDBRANCH  27  28
ENDBRANCH  26  27
ENDBRANCH   1  26
TORSDOF 5
ENDMDL
MODEL 3
REMARK VINA RESULT:      -8.0      6.310      9.627
REMARK  5 active torsions:
REMARK  status: ('A' for Active; 'I' for Inactive)
REMARK    1  A    between atoms: O1_2  and  C2_3 
REMARK    2  A    between atoms: C2_3  and  O2_4 
REMARK    3  A    between atoms: O2_4  and  C3_5 
REMARK    4  A    between atoms: C11_16  and  N3_17 
REMARK    5  A    between atoms: N3_17  and  C12_18 
ROOT
HETATM    1  C3  UNL     1      24.662  -0.536  53.819  1.00  0.00     0.074 A 
HETATM    2  C4  UNL     1      25.766  -0.820  53.044  1.00  0.00     0.037 A 
HETATM    3  C5  UNL     1      26.367   0.165  52.291  1.00  0.00     0.014 A 
HETATM    4  C6  UNL     1      25.912   1.465  52.267  1.00  0.00    -0.006 A 
HETATM    5  C7  UNL     1      24.799   1.756  53.045  1.00  0.00     0.088 A 
HETATM    6  C8  UNL     1      24.193   0.769  53.803  1.00  0.00     0.074 A 
HETATM    7  O3  UNL     1      24.173   3.016  53.165  1.00  0.00    -0.289 OA
HETATM    8  C9  UNL     1      24.128   3.957  52.113  1.00  0.00     0.202 A 
HETATM    9  N1  UNL     1      23.228   4.919  52.388  1.00  0.00    -0.215 NA
HETATM   10  C10 UNL     1      23.031   5.917  51.508  1.00  0.00     0.238 A 
HETATM   11  N2  UNL     1      23.732   5.929  50.389  1.00  0.00    -0.222 NA
HETATM   12  C11 UNL     1      24.645   5.024  50.027  1.00  0.00     0.160 A 
HETATM   13  C18 UNL     1      24.852   4.005  50.912  1.00  0.00     0.129 A 
HETATM   14  N4  UNL     1      25.814   3.022  50.505  1.00  0.00    -0.379 N 
HETATM   15  C19 UNL     1      26.765   2.311  51.357  1.00  0.00     0.161 C 
HETATM   16  H15 UNL     1      25.730   2.876  49.452  1.00  0.00     0.160 HD
ENDROOT
BRANCH  12  17
HETATM   17  N3  UNL     1      25.386   5.068  48.818  1.00  0.00    -0.339 N 
HETATM   18  H10 UNL     1      25.111   4.629  47.919  1.00  0.00     0.167 HD
BRANCH  17  19
HETATM   19  C12 UNL     1      26.644   5.699  48.619  1.00  0.00     0.035 A 
HETATM   20  C13 UNL     1      27.858   5.038  48.515  1.00  0.00     0.029 A 
HETATM   21  C14 UNL     1      29.074   5.638  48.314  1.00  0.00     0.004 A 
HETATM   22  C15 UNL     1      29.140   7.011  48.200  1.00  0.00     0.019 A 
HETATM   23  C16 UNL     1      27.976   7.741  48.292  1.00  0.00     0.013 A 
HETATM   24 BR1  UNL     1      28.116   9.632  48.125  1.00  0.00    -0.051 Br
HETATM   25  C17 UNL     1      26.795   7.063  48.495  1.00  0.00     0.048 A 
ENDBRANCH  17  19
ENDBRANCH  12  17
BRANCH   1  26
HETATM   26  O2  UNL     1      23.932  -1.385  54.632  1.00  0.00    -0.326 OA
BRANCH  26  27
HETATM   27  C2  UNL     1      22.692  -1.119  55.208  1.00  0.00     0.344 C 
BRANCH  27  28
HETATM   28  O1  UNL     1      21.718  -2.066  54.907  1.00  0.00    -0.371 OA
HETATM   29  C1  UNL     1      20.678  -1.484  54.155  1.00  0.00     0.204 C 
ENDBRANCH  27  28
ENDBRANCH  26  27
ENDBRANCH   1  26
TORSDOF 5
ENDMDL
MODEL 4
REMARK VINA RESULT:      -8.0      6.467     10.002
REMARK  5 active torsions:
REMARK  status: ('A' for Active; 'I' for Inactive)
REMARK    1  A    between atoms: O1_2  and  C2_3 
REMARK    2  A    between atoms: C2_3  and  O2_4 
REMARK    3  A    between atoms: O2_4  and  C3_5 
REMARK    4  A    between atoms: C11_16  and  N3_17 
REMARK    5  A    between atoms: N3_17  and  C12_18 
ROOT
HETATM    1  C3  UNL     1      24.015  -0.304  53.581  1.00  0.00     0.074 A 
HETATM    2  C4  UNL     1      25.239  -0.659  53.054  1.00  0.00     0.037 A 
HETATM    3  C5  UNL     1      26.025   0.274  52.415  1.00  0.00     0.014 A 
HETATM    4  C6  UNL     1      25.646   1.590  52.268  1.00  0.00    -0.006 A 
HETATM    5  C7  UNL     1      24.414   1.953  52.796  1.00  0.00     0.088 A 
HETATM    6  C8  UNL     1      23.621   1.017  53.439  1.00  0.00     0.074 A 
HETATM    7  O3  UNL     1      23.838   3.241  52.755  1.00  0.00    -0.289 OA
HETATM    8  C9  UNL     1      24.050   4.148  51.694  1.00  0.00     0.202 A 
HETATM    9  N1  UNL     1      23.159   5.155  51.757  1.00  0.00    -0.215 NA
HETATM   10  C10 UNL     1      23.192   6.130  50.831  1.00  0.00     0.238 A 
HETATM   11  N2  UNL     1      24.105   6.076  49.878  1.00  0.00    -0.222 NA
HETATM   12  C11 UNL     1      25.028   5.121  49.731  1.00  0.00     0.160 A 
HETATM   13  C18 UNL     1      25.003   4.125  50.664  1.00  0.00     0.129 A 
HETATM   14  N4  UNL     1      25.980   3.090  50.485  1.00  0.00    -0.379 N 
HETATM   15  C19 UNL     1      26.704   2.370  51.530  1.00  0.00     0.161 C 
HETATM   16  H15 UNL     1      26.104   2.913  49.441  1.00  0.00     0.160 HD
ENDROOT
BRANCH  12  17
HETATM   17  N3  UNL     1      25.998   5.095  48.697  1.00  0.00    -0.339 N 
HETATM   18  H10 UNL     1      25.996   4.460  47.876  1.00  0.00     0.167 HD
BRANCH  17  19
HETATM   19  C12 UNL     1      27.159   5.911  48.604  1.00  0.00     0.035 A 
HETATM   20  C13 UNL     1      27.180   7.287  48.775  1.00  0.00     0.029 A 
HETATM   21  C14 UNL     1      28.295   8.079  48.697  1.00  0.00     0.004 A 
HETATM   22  C15 UNL     1      29.518   7.501  48.428  1.00  0.00     0.019 A 
HETATM   23  C16 UNL     1      29.581   6.138  48.244  1.00  0.00     0.013 A 
HETATM   24 BR1  UNL     1      31.291   5.383  47.879  1.00  0.00    -0.051 Br
HETATM   25  C17 UNL     1      28.415   5.411  48.339  1.00  0.00     0.048 A 
ENDBRANCH  17  19
ENDBRANCH  12  17
BRANCH   1  26
HETATM   26  O2  UNL     1      23.097  -1.095  54.250  1.00  0.00    -0.326 OA
BRANCH  26  27
HETATM   27  C2  UNL     1      21.884  -0.678  54.792  1.00  0.00     0.344 C 
BRANCH  27  28
HETATM   28  O1  UNL     1      20.776  -1.320  54.249  1.00  0.00    -0.371 OA
HETATM   29  C1  UNL     1      20.054  -0.442  53.415  1.00  0.00     0.204 C 
ENDBRANCH  27  28
ENDBRANCH  26  27
ENDBRANCH   1  26
TORSDOF 5
ENDMDL
MODEL 5
REMARK VINA RESULT:      -8.0      6.041      8.511
REMARK  5 active torsions:
REMARK  status: ('A' for Active; 'I' for Inactive)
REMARK    1  A    between atoms: O1_2  and  C2_3 
REMARK    2  A    between atoms: C2_3  and  O2_4 
REMARK    3  A    between atoms: O2_4  and  C3_5 
REMARK    4  A    between atoms: C11_16  and  N3_17 
REMARK    5  A    between atoms: N3_17  and  C12_18 
ROOT
HETATM    1  C3  UNL     1      26.039  -0.248  53.590  1.00  0.00     0.074 A 
HETATM    2  C4  UNL     1      26.436   0.873  54.288  1.00  0.00     0.037 A 
HETATM    3  C5  UNL     1      25.853   2.095  54.040  1.00  0.00     0.014 A 
HETATM    4  C6  UNL     1      24.860   2.270  53.101  1.00  0.00    -0.006 A 
HETATM    5  C7  UNL     1      24.457   1.144  52.394  1.00  0.00     0.088 A 
HETATM    6  C8  UNL     1      25.041  -0.087  52.641  1.00  0.00     0.074 A 
HETATM    7  O3  UNL     1      23.463   1.100  51.394  1.00  0.00    -0.289 OA
HETATM    8  C9  UNL     1      23.197   2.180  50.523  1.00  0.00     0.202 A 
HETATM    9  N1  UNL     1      22.433   1.770  49.493  1.00  0.00    -0.215 NA
HETATM   10  C10 UNL     1      22.065   2.652  48.546  1.00  0.00     0.238 A 
HETATM   11  N2  UNL     1      22.465   3.906  48.652  1.00  0.00    -0.222 NA
HETATM   12  C11 UNL     1      23.222   4.408  49.632  1.00  0.00     0.160 A 
HETATM   13  C18 UNL     1      23.602   3.521  50.599  1.00  0.00     0.129 A 
HETATM   14  N4  UNL     1      24.436   4.061  51.633  1.00  0.00    -0.379 N 
HETATM   15  C19 UNL     1      24.419   3.711  53.052  1.00  0.00     0.161 C 
HETATM   16  H15 UNL     1      25.097   4.778  51.202  1.00  0.00     0.160 HD
ENDROOT
BRANCH  12  17
HETATM   17  N3  UNL     1      23.629   5.763  49.718  1.00  0.00    -0.339 N 
HETATM   18  H10 UNL     1      23.207   6.488  50.328  1.00  0.00     0.167 HD
BRANCH  17  19
HETATM   19  C12 UNL     1      24.671   6.383  48.975  1.00  0.00     0.035 A 
HETATM   20  C13 UNL     1      24.526   7.525  48.202  1.00  0.00     0.029 A 
HETATM   21  C14 UNL     1      25.526   8.134  47.491  1.00  0.00     0.004 A 
HETATM   22  C15 UNL     1      26.797   7.599  47.517  1.00  0.00     0.019 A 
HETATM   23  C16 UNL     1      27.023   6.464  48.261  1.00  0.00     0.013 A 
HETATM   24 BR1  UNL     1      28.793   5.763  48.271  1.00  0.00    -0.051 Br
HETATM   25  C17 UNL     1      25.965   5.912  48.949  1.00  0.00     0.048 A 
ENDBRANCH  17  19
ENDBRANCH  12  17
BRANCH   1  26
HETATM   26  O2  UNL     1      26.504  -1.548  53.700  1.00  0.00    -0.326 OA
BRANCH  26  27
HETATM   27  C2  UNL     1      27.276  -2.233  52.766  1.00  0.00     0.344 C 
BRANCH  27  28
HETATM   28  O1  UNL     1      28.485  -2.701  53.272  1.00  0.00    -0.371 OA
HETATM   29  C1  UNL     1      29.422  -1.652  53.364  1.00  0.00     0.204 C 
ENDBRANCH  27  28
ENDBRANCH  26  27
ENDBRANCH   1  26
TORSDOF 5
ENDMDL
MODEL 6
REMARK VINA RESULT:      -7.8      5.360      7.315
REMARK  5 active torsions:
REMARK  status: ('A' for Active; 'I' for Inactive)
REMARK    1  A    between atoms: O1_2  and  C2_3 
REMARK    2  A    between atoms: C2_3  and  O2_4 
REMARK    3  A    between atoms: O2_4  and  C3_5 
REMARK    4  A    between atoms: C11_16  and  N3_17 
REMARK    5  A    between atoms: N3_17  and  C12_18 
ROOT
HETATM    1  C3  UNL     1      25.678  -0.463  53.391  1.00  0.00     0.074 A 
HETATM    2  C4  UNL     1      24.378  -0.459  53.851  1.00  0.00     0.037 A 
HETATM    3  C5  UNL     1      23.463   0.445  53.358  1.00  0.00     0.014 A 
HETATM    4  C6  UNL     1      23.783   1.378  52.397  1.00  0.00    -0.006 A 
HETATM    5  C7  UNL     1      25.091   1.379  51.931  1.00  0.00     0.088 A 
HETATM    6  C8  UNL     1      26.014   0.472  52.424  1.00  0.00     0.074 A 
HETATM    7  O3  UNL     1      25.626   2.245  50.954  1.00  0.00    -0.289 OA
HETATM    8  C9  UNL     1      25.186   3.576  50.778  1.00  0.00     0.202 A 
HETATM    9  N1  UNL     1      26.054   4.256  50.007  1.00  0.00    -0.215 NA
HETATM   10  C10 UNL     1      25.817   5.548  49.718  1.00  0.00     0.238 A 
HETATM   11  N2  UNL     1      24.729   6.121  50.201  1.00  0.00    -0.222 NA
HETATM   12  C11 UNL     1      23.810   5.533  50.972  1.00  0.00     0.160 A 
HETATM   13  C18 UNL     1      24.042   4.221  51.273  1.00  0.00     0.129 A 
HETATM   14  N4  UNL     1      23.066   3.604  52.123  1.00  0.00    -0.379 N 
HETATM   15  C19 UNL     1      22.583   2.226  52.058  1.00  0.00     0.161 C 
HETATM   16  H15 UNL     1      22.733   4.320  52.840  1.00  0.00     0.160 HD
ENDROOT
BRANCH  12  17
HETATM   17  N3  UNL     1      22.649   6.176  51.471  1.00  0.00    -0.339 N 
HETATM   18  H10 UNL     1      22.443   6.373  52.468  1.00  0.00     0.167 HD
BRANCH  17  19
HETATM   19  C12 UNL     1      21.547   6.647  50.705  1.00  0.00     0.035 A 
HETATM   20  C13 UNL     1      20.563   5.844  50.150  1.00  0.00     0.029 A 
HETATM   21  C14 UNL     1      19.493   6.290  49.419  1.00  0.00     0.004 A 
HETATM   22  C15 UNL     1      19.346   7.643  49.193  1.00  0.00     0.019 A 
HETATM   23  C16 UNL     1      20.283   8.508  49.712  1.00  0.00     0.013 A 
HETATM   24 BR1  UNL     1      20.036  10.366  49.378  1.00  0.00    -0.051 Br
HETATM   25  C17 UNL     1      21.329   7.980  50.436  1.00  0.00     0.048 A 
ENDBRANCH  17  19
ENDBRANCH  12  17
BRANCH   1  26
HETATM   26  O2  UNL     1      26.727  -1.286  53.764  1.00  0.00    -0.326 OA
BRANCH  26  27
HETATM   27  C2  UNL     1      27.858  -1.581  53.007  1.00  0.00     0.344 C 
BRANCH  27  28
HETATM   28  O1  UNL     1      29.031  -1.644  53.752  1.00  0.00    -0.371 OA
HETATM   29  C1  UNL     1      29.788  -0.467  53.584  1.00  0.00     0.204 C 
ENDBRANCH  27  28
ENDBRANCH  26  27
ENDBRANCH   1  26
TORSDOF 5
ENDMDL
MODEL 7
REMARK VINA RESULT:      -7.7      6.500      9.017
REMARK  5 active torsions:
REMARK  status: ('A' for Active; 'I' for Inactive)
REMARK    1  A    between atoms: O1_2  and  C2_3 
REMARK    2  A    between atoms: C2_3  and  O2_4 
REMARK    3  A    between atoms: O2_4  and  C3_5 
REMARK    4  A    between atoms: C11_16  and  N3_17 
REMARK    5  A    between atoms: N3_17  and  C12_18 
ROOT
HETATM    1  C3  UNL     1      25.539   0.417  52.741  1.00  0.00     0.074 A 
HETATM    2  C4  UNL     1      24.384   0.953  53.269  1.00  0.00     0.037 A 
HETATM    3  C5  UNL     1      23.837   2.100  52.738  1.00  0.00     0.014 A 
HETATM    4  C6  UNL     1      24.398   2.767  51.671  1.00  0.00    -0.006 A 
HETATM    5  C7  UNL     1      25.563   2.232  51.136  1.00  0.00     0.088 A 
HETATM    6  C8  UNL     1      26.115   1.078  51.668  1.00  0.00     0.074 A 
HETATM    7  O3  UNL     1      26.296   2.753  50.049  1.00  0.00    -0.289 OA
HETATM    8  C9  UNL     1      26.377   4.134  49.764  1.00  0.00     0.202 A 
HETATM    9  N1  UNL     1      27.365   4.371  48.882  1.00  0.00    -0.215 NA
HETATM   10  C10 UNL     1      27.608   5.631  48.477  1.00  0.00     0.238 A 
HETATM   11  N2  UNL     1      26.864   6.610  48.958  1.00  0.00    -0.222 NA
HETATM   12  C11 UNL     1      25.864   6.478  49.834  1.00  0.00     0.160 A 
HETATM   13  C18 UNL     1      25.610   5.203  50.253  1.00  0.00     0.129 A 
HETATM   14  N4  UNL     1      24.553   5.072  51.213  1.00  0.00    -0.379 N 
HETATM   15  C19 UNL     1      23.582   3.983  51.314  1.00  0.00     0.161 C 
HETATM   16  H15 UNL     1      24.580   5.911  51.871  1.00  0.00     0.160 HD
ENDROOT
BRANCH  12  17
HETATM   17  N3  UNL     1      25.081   7.552  50.328  1.00  0.00    -0.339 N 
HETATM   18  H10 UNL     1      25.110   7.933  51.292  1.00  0.00     0.167 HD
BRANCH  17  19
HETATM   19  C12 UNL     1      24.100   8.286  49.606  1.00  0.00     0.035 A 
HETATM   20  C13 UNL     1      24.369   9.158  48.562  1.00  0.00     0.029 A 
HETATM   21  C14 UNL     1      23.429   9.862  47.855  1.00  0.00     0.004 A 
HETATM   22  C15 UNL     1      22.095   9.721  48.175  1.00  0.00     0.019 A 
HETATM   23  C16 UNL     1      21.746   8.872  49.202  1.00  0.00     0.013 A 
HETATM   24 BR1  UNL     1      19.894   8.706  49.606  1.00  0.00    -0.051 Br
HETATM   25  C17 UNL     1      22.750   8.200  49.864  1.00  0.00     0.048 A 
ENDBRANCH  17  19
ENDBRANCH  12  17
BRANCH   1  26
HETATM   26  O2  UNL     1      26.229  -0.716  53.137  1.00  0.00    -0.326 OA
BRANCH  26  27
HETATM   27  C2  UNL     1      27.606  -0.914  53.072  1.00  0.00     0.344 C 
BRANCH  27  28
HETATM   28  O1  UNL     1      28.248  -0.796  54.300  1.00  0.00    -0.371 OA
HETATM   29  C1  UNL     1      29.028   0.377  54.341  1.00  0.00     0.204 C 
ENDBRANCH  27  28
ENDBRANCH  26  27
ENDBRANCH   1  26
TORSDOF 5
ENDMDL
MODEL 8
REMARK VINA RESULT:      -7.7      5.603      7.981
REMARK  5 active torsions:
REMARK  status: ('A' for Active; 'I' for Inactive)
REMARK    1  A    between atoms: O1_2  and  C2_3 
REMARK    2  A    between atoms: C2_3  and  O2_4 
REMARK    3  A    between atoms: O2_4  and  C3_5 
REMARK    4  A    between atoms: C11_16  and  N3_17 
REMARK    5  A    between atoms: N3_17  and  C12_18 
ROOT
HETATM    1  C3  UNL     1      26.027   0.189  53.438  1.00  0.00     0.074 A 
HETATM    2  C4  UNL     1      24.656   0.292  53.539  1.00  0.00     0.037 A 
HETATM    3  C5  UNL     1      23.942   1.053  52.640  1.00  0.00     0.014 A 
HETATM    4  C6  UNL     1      24.540   1.743  51.609  1.00  0.00    -0.006 A 
HETATM    5  C7  UNL     1      25.922   1.644  51.503  1.00  0.00     0.088 A 
HETATM    6  C8  UNL     1      26.642   0.879  52.405  1.00  0.00     0.074 A 
HETATM    7  O3  UNL     1      26.729   2.266  50.527  1.00  0.00    -0.289 OA
HETATM    8  C9  UNL     1      26.418   3.519  49.953  1.00  0.00     0.202 A 
HETATM    9  N1  UNL     1      27.486   4.008  49.298  1.00  0.00    -0.215 NA
HETATM   10  C10 UNL     1      27.398   5.198  48.677  1.00  0.00     0.238 A 
HETATM   11  N2  UNL     1      26.256   5.861  48.726  1.00  0.00    -0.222 NA
HETATM   12  C11 UNL     1      25.144   5.460  49.349  1.00  0.00     0.160 A 
HETATM   13  C18 UNL     1      25.223   4.253  49.984  1.00  0.00     0.129 A 
HETATM   14  N4  UNL     1      24.034   3.843  50.672  1.00  0.00    -0.379 N 
HETATM   15  C19 UNL     1      23.510   2.484  50.795  1.00  0.00     0.161 C 
HETATM   16  H15 UNL     1      23.572   4.703  51.102  1.00  0.00     0.160 HD
ENDROOT
BRANCH  12  17
HETATM   17  N3  UNL     1      23.931   6.195  49.379  1.00  0.00    -0.339 N 
HETATM   18  H10 UNL     1      23.554   6.714  50.193  1.00  0.00     0.167 HD
BRANCH  17  19
HETATM   19  C12 UNL     1      23.001   6.336  48.313  1.00  0.00     0.035 A 
HETATM   20  C13 UNL     1      22.284   7.489  48.029  1.00  0.00     0.029 A 
HETATM   21  C14 UNL     1      21.394   7.636  46.998  1.00  0.00     0.004 A 
HETATM   22  C15 UNL     1      21.161   6.575  46.149  1.00  0.00     0.019 A 
HETATM   23  C16 UNL     1      21.834   5.393  46.364  1.00  0.00     0.013 A 
HETATM   24 BR1  UNL     1      21.484   3.958  45.163  1.00  0.00    -0.051 Br
HETATM   25  C17 UNL     1      22.713   5.325  47.422  1.00  0.00     0.048 A 
ENDBRANCH  17  19
ENDBRANCH  12  17
BRANCH   1  26
HETATM   26  O2  UNL     1      26.904  -0.522  54.239  1.00  0.00    -0.326 OA
BRANCH  26  27
HETATM   27  C2  UNL     1      28.141  -0.083  54.706  1.00  0.00     0.344 C 
BRANCH  27  28
HETATM   28  O1  UNL     1      29.200  -0.915  54.358  1.00  0.00    -0.371 OA
HETATM   29  C1  UNL     1      30.076  -0.257  53.471  1.00  0.00     0.204 C 
ENDBRANCH  27  28
ENDBRANCH  26  27
ENDBRANCH   1  26
TORSDOF 5
ENDMDL
MODEL 9
REMARK VINA RESULT:      -7.5      4.640      9.290
REMARK  5 active torsions:
REMARK  status: ('A' for Active; 'I' for Inactive)
REMARK    1  A    between atoms: O1_2  and  C2_3 
REMARK    2  A    between atoms: C2_3  and  O2_4 
REMARK    3  A    between atoms: O2_4  and  C3_5 
REMARK    4  A    between atoms: C11_16  and  N3_17 
REMARK    5  A    between atoms: N3_17  and  C12_18 
ROOT
HETATM    1  C3  UNL     1      17.243   1.519  51.060  1.00  0.00     0.074 A 
HETATM    2  C4  UNL     1      17.968   1.974  49.979  1.00  0.00     0.037 A 
HETATM    3  C5  UNL     1      19.285   1.607  49.814  1.00  0.00     0.014 A 
HETATM    4  C6  UNL     1      19.944   0.782  50.698  1.00  0.00    -0.006 A 
HETATM    5  C7  UNL     1      19.218   0.321  51.789  1.00  0.00     0.088 A 
HETATM    6  C8  UNL     1      17.894   0.688  51.958  1.00  0.00     0.074 A 
HETATM    7  O3  UNL     1      19.697  -0.528  52.809  1.00  0.00    -0.289 OA
HETATM    8  C9  UNL     1      21.039  -0.522  53.252  1.00  0.00     0.202 A 
HETATM    9  N1  UNL     1      21.148  -1.193  54.413  1.00  0.00    -0.215 NA
HETATM   10  C10 UNL     1      22.351  -1.305  55.006  1.00  0.00     0.238 A 
HETATM   11  N2  UNL     1      23.401  -0.750  54.428  1.00  0.00    -0.222 NA
HETATM   12  C11 UNL     1      23.394  -0.066  53.280  1.00  0.00     0.160 A 
HETATM   13  C18 UNL     1      22.178   0.054  52.670  1.00  0.00     0.129 A 
HETATM   14  N4  UNL     1      22.174   0.812  51.453  1.00  0.00    -0.379 N 
HETATM   15  C19 UNL     1      21.369   0.559  50.259  1.00  0.00     0.161 C 
HETATM   16  H15 UNL     1      22.865   1.619  51.548  1.00  0.00     0.160 HD
ENDROOT
BRANCH  12  17
HETATM   17  N3  UNL     1      24.543   0.514  52.683  1.00  0.00    -0.339 N 
HETATM   18  H10 UNL     1      24.544   1.276  51.980  1.00  0.00     0.167 HD
BRANCH  17  19
HETATM   19  C12 UNL     1      25.896   0.147  52.919  1.00  0.00     0.035 A 
HETATM   20  C13 UNL     1      26.433  -1.109  52.681  1.00  0.00     0.029 A 
HETATM   21  C14 UNL     1      27.738  -1.468  52.896  1.00  0.00     0.004 A 
HETATM   22  C15 UNL     1      28.624  -0.534  53.391  1.00  0.00     0.019 A 
HETATM   23  C16 UNL     1      28.167   0.738  53.655  1.00  0.00     0.013 A 
HETATM   24 BR1  UNL     1      29.426   1.995  54.332  1.00  0.00    -0.051 Br
HETATM   25  C17 UNL     1      26.841   1.020  53.411  1.00  0.00     0.048 A 
ENDBRANCH  17  19
ENDBRANCH  12  17
BRANCH   1  26
HETATM   26  O2  UNL     1      15.923   1.778  51.389  1.00  0.00    -0.326 OA
BRANCH  26  27
HETATM   27  C2  UNL     1      15.461   2.796  52.219  1.00  0.00     0.344 C 
BRANCH  27  28
HETATM   28  O1  UNL     1      14.497   2.381  53.132  1.00  0.00    -0.371 OA
HETATM   29  C1  UNL     1      14.153   1.032  52.911  1.00  0.00     0.204 C 
ENDBRANCH  27  28
ENDBRANCH  26  27
ENDBRANCH   1  26
TORSDOF 5
ENDMDL
