MODEL 1
REMARK VINA RESULT:      -8.3      0.000      0.000
REMARK  6 active torsions:
REMARK  status: ('A' for Active; 'I' for Inactive)
REMARK    1  A    between atoms: C3_3  and  C4_4 
REMARK       I    between atoms: C4_4  and  N1_6 
REMARK    2  A    between atoms: N1_6  and  C5_7 
REMARK    3  A    between atoms: C6_8  and  C7_10 
REMARK    4  A    between atoms: C7_10  and  C8_11 
REMARK    5  A    between atoms: C8_11  and  N2_12 
REMARK    6  A    between atoms: N2_12  and  C9_13 
ROOT
HETATM    1  C9  UNL     1      22.546  -0.207  53.025  1.00  0.00     0.067 A 
HETATM    2  C10 UNL     1      23.108  -0.834  54.143  1.00  0.00     0.089 A 
HETATM    3  C11 UNL     1      24.529  -0.784  54.426  1.00  0.00     0.103 C 
HETATM    4  N3  UNL     1      25.663  -0.743  54.635  1.00  0.00    -0.191 NA
HETATM    5  C12 UNL     1      22.209  -1.502  54.963  1.00  0.00     0.142 A 
HETATM    6  N4  UNL     1      20.880  -1.538  54.690  1.00  0.00    -0.259 NA
HETATM    7  C13 UNL     1      20.393  -0.915  53.597  1.00  0.00     0.069 A 
HETATM    8  C14 UNL     1      19.029  -0.961  53.346  1.00  0.00     0.032 A 
HETATM    9  C15 UNL     1      18.525  -0.319  52.236  1.00  0.00     0.002 A 
HETATM   10  C16 UNL     1      19.369   0.361  51.385  1.00  0.00     0.001 A 
HETATM   11  C17 UNL     1      20.737   0.437  51.587  1.00  0.00     0.016 A 
HETATM   12  C18 UNL     1      21.205  -0.225  52.722  1.00  0.00     0.021 A 
ENDROOT
BRANCH   1  13
HETATM   13  N2  UNL     1      23.512   0.482  52.216  1.00  0.00    -0.364 N 
HETATM   14  H10 UNL     1      23.932  -0.095  51.432  1.00  0.00     0.165 HD
BRANCH  13  15
HETATM   15  C8  UNL     1      23.936   1.815  52.360  1.00  0.00     0.090 C 
BRANCH  15  16
HETATM   16  C7  UNL     1      24.621   2.922  52.285  1.00  0.00     0.037 C 
BRANCH  16  17
HETATM   17  C6  UNL     1      25.702   3.039  51.284  1.00  0.00     0.027 C 
HETATM   18  C5  UNL     1      26.849   2.424  51.404  1.00  0.00     0.110 C 
HETATM   19 BR1  UNL     1      25.381   4.132  49.753  1.00  0.00    -0.050 Br
BRANCH  18  20
HETATM   20  N1  UNL     1      27.142   1.587  52.542  1.00  0.00    -0.332 N 
HETATM   21  C4  UNL     1      28.273   1.754  53.383  1.00  0.00     0.244 C 
HETATM   22  O1  UNL     1      28.957   2.727  52.977  1.00  0.00    -0.268 OA
HETATM   23  H6  UNL     1      26.454   0.804  52.739  1.00  0.00     0.168 HD
BRANCH  21  24
HETATM   24  C3  UNL     1      28.541   0.899  54.528  1.00  0.00     0.070 C 
HETATM   25  C2  UNL     1      29.188  -0.241  54.428  1.00  0.00    -0.026 C 
HETATM   26  C1  UNL     1      29.804  -1.010  53.324  1.00  0.00     0.036 C 
ENDBRANCH  21  24
ENDBRANCH  18  20
ENDBRANCH  16  17
ENDBRANCH  15  16
ENDBRANCH  13  15
ENDBRANCH   1  13
TORSDOF 6
ENDMDL
MODEL 2
REMARK VINA RESULT:      -8.2      3.516      5.138
REMARK  6 active torsions:
REMARK  status: ('A' for Active; 'I' for Inactive)
REMARK    1  A    between atoms: C3_3  and  C4_4 
REMARK       I    between atoms: C4_4  and  N1_6 
REMARK    2  A    between atoms: N1_6  and  C5_7 
REMARK    3  A    between atoms: C6_8  and  C7_10 
REMARK    4  A    between atoms: C7_10  and  C8_11 
REMARK    5  A    between atoms: C8_11  and  N2_12 
REMARK    6  A    between atoms: N2_12  and  C9_13 
ROOT
HETATM    1  C9  UNL     1      25.727   1.586  53.055  1.00  0.00     0.067 A 
HETATM    2  C10 UNL     1      26.781   1.186  53.886  1.00  0.00     0.089 A 
HETATM    3  C11 UNL     1      28.021   1.931  53.976  1.00  0.00     0.103 C 
HETATM    4  N3  UNL     1      29.006   2.529  54.031  1.00  0.00    -0.191 NA
HETATM    5  C12 UNL     1      26.552   0.030  54.620  1.00  0.00     0.142 A 
HETATM    6  N4  UNL     1      25.385  -0.656  54.531  1.00  0.00    -0.259 NA
HETATM    7  C13 UNL     1      24.402  -0.225  53.714  1.00  0.00     0.069 A 
HETATM    8  C14 UNL     1      23.216  -0.942  53.648  1.00  0.00     0.032 A 
HETATM    9  C15 UNL     1      22.206  -0.501  52.821  1.00  0.00     0.002 A 
HETATM   10  C16 UNL     1      22.375   0.641  52.067  1.00  0.00     0.001 A 
HETATM   11  C17 UNL     1      23.538   1.392  52.094  1.00  0.00     0.016 A 
HETATM   12  C18 UNL     1      24.534   0.912  52.944  1.00  0.00     0.021 A 
ENDROOT
BRANCH   1  13
HETATM   13  N2  UNL     1      26.004   2.792  52.328  1.00  0.00    -0.364 N 
HETATM   14  H10 UNL     1      25.878   3.688  52.882  1.00  0.00     0.165 HD
BRANCH  13  15
HETATM   15  C8  UNL     1      26.420   2.893  50.989  1.00  0.00     0.090 C 
BRANCH  15  16
HETATM   16  C7  UNL     1      26.478   3.177  49.717  1.00  0.00     0.037 C 
BRANCH  16  17
HETATM   17  C6  UNL     1      25.979   4.485  49.244  1.00  0.00     0.027 C 
HETATM   18  C5  UNL     1      26.772   5.456  48.875  1.00  0.00     0.110 C 
HETATM   19 BR1  UNL     1      24.089   4.738  49.166  1.00  0.00    -0.050 Br
BRANCH  18  20
HETATM   20  N1  UNL     1      28.207   5.316  48.916  1.00  0.00    -0.332 N 
HETATM   21  C4  UNL     1      29.106   6.089  48.136  1.00  0.00     0.244 C 
HETATM   22  O1  UNL     1      28.456   6.892  47.421  1.00  0.00    -0.268 OA
HETATM   23  H6  UNL     1      28.588   4.580  49.579  1.00  0.00     0.168 HD
BRANCH  21  24
HETATM   24  C3  UNL     1      30.550   5.931  48.202  1.00  0.00     0.070 C 
HETATM   25  C2  UNL     1      31.343   6.854  48.698  1.00  0.00    -0.026 C 
HETATM   26  C1  UNL     1      31.156   8.198  49.290  1.00  0.00     0.036 C 
ENDBRANCH  21  24
ENDBRANCH  18  20
ENDBRANCH  16  17
ENDBRANCH  15  16
ENDBRANCH  13  15
ENDBRANCH   1  13
TORSDOF 6
ENDMDL
MODEL 3
REMARK VINA RESULT:      -8.0      2.801      5.333
REMARK  6 active torsions:
REMARK  status: ('A' for Active; 'I' for Inactive)
REMARK    1  A    between atoms: C3_3  and  C4_4 
REMARK       I    between atoms: C4_4  and  N1_6 
REMARK    2  A    between atoms: N1_6  and  C5_7 
REMARK    3  A    between atoms: C6_8  and  C7_10 
REMARK    4  A    between atoms: C7_10  and  C8_11 
REMARK    5  A    between atoms: C8_11  and  N2_12 
REMARK    6  A    between atoms: N2_12  and  C9_13 
ROOT
HETATM    1  C9  UNL     1      25.744   1.593  53.101  1.00  0.00     0.067 A 
HETATM    2  C10 UNL     1      26.799   1.162  53.914  1.00  0.00     0.089 A 
HETATM    3  C11 UNL     1      28.041   1.901  54.026  1.00  0.00     0.103 C 
HETATM    4  N3  UNL     1      29.028   2.495  54.099  1.00  0.00    -0.191 NA
HETATM    5  C12 UNL     1      26.570  -0.018  54.608  1.00  0.00     0.142 A 
HETATM    6  N4  UNL     1      25.402  -0.698  54.499  1.00  0.00    -0.259 NA
HETATM    7  C13 UNL     1      24.417  -0.237  53.700  1.00  0.00     0.069 A 
HETATM    8  C14 UNL     1      23.230  -0.948  53.613  1.00  0.00     0.032 A 
HETATM    9  C15 UNL     1      22.218  -0.478  52.805  1.00  0.00     0.002 A 
HETATM   10  C16 UNL     1      22.388   0.690  52.090  1.00  0.00     0.001 A 
HETATM   11  C17 UNL     1      23.552   1.437  52.140  1.00  0.00     0.016 A 
HETATM   12  C18 UNL     1      24.549   0.926  52.970  1.00  0.00     0.021 A 
ENDROOT
BRANCH   1  13
HETATM   13  N2  UNL     1      26.022   2.823  52.415  1.00  0.00    -0.364 N 
HETATM   14  H10 UNL     1      25.919   3.698  53.005  1.00  0.00     0.165 HD
BRANCH  13  15
HETATM   15  C8  UNL     1      26.412   2.971  51.072  1.00  0.00     0.090 C 
BRANCH  15  16
HETATM   16  C7  UNL     1      26.400   3.161  49.782  1.00  0.00     0.037 C 
BRANCH  16  17
HETATM   17  C6  UNL     1      26.388   4.541  49.253  1.00  0.00     0.027 C 
HETATM   18  C5  UNL     1      25.326   5.302  49.280  1.00  0.00     0.110 C 
HETATM   19 BR1  UNL     1      28.010   5.223  48.515  1.00  0.00    -0.050 Br
BRANCH  18  20
HETATM   20  N1  UNL     1      24.075   4.835  49.826  1.00  0.00    -0.332 N 
HETATM   21  C4  UNL     1      23.471   5.359  50.998  1.00  0.00     0.244 C 
HETATM   22  O1  UNL     1      24.193   6.275  51.468  1.00  0.00    -0.268 OA
HETATM   23  H6  UNL     1      23.599   4.046  49.299  1.00  0.00     0.168 HD
BRANCH  21  24
HETATM   24  C3  UNL     1      22.205   4.873  51.523  1.00  0.00     0.070 C 
HETATM   25  C2  UNL     1      21.046   5.187  50.988  1.00  0.00    -0.026 C 
HETATM   26  C1  UNL     1      20.604   6.013  49.843  1.00  0.00     0.036 C 
ENDBRANCH  21  24
ENDBRANCH  18  20
ENDBRANCH  16  17
ENDBRANCH  15  16
ENDBRANCH  13  15
ENDBRANCH   1  13
TORSDOF 6
ENDMDL
MODEL 4
REMARK VINA RESULT:      -8.0      2.854      5.367
REMARK  6 active torsions:
REMARK  status: ('A' for Active; 'I' for Inactive)
REMARK    1  A    between atoms: C3_3  and  C4_4 
REMARK       I    between atoms: C4_4  and  N1_6 
REMARK    2  A    between atoms: N1_6  and  C5_7 
REMARK    3  A    between atoms: C6_8  and  C7_10 
REMARK    4  A    between atoms: C7_10  and  C8_11 
REMARK    5  A    between atoms: C8_11  and  N2_12 
REMARK    6  A    between atoms: N2_12  and  C9_13 
ROOT
HETATM    1  C9  UNL     1      25.768   1.622  52.955  1.00  0.00     0.067 A 
HETATM    2  C10 UNL     1      26.912   1.233  53.663  1.00  0.00     0.089 A 
HETATM    3  C11 UNL     1      28.153   1.981  53.601  1.00  0.00     0.103 C 
HETATM    4  N3  UNL     1      29.136   2.581  53.534  1.00  0.00    -0.191 NA
HETATM    5  C12 UNL     1      26.772   0.086  54.431  1.00  0.00     0.142 A 
HETATM    6  N4  UNL     1      25.605  -0.603  54.486  1.00  0.00    -0.259 NA
HETATM    7  C13 UNL     1      24.533  -0.183  53.783  1.00  0.00     0.069 A 
HETATM    8  C14 UNL     1      23.350  -0.902  53.862  1.00  0.00     0.032 A 
HETATM    9  C15 UNL     1      22.250  -0.472  53.153  1.00  0.00     0.002 A 
HETATM   10  C16 UNL     1      22.327   0.662  52.372  1.00  0.00     0.001 A 
HETATM   11  C17 UNL     1      23.483   1.414  52.255  1.00  0.00     0.016 A 
HETATM   12  C18 UNL     1      24.572   0.946  52.990  1.00  0.00     0.021 A 
ENDROOT
BRANCH   1  13
HETATM   13  N2  UNL     1      25.957   2.820  52.187  1.00  0.00    -0.364 N 
HETATM   14  H10 UNL     1      25.802   3.723  52.721  1.00  0.00     0.165 HD
BRANCH  13  15
HETATM   15  C8  UNL     1      26.322   2.905  50.832  1.00  0.00     0.090 C 
BRANCH  15  16
HETATM   16  C7  UNL     1      26.373   3.233  49.571  1.00  0.00     0.037 C 
BRANCH  16  17
HETATM   17  C6  UNL     1      26.246   4.654  49.185  1.00  0.00     0.027 C 
HETATM   18  C5  UNL     1      25.132   5.325  49.308  1.00  0.00     0.110 C 
HETATM   19 BR1  UNL     1      27.794   5.527  48.493  1.00  0.00    -0.050 Br
BRANCH  18  20
HETATM   20  N1  UNL     1      23.932   4.711  49.825  1.00  0.00    -0.332 N 
HETATM   21  C4  UNL     1      22.796   4.396  49.036  1.00  0.00     0.244 C 
HETATM   22  O1  UNL     1      23.005   4.734  47.844  1.00  0.00    -0.268 OA
HETATM   23  H6  UNL     1      23.926   4.495  50.863  1.00  0.00     0.168 HD
BRANCH  21  24
HETATM   24  C3  UNL     1      21.601   3.771  49.582  1.00  0.00     0.070 C 
HETATM   25  C2  UNL     1      21.262   2.530  49.313  1.00  0.00    -0.026 C 
HETATM   26  C1  UNL     1      21.831   1.436  48.495  1.00  0.00     0.036 C 
ENDBRANCH  21  24
ENDBRANCH  18  20
ENDBRANCH  16  17
ENDBRANCH  15  16
ENDBRANCH  13  15
ENDBRANCH   1  13
TORSDOF 6
ENDMDL
MODEL 5
REMARK VINA RESULT:      -7.8      3.027      4.945
REMARK  6 active torsions:
REMARK  status: ('A' for Active; 'I' for Inactive)
REMARK    1  A    between atoms: C3_3  and  C4_4 
REMARK       I    between atoms: C4_4  and  N1_6 
REMARK    2  A    between atoms: N1_6  and  C5_7 
REMARK    3  A    between atoms: C6_8  and  C7_10 
REMARK    4  A    between atoms: C7_10  and  C8_11 
REMARK    5  A    between atoms: C8_11  and  N2_12 
REMARK    6  A    between atoms: N2_12  and  C9_13 
ROOT
HETATM    1  C9  UNL     1      24.692   0.870  53.002  1.00  0.00     0.067 A 
HETATM    2  C10 UNL     1      26.017   0.779  53.446  1.00  0.00     0.089 A 
HETATM    3  C11 UNL     1      27.082   1.577  52.873  1.00  0.00     0.103 C 
HETATM    4  N3  UNL     1      27.922   2.212  52.401  1.00  0.00    -0.191 NA
HETATM    5  C12 UNL     1      26.236  -0.124  54.478  1.00  0.00     0.142 A 
HETATM    6  N4  UNL     1      25.230  -0.862  55.011  1.00  0.00    -0.259 NA
HETATM    7  C13 UNL     1      23.971  -0.734  54.543  1.00  0.00     0.069 A 
HETATM    8  C14 UNL     1      22.959  -1.495  55.111  1.00  0.00     0.032 A 
HETATM    9  C15 UNL     1      21.670  -1.362  54.643  1.00  0.00     0.002 A 
HETATM   10  C16 UNL     1      21.391  -0.481  53.620  1.00  0.00     0.001 A 
HETATM   11  C17 UNL     1      22.362   0.301  53.018  1.00  0.00     0.016 A 
HETATM   12  C18 UNL     1      23.652   0.136  53.521  1.00  0.00     0.021 A 
ENDROOT
BRANCH   1  13
HETATM   13  N2  UNL     1      24.513   1.825  51.946  1.00  0.00    -0.364 N 
HETATM   14  H10 UNL     1      24.713   1.459  50.972  1.00  0.00     0.165 HD
BRANCH  13  15
HETATM   15  C8  UNL     1      24.103   3.164  52.080  1.00  0.00     0.090 C 
BRANCH  15  16
HETATM   16  C7  UNL     1      23.413   4.238  52.349  1.00  0.00     0.037 C 
BRANCH  16  17
HETATM   17  C6  UNL     1      22.215   4.551  51.543  1.00  0.00     0.027 C 
HETATM   18  C5  UNL     1      22.235   5.383  50.536  1.00  0.00     0.110 C 
HETATM   19 BR1  UNL     1      20.582   3.678  52.005  1.00  0.00    -0.050 Br
BRANCH  18  20
HETATM   20  N1  UNL     1      23.443   6.069  50.147  1.00  0.00    -0.332 N 
HETATM   21  C4  UNL     1      24.264   5.682  49.057  1.00  0.00     0.244 C 
HETATM   22  O1  UNL     1      23.774   4.664  48.504  1.00  0.00    -0.268 OA
HETATM   23  H6  UNL     1      23.712   6.913  50.731  1.00  0.00     0.168 HD
BRANCH  21  24
HETATM   24  C3  UNL     1      25.474   6.396  48.683  1.00  0.00     0.070 C 
HETATM   25  C2  UNL     1      26.661   5.830  48.676  1.00  0.00    -0.026 C 
HETATM   26  C1  UNL     1      27.187   4.483  48.988  1.00  0.00     0.036 C 
ENDBRANCH  21  24
ENDBRANCH  18  20
ENDBRANCH  16  17
ENDBRANCH  15  16
ENDBRANCH  13  15
ENDBRANCH   1  13
TORSDOF 6
ENDMDL
MODEL 6
REMARK VINA RESULT:      -7.8      3.370      6.739
REMARK  6 active torsions:
REMARK  status: ('A' for Active; 'I' for Inactive)
REMARK    1  A    between atoms: C3_3  and  C4_4 
REMARK       I    between atoms: C4_4  and  N1_6 
REMARK    2  A    between atoms: N1_6  and  C5_7 
REMARK    3  A    between atoms: C6_8  and  C7_10 
REMARK    4  A    between atoms: C7_10  and  C8_11 
REMARK    5  A    between atoms: C8_11  and  N2_12 
REMARK    6  A    between atoms: N2_12  and  C9_13 
ROOT
HETATM    1  C9  UNL     1      24.360   4.581  50.290  1.00  0.00     0.067 A 
HETATM    2  C10 UNL     1      23.360   5.388  50.847  1.00  0.00     0.089 A 
HETATM    3  C11 UNL     1      22.168   4.834  51.457  1.00  0.00     0.103 C 
HETATM    4  N3  UNL     1      21.220   4.378  51.932  1.00  0.00    -0.191 NA
HETATM    5  C12 UNL     1      23.594   6.755  50.778  1.00  0.00     0.142 A 
HETATM    6  N4  UNL     1      24.716   7.262  50.209  1.00  0.00    -0.259 NA
HETATM    7  C13 UNL     1      25.647   6.437  49.687  1.00  0.00     0.069 A 
HETATM    8  C14 UNL     1      26.789   6.982  49.117  1.00  0.00     0.032 A 
HETATM    9  C15 UNL     1      27.747   6.145  48.590  1.00  0.00     0.002 A 
HETATM   10  C16 UNL     1      27.570   4.777  48.630  1.00  0.00     0.001 A 
HETATM   11  C17 UNL     1      26.451   4.182  49.185  1.00  0.00     0.016 A 
HETATM   12  C18 UNL     1      25.507   5.065  49.707  1.00  0.00     0.021 A 
ENDROOT
BRANCH   1  13
HETATM   13  N2  UNL     1      24.081   3.177  50.398  1.00  0.00    -0.364 N 
HETATM   14  H10 UNL     1      23.732   2.720  49.507  1.00  0.00     0.165 HD
BRANCH  13  15
HETATM   15  C8  UNL     1      24.228   2.373  51.542  1.00  0.00     0.090 C 
BRANCH  15  16
HETATM   16  C7  UNL     1      24.510   1.949  52.743  1.00  0.00     0.037 C 
BRANCH  16  17
HETATM   17  C6  UNL     1      24.050   0.609  53.165  1.00  0.00     0.027 C 
HETATM   18  C5  UNL     1      24.871  -0.377  53.410  1.00  0.00     0.110 C 
HETATM   19 BR1  UNL     1      22.172   0.338  53.365  1.00  0.00    -0.050 Br
BRANCH  18  20
HETATM   20  N1  UNL     1      26.299  -0.225  53.273  1.00  0.00    -0.332 N 
HETATM   21  C4  UNL     1      27.206  -0.194  54.364  1.00  0.00     0.244 C 
HETATM   22  O1  UNL     1      26.569  -0.317  55.441  1.00  0.00    -0.268 OA
HETATM   23  H6  UNL     1      26.668  -0.130  52.283  1.00  0.00     0.168 HD
BRANCH  21  24
HETATM   24  C3  UNL     1      28.642  -0.045  54.197  1.00  0.00     0.070 C 
HETATM   25  C2  UNL     1      29.208   1.103  53.895  1.00  0.00    -0.026 C 
HETATM   26  C1  UNL     1      28.728   2.479  53.641  1.00  0.00     0.036 C 
ENDBRANCH  21  24
ENDBRANCH  18  20
ENDBRANCH  16  17
ENDBRANCH  15  16
ENDBRANCH  13  15
ENDBRANCH   1  13
TORSDOF 6
ENDMDL
MODEL 7
REMARK VINA RESULT:      -7.8      2.950      6.158
REMARK  6 active torsions:
REMARK  status: ('A' for Active; 'I' for Inactive)
REMARK    1  A    between atoms: C3_3  and  C4_4 
REMARK       I    between atoms: C4_4  and  N1_6 
REMARK    2  A    between atoms: N1_6  and  C5_7 
REMARK    3  A    between atoms: C6_8  and  C7_10 
REMARK    4  A    between atoms: C7_10  and  C8_11 
REMARK    5  A    between atoms: C8_11  and  N2_12 
REMARK    6  A    between atoms: N2_12  and  C9_13 
ROOT
HETATM    1  C9  UNL     1      25.185   1.047  53.082  1.00  0.00     0.067 A 
HETATM    2  C10 UNL     1      24.299   0.081  53.572  1.00  0.00     0.089 A 
HETATM    3  C11 UNL     1      22.923  -0.007  53.124  1.00  0.00     0.103 C 
HETATM    4  N3  UNL     1      21.828  -0.059  52.765  1.00  0.00    -0.191 NA
HETATM    5  C12 UNL     1      24.832  -0.790  54.513  1.00  0.00     0.142 A 
HETATM    6  N4  UNL     1      26.122  -0.703  54.921  1.00  0.00    -0.259 NA
HETATM    7  C13 UNL     1      26.933   0.249  54.414  1.00  0.00     0.069 A 
HETATM    8  C14 UNL     1      28.251   0.312  54.844  1.00  0.00     0.032 A 
HETATM    9  C15 UNL     1      29.085   1.277  54.324  1.00  0.00     0.002 A 
HETATM   10  C16 UNL     1      28.613   2.170  53.386  1.00  0.00     0.001 A 
HETATM   11  C17 UNL     1      27.308   2.153  52.924  1.00  0.00     0.016 A 
HETATM   12  C18 UNL     1      26.497   1.161  53.475  1.00  0.00     0.021 A 
ENDROOT
BRANCH   1  13
HETATM   13  N2  UNL     1      24.594   1.914  52.103  1.00  0.00    -0.364 N 
HETATM   14  H10 UNL     1      24.549   1.516  51.120  1.00  0.00     0.165 HD
BRANCH  13  15
HETATM   15  C8  UNL     1      24.078   3.204  52.320  1.00  0.00     0.090 C 
BRANCH  15  16
HETATM   16  C7  UNL     1      23.271   4.207  52.530  1.00  0.00     0.037 C 
BRANCH  16  17
HETATM   17  C6  UNL     1      22.085   4.377  51.665  1.00  0.00     0.027 C 
HETATM   18  C5  UNL     1      22.088   5.131  50.598  1.00  0.00     0.110 C 
HETATM   19 BR1  UNL     1      20.497   3.434  52.142  1.00  0.00    -0.050 Br
BRANCH  18  20
HETATM   20  N1  UNL     1      23.262   5.866  50.195  1.00  0.00    -0.332 N 
HETATM   21  C4  UNL     1      24.177   5.425  49.204  1.00  0.00     0.244 C 
HETATM   22  O1  UNL     1      23.801   4.314  48.751  1.00  0.00    -0.268 OA
HETATM   23  H6  UNL     1      23.429   6.791  50.688  1.00  0.00     0.168 HD
BRANCH  21  24
HETATM   24  C3  UNL     1      25.350   6.189  48.812  1.00  0.00     0.070 C 
HETATM   25  C2  UNL     1      26.558   5.671  48.779  1.00  0.00    -0.026 C 
HETATM   26  C1  UNL     1      27.143   4.344  49.072  1.00  0.00     0.036 C 
ENDBRANCH  21  24
ENDBRANCH  18  20
ENDBRANCH  16  17
ENDBRANCH  15  16
ENDBRANCH  13  15
ENDBRANCH   1  13
TORSDOF 6
ENDMDL
MODEL 8
REMARK VINA RESULT:      -7.8      2.708      3.864
REMARK  6 active torsions:
REMARK  status: ('A' for Active; 'I' for Inactive)
REMARK    1  A    between atoms: C3_3  and  C4_4 
REMARK       I    between atoms: C4_4  and  N1_6 
REMARK    2  A    between atoms: N1_6  and  C5_7 
REMARK    3  A    between atoms: C6_8  and  C7_10 
REMARK    4  A    between atoms: C7_10  and  C8_11 
REMARK    5  A    between atoms: C8_11  and  N2_12 
REMARK    6  A    between atoms: N2_12  and  C9_13 
ROOT
HETATM    1  C9  UNL     1      23.163  -0.155  53.152  1.00  0.00     0.067 A 
HETATM    2  C10 UNL     1      23.772  -0.724  54.277  1.00  0.00     0.089 A 
HETATM    3  C11 UNL     1      25.201  -0.649  54.505  1.00  0.00     0.103 C 
HETATM    4  N3  UNL     1      26.342  -0.588  54.669  1.00  0.00    -0.191 NA
HETATM    5  C12 UNL     1      22.910  -1.361  55.160  1.00  0.00     0.142 A 
HETATM    6  N4  UNL     1      21.573  -1.421  54.939  1.00  0.00    -0.259 NA
HETATM    7  C13 UNL     1      21.039  -0.855  53.837  1.00  0.00     0.069 A 
HETATM    8  C14 UNL     1      19.668  -0.924  53.639  1.00  0.00     0.032 A 
HETATM    9  C15 UNL     1      19.116  -0.340  52.520  1.00  0.00     0.002 A 
HETATM   10  C16 UNL     1      19.922   0.307  51.607  1.00  0.00     0.001 A 
HETATM   11  C17 UNL     1      21.295   0.404  51.755  1.00  0.00     0.016 A 
HETATM   12  C18 UNL     1      21.812  -0.199  52.900  1.00  0.00     0.021 A 
ENDROOT
BRANCH   1  13
HETATM   13  N2  UNL     1      24.091   0.504  52.277  1.00  0.00    -0.364 N 
HETATM   14  H10 UNL     1      25.031   0.024  52.179  1.00  0.00     0.165 HD
BRANCH  13  15
HETATM   15  C8  UNL     1      23.873   1.690  51.555  1.00  0.00     0.090 C 
BRANCH  15  16
HETATM   16  C7  UNL     1      23.911   2.622  50.643  1.00  0.00     0.037 C 
BRANCH  16  17
HETATM   17  C6  UNL     1      23.680   4.028  51.034  1.00  0.00     0.027 C 
HETATM   18  C5  UNL     1      24.588   4.958  50.904  1.00  0.00     0.110 C 
HETATM   19 BR1  UNL     1      21.969   4.482  51.746  1.00  0.00    -0.050 Br
BRANCH  18  20
HETATM   20  N1  UNL     1      25.898   4.668  50.373  1.00  0.00    -0.332 N 
HETATM   21  C4  UNL     1      26.391   5.179  49.145  1.00  0.00     0.244 C 
HETATM   22  O1  UNL     1      25.516   5.908  48.613  1.00  0.00    -0.268 OA
HETATM   23  H6  UNL     1      26.509   4.026  50.957  1.00  0.00     0.168 HD
BRANCH  21  24
HETATM   24  C3  UNL     1      27.719   4.875  48.636  1.00  0.00     0.070 C 
HETATM   25  C2  UNL     1      28.532   5.798  48.174  1.00  0.00    -0.026 C 
HETATM   26  C1  UNL     1      28.468   7.267  47.999  1.00  0.00     0.036 C 
ENDBRANCH  21  24
ENDBRANCH  18  20
ENDBRANCH  16  17
ENDBRANCH  15  16
ENDBRANCH  13  15
ENDBRANCH   1  13
TORSDOF 6
ENDMDL
MODEL 9
REMARK VINA RESULT:      -7.7      1.943      3.508
REMARK  6 active torsions:
REMARK  status: ('A' for Active; 'I' for Inactive)
REMARK    1  A    between atoms: C3_3  and  C4_4 
REMARK       I    between atoms: C4_4  and  N1_6 
REMARK    2  A    between atoms: N1_6  and  C5_7 
REMARK    3  A    between atoms: C6_8  and  C7_10 
REMARK    4  A    between atoms: C7_10  and  C8_11 
REMARK    5  A    between atoms: C8_11  and  N2_12 
REMARK    6  A    between atoms: N2_12  and  C9_13 
ROOT
HETATM    1  C9  UNL     1      21.630   0.999  51.038  1.00  0.00     0.067 A 
HETATM    2  C10 UNL     1      20.361   1.210  50.487  1.00  0.00     0.089 A 
HETATM    3  C11 UNL     1      20.169   1.898  49.225  1.00  0.00     0.103 C 
HETATM    4  N3  UNL     1      20.031   2.454  48.224  1.00  0.00    -0.191 NA
HETATM    5  C12 UNL     1      19.300   0.711  51.230  1.00  0.00     0.142 A 
HETATM    6  N4  UNL     1      19.492   0.065  52.408  1.00  0.00    -0.259 NA
HETATM    7  C13 UNL     1      20.738  -0.111  52.893  1.00  0.00     0.069 A 
HETATM    8  C14 UNL     1      20.906  -0.782  54.095  1.00  0.00     0.032 A 
HETATM    9  C15 UNL     1      22.177  -0.971  54.591  1.00  0.00     0.002 A 
HETATM   10  C16 UNL     1      23.271  -0.497  53.897  1.00  0.00     0.001 A 
HETATM   11  C17 UNL     1      23.159   0.180  52.695  1.00  0.00     0.016 A 
HETATM   12  C18 UNL     1      21.856   0.349  52.228  1.00  0.00     0.021 A 
ENDROOT
BRANCH   1  13
HETATM   13  N2  UNL     1      22.694   1.520  50.228  1.00  0.00    -0.364 N 
HETATM   14  H10 UNL     1      22.919   0.949  49.363  1.00  0.00     0.165 HD
BRANCH  13  15
HETATM   15  C8  UNL     1      23.442   2.687  50.465  1.00  0.00     0.090 C 
BRANCH  15  16
HETATM   16  C7  UNL     1      24.211   3.589  51.010  1.00  0.00     0.037 C 
BRANCH  16  17
HETATM   17  C6  UNL     1      25.593   3.758  50.513  1.00  0.00     0.027 C 
HETATM   18  C5  UNL     1      26.598   3.055  50.961  1.00  0.00     0.110 C 
HETATM   19 BR1  UNL     1      25.892   5.058  49.149  1.00  0.00    -0.050 Br
BRANCH  18  20
HETATM   20  N1  UNL     1      26.425   2.060  51.992  1.00  0.00    -0.332 N 
HETATM   21  C4  UNL     1      27.413   1.733  52.957  1.00  0.00     0.244 C 
HETATM   22  O1  UNL     1      28.436   2.436  52.764  1.00  0.00    -0.268 OA
HETATM   23  H6  UNL     1      25.492   1.555  52.006  1.00  0.00     0.168 HD
BRANCH  21  24
HETATM   24  C3  UNL     1      27.209   0.730  53.990  1.00  0.00     0.070 C 
HETATM   25  C2  UNL     1      26.959  -0.532  53.716  1.00  0.00    -0.026 C 
HETATM   26  C1  UNL     1      26.801  -1.331  52.481  1.00  0.00     0.036 C 
ENDBRANCH  21  24
ENDBRANCH  18  20
ENDBRANCH  16  17
ENDBRANCH  15  16
ENDBRANCH  13  15
ENDBRANCH   1  13
TORSDOF 6
ENDMDL
