MODEL 1
REMARK VINA RESULT:      -7.8      0.000      0.000
REMARK  6 active torsions:
REMARK  status: ('A' for Active; 'I' for Inactive)
REMARK    1  A    between atoms: C2_2  and  N1_3 
REMARK    2  A    between atoms: C5_6  and  N2_7 
REMARK    3  A    between atoms: C7_9  and  C8_10 
REMARK    4  A    between atoms: C10_13  and  N4_14 
REMARK    5  A    between atoms: C11_15  and  C12_16 
REMARK    6  A    between atoms: C13_17  and  N5_18 
ROOT
HETATM    1  C8  UNL     1      22.322  -0.442  53.641  1.00  0.00     0.088 A 
HETATM    2  C9  UNL     1      22.015  -1.289  54.689  1.00  0.00     0.151 A 
HETATM    3  N3  UNL     1      23.000  -1.584  55.555  1.00  0.00    -0.245 NA
HETATM    4  C10 UNL     1      24.221  -1.054  55.369  1.00  0.00     0.128 A 
HETATM    5  C11 UNL     1      24.548  -0.208  54.332  1.00  0.00     0.114 A 
HETATM    6  N7  UNL     1      23.546   0.078  53.472  1.00  0.00    -0.245 NA
ENDROOT
BRANCH   1   7
HETATM    7  C7  UNL     1      21.226  -0.137  52.710  1.00  0.00     0.030 A 
HETATM    8  C6  UNL     1      19.864  -0.232  52.905  1.00  0.00     0.128 A 
HETATM    9  N2  UNL     1      19.183   0.138  51.816  1.00  0.00    -0.275 N 
HETATM   10  N8  UNL     1      20.063   0.479  50.897  1.00  0.00    -0.184 NA
HETATM   11  C17 UNL     1      21.323   0.327  51.398  1.00  0.00     0.154 A 
BRANCH   9  12
HETATM   12  C5  UNL     1      17.727   0.163  51.664  1.00  0.00     0.112 C 
HETATM   13  C4  UNL     1      17.110  -0.969  52.455  1.00  0.00     0.047 C 
HETATM   14  C3  UNL     1      15.634  -0.893  52.338  1.00  0.00     0.119 C 
HETATM   15  N1  UNL     1      15.073  -0.526  51.103  1.00  0.00    -0.413 N 
HETATM   16  C19 UNL     1      15.875   0.032  50.094  1.00  0.00     0.119 C 
HETATM   17  C18 UNL     1      17.358  -0.120  50.222  1.00  0.00     0.047 C 
BRANCH  15  18
HETATM   18  C2  UNL     1      13.876  -1.188  50.725  1.00  0.00     0.112 C 
HETATM   19  C1  UNL     1      14.157  -2.658  50.516  1.00  0.00     0.026 C 
ENDBRANCH  15  18
ENDBRANCH   9  12
ENDBRANCH   1   7
BRANCH   5  20
HETATM   20  C12 UNL     1      25.899   0.375  54.132  1.00  0.00     0.326 C 
HETATM   21  C13 UNL     1      25.964   1.358  53.043  1.00  0.00     0.040 C 
HETATM   22  C14 UNL     1      26.374   0.668  51.968  1.00  0.00     0.030 C 
HETATM   23  C15 UNL     1      26.581  -0.759  52.330  1.00  0.00     0.302 C 
HETATM   24  N6  UNL     1      26.794  -0.693  53.755  1.00  0.00     0.104 N 
HETATM   25  C16 UNL     1      28.136  -0.308  54.113  1.00  0.00     0.311 C 
BRANCH  21  26
HETATM   26  N5  UNL     1      25.722   2.747  52.857  1.00  0.00    -0.400 N 
HETATM   27  H16 UNL     1      24.989   3.153  52.251  1.00  0.00     0.156 HD
HETATM   28  H17 UNL     1      26.271   3.526  53.324  1.00  0.00     0.156 HD
ENDBRANCH  21  26
ENDBRANCH   5  20
BRANCH   4  29
HETATM   29  N4  UNL     1      25.236  -1.389  56.305  1.00  0.00    -0.285 NA
HETATM   30  H13 UNL     1      26.099  -1.976  56.291  1.00  0.00     0.125 HD
HETATM   31  H14 UNL     1      26.113  -1.947  56.393  1.00  0.00     0.125 HD
ENDBRANCH   4  29
TORSDOF 6
ENDMDL
MODEL 2
REMARK VINA RESULT:      -7.8      2.723      4.248
REMARK  6 active torsions:
REMARK  status: ('A' for Active; 'I' for Inactive)
REMARK    1  A    between atoms: C2_2  and  N1_3 
REMARK    2  A    between atoms: C5_6  and  N2_7 
REMARK    3  A    between atoms: C7_9  and  C8_10 
REMARK    4  A    between atoms: C10_13  and  N4_14 
REMARK    5  A    between atoms: C11_15  and  C12_16 
REMARK    6  A    between atoms: C13_17  and  N5_18 
ROOT
HETATM    1  C8  UNL     1      22.670  -0.373  53.532  1.00  0.00     0.088 A 
HETATM    2  C9  UNL     1      22.165  -1.066  54.616  1.00  0.00     0.151 A 
HETATM    3  N3  UNL     1      23.033  -1.420  55.581  1.00  0.00    -0.245 NA
HETATM    4  C10 UNL     1      24.329  -1.092  55.455  1.00  0.00     0.128 A 
HETATM    5  C11 UNL     1      24.852  -0.402  54.384  1.00  0.00     0.114 A 
HETATM    6  N7  UNL     1      23.967  -0.053  53.423  1.00  0.00    -0.245 NA
ENDROOT
BRANCH   1   7
HETATM    7  C7  UNL     1      21.701   0.002  52.493  1.00  0.00     0.030 A 
HETATM    8  C6  UNL     1      21.923   0.586  51.263  1.00  0.00     0.128 A 
HETATM    9  N2  UNL     1      20.782   0.774  50.594  1.00  0.00    -0.275 N 
HETATM   10  N8  UNL     1      19.801   0.328  51.351  1.00  0.00    -0.184 NA
HETATM   11  C17 UNL     1      20.315  -0.153  52.520  1.00  0.00     0.154 A 
BRANCH   9  12
HETATM   12  C5  UNL     1      20.638   1.367  49.262  1.00  0.00     0.112 C 
HETATM   13  C4  UNL     1      21.959   1.955  48.818  1.00  0.00     0.047 C 
HETATM   14  C3  UNL     1      21.811   2.497  47.446  1.00  0.00     0.119 C 
HETATM   15  N1  UNL     1      20.614   3.148  47.104  1.00  0.00    -0.413 N 
HETATM   16  C19 UNL     1      19.482   3.040  47.929  1.00  0.00     0.119 C 
HETATM   17  C18 UNL     1      19.687   2.544  49.325  1.00  0.00     0.047 C 
BRANCH  15  18
HETATM   18  C2  UNL     1      20.726   4.280  46.256  1.00  0.00     0.112 C 
HETATM   19  C1  UNL     1      21.904   5.122  46.690  1.00  0.00     0.026 C 
ENDBRANCH  15  18
ENDBRANCH   9  12
ENDBRANCH   1   7
BRANCH   5  20
HETATM   20  C12 UNL     1      26.287  -0.042  54.249  1.00  0.00     0.326 C 
HETATM   21  C13 UNL     1      26.513   1.272  53.633  1.00  0.00     0.040 C 
HETATM   22  C14 UNL     1      26.708   1.022  52.330  1.00  0.00     0.030 C 
HETATM   23  C15 UNL     1      26.616  -0.440  52.074  1.00  0.00     0.302 C 
HETATM   24  N6  UNL     1      26.907  -1.004  53.369  1.00  0.00     0.104 N 
HETATM   25  C16 UNL     1      28.316  -1.048  53.667  1.00  0.00     0.311 C 
BRANCH  21  26
HETATM   26  N5  UNL     1      26.572   2.633  54.039  1.00  0.00    -0.400 N 
HETATM   27  H16 UNL     1      25.977   3.396  53.673  1.00  0.00     0.156 HD
HETATM   28  H17 UNL     1      27.238   3.020  54.769  1.00  0.00     0.156 HD
ENDBRANCH  21  26
ENDBRANCH   5  20
BRANCH   4  29
HETATM   29  N4  UNL     1      25.214  -1.484  56.495  1.00  0.00    -0.285 NA
HETATM   30  H13 UNL     1      25.874  -2.276  56.654  1.00  0.00     0.125 HD
HETATM   31  H14 UNL     1      25.896  -2.231  56.748  1.00  0.00     0.125 HD
ENDBRANCH   4  29
TORSDOF 6
ENDMDL
MODEL 3
REMARK VINA RESULT:      -7.8      4.051      8.253
REMARK  6 active torsions:
REMARK  status: ('A' for Active; 'I' for Inactive)
REMARK    1  A    between atoms: C2_2  and  N1_3 
REMARK    2  A    between atoms: C5_6  and  N2_7 
REMARK    3  A    between atoms: C7_9  and  C8_10 
REMARK    4  A    between atoms: C10_13  and  N4_14 
REMARK    5  A    between atoms: C11_15  and  C12_16 
REMARK    6  A    between atoms: C13_17  and  N5_18 
ROOT
HETATM    1  C8  UNL     1      23.079   1.970  52.194  1.00  0.00     0.088 A 
HETATM    2  C9  UNL     1      21.779   1.798  52.630  1.00  0.00     0.151 A 
HETATM    3  N3  UNL     1      21.524   0.732  53.409  1.00  0.00    -0.245 NA
HETATM    4  C10 UNL     1      22.524  -0.106  53.727  1.00  0.00     0.128 A 
HETATM    5  C11 UNL     1      23.826   0.047  53.305  1.00  0.00     0.114 A 
HETATM    6  N7  UNL     1      24.065   1.123  52.522  1.00  0.00    -0.245 NA
ENDROOT
BRANCH   1   7
HETATM    7  C7  UNL     1      23.329   3.142  51.344  1.00  0.00     0.030 A 
HETATM    8  C6  UNL     1      24.496   3.535  50.721  1.00  0.00     0.128 A 
HETATM    9  N2  UNL     1      24.329   4.666  50.029  1.00  0.00    -0.275 N 
HETATM   10  N8  UNL     1      23.074   5.038  50.177  1.00  0.00    -0.184 NA
HETATM   11  C17 UNL     1      22.425   4.138  50.972  1.00  0.00     0.154 A 
BRANCH   9  12
HETATM   12  C5  UNL     1      25.347   5.370  49.247  1.00  0.00     0.112 C 
HETATM   13  C4  UNL     1      26.634   4.574  49.249  1.00  0.00     0.047 C 
HETATM   14  C3  UNL     1      27.634   5.271  48.405  1.00  0.00     0.119 C 
HETATM   15  N1  UNL     1      27.688   6.675  48.441  1.00  0.00    -0.413 N 
HETATM   16  C19 UNL     1      26.647   7.413  49.028  1.00  0.00     0.119 C 
HETATM   17  C18 UNL     1      25.695   6.681  49.920  1.00  0.00     0.047 C 
BRANCH  15  18
HETATM   18  C2  UNL     1      28.977   7.264  48.369  1.00  0.00     0.112 C 
HETATM   19  C1  UNL     1      29.988   6.219  47.955  1.00  0.00     0.026 C 
ENDBRANCH  15  18
ENDBRANCH   9  12
ENDBRANCH   1   7
BRANCH   5  20
HETATM   20  C12 UNL     1      24.928  -0.883  53.658  1.00  0.00     0.326 C 
HETATM   21  C13 UNL     1      25.345  -0.800  55.065  1.00  0.00     0.040 C 
HETATM   22  C14 UNL     1      26.387   0.044  55.075  1.00  0.00     0.030 C 
HETATM   23  C15 UNL     1      26.667   0.522  53.694  1.00  0.00     0.302 C 
HETATM   24  N6  UNL     1      26.088  -0.517  52.880  1.00  0.00     0.104 N 
HETATM   25  C16 UNL     1      26.932  -1.678  52.752  1.00  0.00     0.311 C 
BRANCH  21  26
HETATM   26  N5  UNL     1      24.953  -1.347  56.317  1.00  0.00    -0.400 N 
HETATM   27  H16 UNL     1      25.560  -1.899  56.948  1.00  0.00     0.156 HD
HETATM   28  H17 UNL     1      23.987  -1.249  56.747  1.00  0.00     0.156 HD
ENDBRANCH  21  26
ENDBRANCH   5  20
BRANCH   4  29
HETATM   29  N4  UNL     1      22.215  -1.221  54.553  1.00  0.00    -0.285 NA
HETATM   30  H13 UNL     1      21.345  -1.637  54.948  1.00  0.00     0.125 HD
HETATM   31  H14 UNL     1      21.407  -1.710  54.993  1.00  0.00     0.125 HD
ENDBRANCH   4  29
TORSDOF 6
ENDMDL
MODEL 4
REMARK VINA RESULT:      -7.5      1.893      8.773
REMARK  6 active torsions:
REMARK  status: ('A' for Active; 'I' for Inactive)
REMARK    1  A    between atoms: C2_2  and  N1_3 
REMARK    2  A    between atoms: C5_6  and  N2_7 
REMARK    3  A    between atoms: C7_9  and  C8_10 
REMARK    4  A    between atoms: C10_13  and  N4_14 
REMARK    5  A    between atoms: C11_15  and  C12_16 
REMARK    6  A    between atoms: C13_17  and  N5_18 
ROOT
HETATM    1  C8  UNL     1      20.158  -0.368  52.927  1.00  0.00     0.088 A 
HETATM    2  C9  UNL     1      19.156  -1.096  53.541  1.00  0.00     0.151 A 
HETATM    3  N3  UNL     1      17.918  -1.004  53.023  1.00  0.00    -0.245 NA
HETATM    4  C10 UNL     1      17.709  -0.223  51.950  1.00  0.00     0.128 A 
HETATM    5  C11 UNL     1      18.694   0.510  51.323  1.00  0.00     0.114 A 
HETATM    6  N7  UNL     1      19.931   0.406  51.856  1.00  0.00    -0.245 NA
ENDROOT
BRANCH   1   7
HETATM    7  C7  UNL     1      21.500  -0.488  53.513  1.00  0.00     0.030 A 
HETATM    8  C6  UNL     1      22.689   0.070  53.091  1.00  0.00     0.128 A 
HETATM    9  N2  UNL     1      23.704  -0.271  53.890  1.00  0.00    -0.275 N 
HETATM   10  N8  UNL     1      23.218  -1.045  54.839  1.00  0.00    -0.184 NA
HETATM   11  C17 UNL     1      21.876  -1.205  54.649  1.00  0.00     0.154 A 
BRANCH   9  12
HETATM   12  C5  UNL     1      25.104   0.136  53.746  1.00  0.00     0.112 C 
HETATM   13  C4  UNL     1      25.763  -0.675  52.652  1.00  0.00     0.047 C 
HETATM   14  C3  UNL     1      27.160  -0.209  52.480  1.00  0.00     0.119 C 
HETATM   15  N1  UNL     1      27.899   0.143  53.622  1.00  0.00    -0.413 N 
HETATM   16  C19 UNL     1      27.258   0.329  54.857  1.00  0.00     0.119 C 
HETATM   17  C18 UNL     1      25.870  -0.209  55.006  1.00  0.00     0.047 C 
BRANCH  15  18
HETATM   18  C2  UNL     1      29.275  -0.204  53.620  1.00  0.00     0.112 C 
HETATM   19  C1  UNL     1      29.420  -1.691  53.391  1.00  0.00     0.026 C 
ENDBRANCH  15  18
ENDBRANCH   9  12
ENDBRANCH   1   7
BRANCH   5  20
HETATM   20  C12 UNL     1      18.457   1.372  50.137  1.00  0.00     0.326 C 
HETATM   21  C13 UNL     1      19.688   1.906  49.539  1.00  0.00     0.040 C 
HETATM   22  C14 UNL     1      19.845   3.122  50.082  1.00  0.00     0.030 C 
HETATM   23  C15 UNL     1      18.735   3.401  51.032  1.00  0.00     0.302 C 
HETATM   24  N6  UNL     1      17.694   2.520  50.565  1.00  0.00     0.104 N 
HETATM   25  C16 UNL     1      16.977   3.037  49.427  1.00  0.00     0.311 C 
BRANCH  21  26
HETATM   26  N5  UNL     1      20.674   1.492  48.603  1.00  0.00    -0.400 N 
HETATM   27  H16 UNL     1      21.654   1.248  48.830  1.00  0.00     0.156 HD
HETATM   28  H17 UNL     1      20.514   1.386  47.559  1.00  0.00     0.156 HD
ENDBRANCH  21  26
ENDBRANCH   5  20
BRANCH   4  29
HETATM   29  N4  UNL     1      16.389  -0.151  51.431  1.00  0.00    -0.285 NA
HETATM   30  H13 UNL     1      15.796  -0.750  50.816  1.00  0.00     0.125 HD
HETATM   31  H14 UNL     1      15.720  -0.677  50.828  1.00  0.00     0.125 HD
ENDBRANCH   4  29
TORSDOF 6
ENDMDL
MODEL 5
REMARK VINA RESULT:      -7.5      4.832      9.356
REMARK  6 active torsions:
REMARK  status: ('A' for Active; 'I' for Inactive)
REMARK    1  A    between atoms: C2_2  and  N1_3 
REMARK    2  A    between atoms: C5_6  and  N2_7 
REMARK    3  A    between atoms: C7_9  and  C8_10 
REMARK    4  A    between atoms: C10_13  and  N4_14 
REMARK    5  A    between atoms: C11_15  and  C12_16 
REMARK    6  A    between atoms: C13_17  and  N5_18 
ROOT
HETATM    1  C8  UNL     1      23.191   3.664  49.360  1.00  0.00     0.088 A 
HETATM    2  C9  UNL     1      22.126   3.518  48.491  1.00  0.00     0.151 A 
HETATM    3  N3  UNL     1      21.937   4.487  47.577  1.00  0.00    -0.245 NA
HETATM    4  C10 UNL     1      22.774   5.537  47.547  1.00  0.00     0.128 A 
HETATM    5  C11 UNL     1      23.841   5.701  48.403  1.00  0.00     0.114 A 
HETATM    6  N7  UNL     1      24.017   4.719  49.315  1.00  0.00    -0.245 NA
ENDROOT
BRANCH   1   7
HETATM    7  C7  UNL     1      23.374   2.591  50.347  1.00  0.00     0.030 A 
HETATM    8  C6  UNL     1      24.512   2.226  51.037  1.00  0.00     0.128 A 
HETATM    9  N2  UNL     1      24.283   1.193  51.854  1.00  0.00    -0.275 N 
HETATM   10  N8  UNL     1      23.015   0.861  51.724  1.00  0.00    -0.184 NA
HETATM   11  C17 UNL     1      22.421   1.687  50.815  1.00  0.00     0.154 A 
BRANCH   9  12
HETATM   12  C5  UNL     1      25.256   0.544  52.735  1.00  0.00     0.112 C 
HETATM   13  C4  UNL     1      25.794   1.549  53.731  1.00  0.00     0.047 C 
HETATM   14  C3  UNL     1      26.732   0.862  54.651  1.00  0.00     0.119 C 
HETATM   15  N1  UNL     1      27.587  -0.124  54.131  1.00  0.00    -0.413 N 
HETATM   16  C19 UNL     1      27.369  -0.653  52.849  1.00  0.00     0.119 C 
HETATM   17  C18 UNL     1      26.462   0.104  51.932  1.00  0.00     0.047 C 
BRANCH  15  18
HETATM   18  C2  UNL     1      28.899  -0.176  54.669  1.00  0.00     0.112 C 
HETATM   19  C1  UNL     1      29.902  -0.283  53.544  1.00  0.00     0.026 C 
ENDBRANCH  15  18
ENDBRANCH   9  12
ENDBRANCH   1   7
BRANCH   5  20
HETATM   20  C12 UNL     1      24.763   6.864  48.366  1.00  0.00     0.326 C 
HETATM   21  C13 UNL     1      25.919   6.733  49.263  1.00  0.00     0.040 C 
HETATM   22  C14 UNL     1      25.563   7.366  50.391  1.00  0.00     0.030 C 
HETATM   23  C15 UNL     1      24.188   7.916  50.253  1.00  0.00     0.302 C 
HETATM   24  N6  UNL     1      24.037   8.025  48.823  1.00  0.00     0.104 N 
HETATM   25  C16 UNL     1      24.664   9.199  48.272  1.00  0.00     0.311 C 
BRANCH  21  26
HETATM   26  N5  UNL     1      27.216   6.151  49.239  1.00  0.00    -0.400 N 
HETATM   27  H16 UNL     1      27.643   5.602  50.005  1.00  0.00     0.156 HD
HETATM   28  H17 UNL     1      27.894   6.215  48.425  1.00  0.00     0.156 HD
ENDBRANCH  21  26
ENDBRANCH   5  20
BRANCH   4  29
HETATM   29  N4  UNL     1      22.542   6.540  46.568  1.00  0.00    -0.285 NA
HETATM   30  H13 UNL     1      22.292   7.553  46.583  1.00  0.00     0.125 HD
HETATM   31  H14 UNL     1      22.295   7.549  46.476  1.00  0.00     0.125 HD
ENDBRANCH   4  29
TORSDOF 6
ENDMDL
MODEL 6
REMARK VINA RESULT:      -7.5      2.697      4.114
REMARK  6 active torsions:
REMARK  status: ('A' for Active; 'I' for Inactive)
REMARK    1  A    between atoms: C2_2  and  N1_3 
REMARK    2  A    between atoms: C5_6  and  N2_7 
REMARK    3  A    between atoms: C7_9  and  C8_10 
REMARK    4  A    between atoms: C10_13  and  N4_14 
REMARK    5  A    between atoms: C11_15  and  C12_16 
REMARK    6  A    between atoms: C13_17  and  N5_18 
ROOT
HETATM    1  C8  UNL     1      23.828   0.998  52.756  1.00  0.00     0.088 A 
HETATM    2  C9  UNL     1      25.054   0.399  52.977  1.00  0.00     0.151 A 
HETATM    3  N3  UNL     1      26.148   1.057  52.554  1.00  0.00    -0.245 NA
HETATM    4  C10 UNL     1      26.008   2.246  51.944  1.00  0.00     0.128 A 
HETATM    5  C11 UNL     1      24.796   2.860  51.714  1.00  0.00     0.114 A 
HETATM    6  N7  UNL     1      23.707   2.186  52.147  1.00  0.00    -0.245 NA
ENDROOT
BRANCH   1   7
HETATM    7  C7  UNL     1      22.649   0.259  53.229  1.00  0.00     0.030 A 
HETATM    8  C6  UNL     1      21.330   0.382  52.845  1.00  0.00     0.128 A 
HETATM    9  N2  UNL     1      20.542  -0.471  53.506  1.00  0.00    -0.275 N 
HETATM   10  N8  UNL     1      21.308  -1.162  54.325  1.00  0.00    -0.184 NA
HETATM   11  C17 UNL     1      22.602  -0.751  54.191  1.00  0.00     0.154 A 
BRANCH   9  12
HETATM   12  C5  UNL     1      19.093  -0.618  53.355  1.00  0.00     0.112 C 
HETATM   13  C4  UNL     1      18.710  -2.076  53.487  1.00  0.00     0.047 C 
HETATM   14  C3  UNL     1      17.235  -2.199  53.391  1.00  0.00     0.119 C 
HETATM   15  N1  UNL     1      16.549  -1.383  52.477  1.00  0.00    -0.413 N 
HETATM   16  C19 UNL     1      17.189  -0.285  51.880  1.00  0.00     0.119 C 
HETATM   17  C18 UNL     1      18.682  -0.231  51.950  1.00  0.00     0.047 C 
BRANCH  15  18
HETATM   18  C2  UNL     1      15.448  -1.971  51.802  1.00  0.00     0.112 C 
HETATM   19  C1  UNL     1      15.177  -3.343  52.377  1.00  0.00     0.026 C 
ENDBRANCH  15  18
ENDBRANCH   9  12
ENDBRANCH   1   7
BRANCH   5  20
HETATM   20  C12 UNL     1      24.647   4.174  51.040  1.00  0.00     0.326 C 
HETATM   21  C13 UNL     1      23.287   4.726  51.111  1.00  0.00     0.040 C 
HETATM   22  C14 UNL     1      22.695   4.351  49.968  1.00  0.00     0.030 C 
HETATM   23  C15 UNL     1      23.643   3.558  49.140  1.00  0.00     0.302 C 
HETATM   24  N6  UNL     1      24.927   3.989  49.636  1.00  0.00     0.104 N 
HETATM   25  C16 UNL     1      25.354   5.252  49.089  1.00  0.00     0.311 C 
BRANCH  21  26
HETATM   26  N5  UNL     1      22.505   5.496  52.014  1.00  0.00    -0.400 N 
HETATM   27  H16 UNL     1      22.440   5.342  53.035  1.00  0.00     0.156 HD
HETATM   28  H17 UNL     1      21.897   6.321  51.738  1.00  0.00     0.156 HD
ENDBRANCH  21  26
ENDBRANCH   5  20
BRANCH   4  29
HETATM   29  N4  UNL     1      27.187   2.909  51.511  1.00  0.00    -0.285 NA
HETATM   30  H13 UNL     1      28.183   2.638  51.362  1.00  0.00     0.125 HD
HETATM   31  H14 UNL     1      28.200   2.738  51.332  1.00  0.00     0.125 HD
ENDBRANCH   4  29
TORSDOF 6
ENDMDL
MODEL 7
REMARK VINA RESULT:      -7.5      5.690     10.835
REMARK  6 active torsions:
REMARK  status: ('A' for Active; 'I' for Inactive)
REMARK    1  A    between atoms: C2_2  and  N1_3 
REMARK    2  A    between atoms: C5_6  and  N2_7 
REMARK    3  A    between atoms: C7_9  and  C8_10 
REMARK    4  A    between atoms: C10_13  and  N4_14 
REMARK    5  A    between atoms: C11_15  and  C12_16 
REMARK    6  A    between atoms: C13_17  and  N5_18 
ROOT
HETATM    1  C8  UNL     1      25.245   3.756  49.996  1.00  0.00     0.088 A 
HETATM    2  C9  UNL     1      24.019   3.475  49.422  1.00  0.00     0.151 A 
HETATM    3  N3  UNL     1      23.265   2.528  50.008  1.00  0.00    -0.245 NA
HETATM    4  C10 UNL     1      23.724   1.906  51.107  1.00  0.00     0.128 A 
HETATM    5  C11 UNL     1      24.941   2.172  51.695  1.00  0.00     0.114 A 
HETATM    6  N7  UNL     1      25.686   3.126  51.093  1.00  0.00    -0.245 NA
ENDROOT
BRANCH   1   7
HETATM    7  C7  UNL     1      26.048   4.795  49.335  1.00  0.00     0.030 A 
HETATM    8  C6  UNL     1      27.359   4.744  48.909  1.00  0.00     0.128 A 
HETATM    9  N2  UNL     1      27.740   5.896  48.350  1.00  0.00    -0.275 N 
HETATM   10  N8  UNL     1      26.710   6.716  48.393  1.00  0.00    -0.184 NA
HETATM   11  C17 UNL     1      25.655   6.087  48.986  1.00  0.00     0.154 A 
BRANCH   9  12
HETATM   12  C5  UNL     1      29.059   6.201  47.789  1.00  0.00     0.112 C 
HETATM   13  C4  UNL     1      30.122   5.415  48.525  1.00  0.00     0.047 C 
HETATM   14  C3  UNL     1      31.441   5.690  47.906  1.00  0.00     0.119 C 
HETATM   15  N1  UNL     1      31.722   6.995  47.469  1.00  0.00    -0.413 N 
HETATM   16  C19 UNL     1      30.695   7.945  47.352  1.00  0.00     0.119 C 
HETATM   17  C18 UNL     1      29.400   7.655  48.041  1.00  0.00     0.047 C 
BRANCH  15  18
HETATM   18  C2  UNL     1      33.050   7.457  47.660  1.00  0.00     0.112 C 
HETATM   19  C1  UNL     1      33.889   6.351  48.258  1.00  0.00     0.026 C 
ENDBRANCH  15  18
ENDBRANCH   9  12
ENDBRANCH   1   7
BRANCH   5  20
HETATM   20  C12 UNL     1      25.445   1.481  52.909  1.00  0.00     0.326 C 
HETATM   21  C13 UNL     1      26.842   1.796  53.233  1.00  0.00     0.040 C 
HETATM   22  C14 UNL     1      27.563   0.812  52.676  1.00  0.00     0.030 C 
HETATM   23  C15 UNL     1      26.663  -0.151  51.988  1.00  0.00     0.302 C 
HETATM   24  N6  UNL     1      25.406   0.059  52.662  1.00  0.00     0.104 N 
HETATM   25  C16 UNL     1      25.319  -0.619  53.930  1.00  0.00     0.311 C 
BRANCH  21  26
HETATM   26  N5  UNL     1      27.564   2.800  53.934  1.00  0.00    -0.400 N 
HETATM   27  H16 UNL     1      27.154   3.649  54.359  1.00  0.00     0.156 HD
HETATM   28  H17 UNL     1      28.613   2.789  54.100  1.00  0.00     0.156 HD
ENDBRANCH  21  26
ENDBRANCH   5  20
BRANCH   4  29
HETATM   29  N4  UNL     1      22.898   0.912  51.697  1.00  0.00    -0.285 NA
HETATM   30  H13 UNL     1      22.356   0.092  51.350  1.00  0.00     0.125 HD
HETATM   31  H14 UNL     1      22.327   0.076  51.452  1.00  0.00     0.125 HD
ENDBRANCH   4  29
TORSDOF 6
ENDMDL
MODEL 8
REMARK VINA RESULT:      -7.4      5.792      8.574
REMARK  6 active torsions:
REMARK  status: ('A' for Active; 'I' for Inactive)
REMARK    1  A    between atoms: C2_2  and  N1_3 
REMARK    2  A    between atoms: C5_6  and  N2_7 
REMARK    3  A    between atoms: C7_9  and  C8_10 
REMARK    4  A    between atoms: C10_13  and  N4_14 
REMARK    5  A    between atoms: C11_15  and  C12_16 
REMARK    6  A    between atoms: C13_17  and  N5_18 
ROOT
HETATM    1  C8  UNL     1      26.065   5.058  49.171  1.00  0.00     0.088 A 
HETATM    2  C9  UNL     1      27.119   4.191  48.951  1.00  0.00     0.151 A 
HETATM    3  N3  UNL     1      28.289   4.727  48.560  1.00  0.00    -0.245 NA
HETATM    4  C10 UNL     1      28.384   6.058  48.403  1.00  0.00     0.128 A 
HETATM    5  C11 UNL     1      27.347   6.939  48.619  1.00  0.00     0.114 A 
HETATM    6  N7  UNL     1      26.179   6.384  49.011  1.00  0.00    -0.245 NA
ENDROOT
BRANCH   1   7
HETATM    7  C7  UNL     1      24.799   4.445  49.598  1.00  0.00     0.030 A 
HETATM    8  C6  UNL     1      24.590   3.321  50.369  1.00  0.00     0.128 A 
HETATM    9  N2  UNL     1      23.288   3.077  50.542  1.00  0.00    -0.275 N 
HETATM   10  N8  UNL     1      22.622   4.016  49.904  1.00  0.00    -0.184 NA
HETATM   11  C17 UNL     1      23.503   4.874  49.311  1.00  0.00     0.154 A 
BRANCH   9  12
HETATM   12  C5  UNL     1      22.700   1.972  51.303  1.00  0.00     0.112 C 
HETATM   13  C4  UNL     1      21.597   2.495  52.197  1.00  0.00     0.047 C 
HETATM   14  C3  UNL     1      20.974   1.356  52.913  1.00  0.00     0.119 C 
HETATM   15  N1  UNL     1      21.799   0.314  53.369  1.00  0.00    -0.413 N 
HETATM   16  C19 UNL     1      23.123   0.201  52.914  1.00  0.00     0.119 C 
HETATM   17  C18 UNL     1      23.731   1.395  52.249  1.00  0.00     0.047 C 
BRANCH  15  18
HETATM   18  C2  UNL     1      21.464  -0.260  54.623  1.00  0.00     0.112 C 
HETATM   19  C1  UNL     1      22.571  -1.189  55.065  1.00  0.00     0.026 C 
ENDBRANCH  15  18
ENDBRANCH   9  12
ENDBRANCH   1   7
BRANCH   5  20
HETATM   20  C12 UNL     1      27.458   8.409  48.444  1.00  0.00     0.326 C 
HETATM   21  C13 UNL     1      28.181   9.083  49.530  1.00  0.00     0.040 C 
HETATM   22  C14 UNL     1      27.232   9.505  50.378  1.00  0.00     0.030 C 
HETATM   23  C15 UNL     1      25.888   9.120  49.868  1.00  0.00     0.302 C 
HETATM   24  N6  UNL     1      26.124   8.962  48.454  1.00  0.00     0.104 N 
HETATM   25  C16 UNL     1      26.144  10.211  47.736  1.00  0.00     0.311 C 
BRANCH  21  26
HETATM   26  N5  UNL     1      29.527   9.377  49.880  1.00  0.00    -0.400 N 
HETATM   27  H16 UNL     1      29.855   9.669  50.817  1.00  0.00     0.156 HD
HETATM   28  H17 UNL     1      30.352   9.328  49.214  1.00  0.00     0.156 HD
ENDBRANCH  21  26
ENDBRANCH   5  20
BRANCH   4  29
HETATM   29  N4  UNL     1      29.636   6.587  47.990  1.00  0.00    -0.285 NA
HETATM   30  H13 UNL     1      30.411   6.269  47.368  1.00  0.00     0.125 HD
HETATM   31  H14 UNL     1      30.460   6.360  47.392  1.00  0.00     0.125 HD
ENDBRANCH   4  29
TORSDOF 6
ENDMDL
MODEL 9
REMARK VINA RESULT:      -7.3      1.706      3.065
REMARK  6 active torsions:
REMARK  status: ('A' for Active; 'I' for Inactive)
REMARK    1  A    between atoms: C2_2  and  N1_3 
REMARK    2  A    between atoms: C5_6  and  N2_7 
REMARK    3  A    between atoms: C7_9  and  C8_10 
REMARK    4  A    between atoms: C10_13  and  N4_14 
REMARK    5  A    between atoms: C11_15  and  C12_16 
REMARK    6  A    between atoms: C13_17  and  N5_18 
ROOT
HETATM    1  C8  UNL     1      23.430   1.318  52.045  1.00  0.00     0.088 A 
HETATM    2  C9  UNL     1      23.374   2.530  51.384  1.00  0.00     0.151 A 
HETATM    3  N3  UNL     1      24.543   3.115  51.066  1.00  0.00    -0.245 NA
HETATM    4  C10 UNL     1      25.695   2.508  51.397  1.00  0.00     0.128 A 
HETATM    5  C11 UNL     1      25.772   1.299  52.055  1.00  0.00     0.114 A 
HETATM    6  N7  UNL     1      24.589   0.726  52.367  1.00  0.00    -0.245 NA
ENDROOT
BRANCH   1   7
HETATM    7  C7  UNL     1      22.138   0.702  52.380  1.00  0.00     0.030 A 
HETATM    8  C6  UNL     1      20.888   0.953  51.852  1.00  0.00     0.128 A 
HETATM    9  N2  UNL     1      19.952   0.186  52.417  1.00  0.00    -0.275 N 
HETATM   10  N8  UNL     1      20.549  -0.574  53.311  1.00  0.00    -0.184 NA
HETATM   11  C17 UNL     1      21.885  -0.294  53.324  1.00  0.00     0.154 A 
BRANCH   9  12
HETATM   12  C5  UNL     1      18.520   0.183  52.105  1.00  0.00     0.112 C 
HETATM   13  C4  UNL     1      17.878  -1.067  52.664  1.00  0.00     0.047 C 
HETATM   14  C3  UNL     1      16.421  -1.025  52.391  1.00  0.00     0.119 C 
HETATM   15  N1  UNL     1      15.979  -0.510  51.161  1.00  0.00    -0.413 N 
HETATM   16  C19 UNL     1      16.857   0.207  50.332  1.00  0.00     0.119 C 
HETATM   17  C18 UNL     1      18.323   0.089  50.607  1.00  0.00     0.047 C 
BRANCH  15  18
HETATM   18  C2  UNL     1      14.864  -1.155  50.566  1.00  0.00     0.112 C 
HETATM   19  C1  UNL     1      14.758  -2.568  51.089  1.00  0.00     0.026 C 
ENDBRANCH  15  18
ENDBRANCH   9  12
ENDBRANCH   1   7
BRANCH   5  20
HETATM   20  C12 UNL     1      27.048   0.633  52.419  1.00  0.00     0.326 C 
HETATM   21  C13 UNL     1      26.885  -0.761  52.853  1.00  0.00     0.040 C 
HETATM   22  C14 UNL     1      26.819  -0.707  54.192  1.00  0.00     0.030 C 
HETATM   23  C15 UNL     1      26.936   0.703  54.650  1.00  0.00     0.302 C 
HETATM   24  N6  UNL     1      27.613   1.336  53.546  1.00  0.00     0.104 N 
HETATM   25  C16 UNL     1      29.037   1.116  53.550  1.00  0.00     0.311 C 
BRANCH  21  26
HETATM   26  N5  UNL     1      26.790  -2.049  52.260  1.00  0.00    -0.400 N 
HETATM   27  H16 UNL     1      27.411  -2.417  51.519  1.00  0.00     0.156 HD
HETATM   28  H17 UNL     1      26.065  -2.782  52.514  1.00  0.00     0.156 HD
ENDBRANCH  21  26
ENDBRANCH   5  20
BRANCH   4  29
HETATM   29  N4  UNL     1      26.909   3.156  51.044  1.00  0.00    -0.285 NA
HETATM   30  H13 UNL     1      27.530   3.867  51.487  1.00  0.00     0.125 HD
HETATM   31  H14 UNL     1      27.592   3.859  51.401  1.00  0.00     0.125 HD
ENDBRANCH   4  29
TORSDOF 6
ENDMDL
