MODEL 1
REMARK VINA RESULT:      -8.5      0.000      0.000
REMARK  0 active torsions:
REMARK  status: ('A' for Active; 'I' for Inactive)
ROOT
HETATM    1  O1  UNL     1      19.964   3.069  53.061  1.00  0.00    -0.267 OA
HETATM    2  C1  UNL     1      20.840   2.386  52.425  1.00  0.00     0.254 C 
HETATM    3  C2  UNL     1      21.422   1.141  53.001  1.00  0.00     0.038 A 
HETATM    4  C3  UNL     1      20.728   0.683  54.088  1.00  0.00     0.017 A 
HETATM    5  C4  UNL     1      21.246  -0.475  54.611  1.00  0.00     0.001 A 
HETATM    6  C5  UNL     1      22.351  -1.048  54.038  1.00  0.00     0.001 A 
HETATM    7  C6  UNL     1      23.026  -0.563  52.944  1.00  0.00     0.008 A 
HETATM    8  C7  UNL     1      22.543   0.596  52.388  1.00  0.00    -0.037 A 
HETATM    9  C8  UNL     1      23.008   1.411  51.238  1.00  0.00    -0.010 C 
HETATM   10  C9  UNL     1      22.056   0.851  50.471  1.00  0.00     0.085 C 
HETATM   11  C10 UNL     1      21.536   0.879  49.135  1.00  0.00     0.091 C 
HETATM   12  N1  UNL     1      21.591   1.407  47.916  1.00  0.00    -0.289 NA
HETATM   13  C11 UNL     1      22.619   2.461  47.745  1.00  0.00     0.261 C 
HETATM   14  N2  UNL     1      22.602   3.356  48.887  1.00  0.00    -0.207 NA
HETATM   15  N3  UNL     1      23.780   4.135  48.734  1.00  0.00    -0.329 N 
HETATM   16  C12 UNL     1      24.595   4.039  49.861  1.00  0.00     0.098 C 
HETATM   17  C13 UNL     1      24.593   3.282  50.910  1.00  0.00    -0.008 C 
HETATM   18  C14 UNL     1      24.143   2.222  51.828  1.00  0.00     0.039 C 
HETATM   19  C15 UNL     1      21.525   4.268  48.963  1.00  0.00     0.084 C 
HETATM   20  C16 UNL     1      20.139   3.749  49.028  1.00  0.00     0.041 C 
HETATM   21  C17 UNL     1      19.637   3.367  50.392  1.00  0.00     0.127 C 
HETATM   22  N4  UNL     1      20.636   3.430  51.458  1.00  0.00    -0.348 N 
HETATM   23  C18 UNL     1      21.386   4.684  51.473  1.00  0.00     0.127 C 
HETATM   24  C19 UNL     1      21.690   5.221  50.111  1.00  0.00     0.041 C 
HETATM   25  H9  UNL     1      23.752   4.592  47.811  1.00  0.00     0.180 HD
ENDROOT
TORSDOF 0
ENDMDL
MODEL 2
REMARK VINA RESULT:      -8.4      1.641      3.250
REMARK  0 active torsions:
REMARK  status: ('A' for Active; 'I' for Inactive)
ROOT
HETATM    1  O1  UNL     1      24.283   1.207  53.212  1.00  0.00    -0.267 OA
HETATM    2  C1  UNL     1      23.150   1.398  52.649  1.00  0.00     0.254 C 
HETATM    3  C2  UNL     1      21.971   0.544  52.965  1.00  0.00     0.038 A 
HETATM    4  C3  UNL     1      22.156  -0.225  54.082  1.00  0.00     0.017 A 
HETATM    5  C4  UNL     1      21.066  -0.999  54.392  1.00  0.00     0.001 A 
HETATM    6  C5  UNL     1      19.945  -0.945  53.606  1.00  0.00     0.001 A 
HETATM    7  C6  UNL     1      19.790  -0.160  52.488  1.00  0.00     0.008 A 
HETATM    8  C7  UNL     1      20.856   0.631  52.140  1.00  0.00    -0.037 A 
HETATM    9  C8  UNL     1      21.063   1.575  51.013  1.00  0.00    -0.010 C 
HETATM   10  C9  UNL     1      20.794   2.601  51.839  1.00  0.00     0.085 C 
HETATM   11  C10 UNL     1      20.699   4.032  51.851  1.00  0.00     0.091 C 
HETATM   12  N1  UNL     1      20.818   5.175  51.180  1.00  0.00    -0.289 NA
HETATM   13  C11 UNL     1      21.238   5.021  49.767  1.00  0.00     0.261 C 
HETATM   14  N2  UNL     1      22.313   4.050  49.677  1.00  0.00    -0.207 NA
HETATM   15  N3  UNL     1      22.436   3.800  48.283  1.00  0.00    -0.329 N 
HETATM   16  C12 UNL     1      22.291   2.442  48.002  1.00  0.00     0.098 C 
HETATM   17  C13 UNL     1      21.908   1.417  48.693  1.00  0.00    -0.008 C 
HETATM   18  C14 UNL     1      21.423   0.660  49.861  1.00  0.00     0.039 C 
HETATM   19  C15 UNL     1      23.586   4.469  50.122  1.00  0.00     0.084 C 
HETATM   20  C16 UNL     1      23.755   4.901  51.529  1.00  0.00     0.041 C 
HETATM   21  C17 UNL     1      23.995   3.810  52.534  1.00  0.00     0.127 C 
HETATM   22  N4  UNL     1      23.891   2.451  52.007  1.00  0.00    -0.348 N 
HETATM   23  C18 UNL     1      24.653   2.250  50.777  1.00  0.00     0.127 C 
HETATM   24  C19 UNL     1      24.635   3.427  49.856  1.00  0.00     0.041 C 
HETATM   25  H9  UNL     1      22.606   4.696  47.804  1.00  0.00     0.180 HD
ENDROOT
TORSDOF 0
ENDMDL
MODEL 3
REMARK VINA RESULT:      -8.2      7.712     10.866
REMARK  0 active torsions:
REMARK  status: ('A' for Active; 'I' for Inactive)
ROOT
HETATM    1  O1  UNL     1      30.472   4.872  48.018  1.00  0.00    -0.267 OA
HETATM    2  C1  UNL     1      29.813   5.969  48.005  1.00  0.00     0.254 C 
HETATM    3  C2  UNL     1      28.339   5.993  48.229  1.00  0.00     0.038 A 
HETATM    4  C3  UNL     1      27.858   4.810  48.721  1.00  0.00     0.017 A 
HETATM    5  C4  UNL     1      26.505   4.832  48.949  1.00  0.00     0.001 A 
HETATM    6  C5  UNL     1      25.786   5.968  48.684  1.00  0.00     0.001 A 
HETATM    7  C6  UNL     1      26.301   7.142  48.190  1.00  0.00     0.008 A 
HETATM    8  C7  UNL     1      27.652   7.166  47.946  1.00  0.00    -0.037 A 
HETATM    9  C8  UNL     1      28.542   8.224  47.406  1.00  0.00    -0.010 C 
HETATM   10  C9  UNL     1      28.939   8.512  48.658  1.00  0.00     0.085 C 
HETATM   11  C10 UNL     1      29.815   9.389  49.380  1.00  0.00     0.091 C 
HETATM   12  N1  UNL     1      30.726  10.357  49.337  1.00  0.00    -0.289 NA
HETATM   13  C11 UNL     1      31.077  10.815  47.972  1.00  0.00     0.261 C 
HETATM   14  N2  UNL     1      31.241   9.670  47.095  1.00  0.00    -0.207 NA
HETATM   15  N3  UNL     1      31.306  10.238  45.794  1.00  0.00    -0.329 N 
HETATM   16  C12 UNL     1      30.327   9.696  44.962  1.00  0.00     0.098 C 
HETATM   17  C13 UNL     1      29.296   8.941  45.161  1.00  0.00    -0.008 C 
HETATM   18  C14 UNL     1      28.319   8.132  45.911  1.00  0.00     0.039 C 
HETATM   19  C15 UNL     1      32.421   8.909  47.260  1.00  0.00     0.084 C 
HETATM   20  C16 UNL     1      32.693   8.267  48.567  1.00  0.00     0.041 C 
HETATM   21  C17 UNL     1      32.049   6.929  48.795  1.00  0.00     0.127 C 
HETATM   22  N4  UNL     1      31.123   6.502  47.747  1.00  0.00    -0.348 N 
HETATM   23  C18 UNL     1      31.679   6.628  46.401  1.00  0.00     0.127 C 
HETATM   24  C19 UNL     1      32.536   7.838  46.214  1.00  0.00     0.041 C 
HETATM   25  H9  UNL     1      32.073  10.925  45.775  1.00  0.00     0.180 HD
ENDROOT
TORSDOF 0
ENDMDL
MODEL 4
REMARK VINA RESULT:      -7.9      1.751      3.359
REMARK  0 active torsions:
REMARK  status: ('A' for Active; 'I' for Inactive)
ROOT
HETATM    1  O1  UNL     1      25.338   2.577  51.596  1.00  0.00    -0.267 OA
HETATM    2  C1  UNL     1      24.092   2.290  51.571  1.00  0.00     0.254 C 
HETATM    3  C2  UNL     1      23.553   1.102  52.293  1.00  0.00     0.038 A 
HETATM    4  C3  UNL     1      24.449   0.567  53.178  1.00  0.00     0.017 A 
HETATM    5  C4  UNL     1      23.953  -0.514  53.862  1.00  0.00     0.001 A 
HETATM    6  C5  UNL     1      22.675  -0.946  53.621  1.00  0.00     0.001 A 
HETATM    7  C6  UNL     1      21.798  -0.385  52.724  1.00  0.00     0.008 A 
HETATM    8  C7  UNL     1      22.253   0.700  52.016  1.00  0.00    -0.037 A 
HETATM    9  C8  UNL     1      21.614   1.538  50.970  1.00  0.00    -0.010 C 
HETATM   10  C9  UNL     1      21.351   2.474  51.899  1.00  0.00     0.085 C 
HETATM   11  C10 UNL     1      20.748   3.768  52.044  1.00  0.00     0.091 C 
HETATM   12  N1  UNL     1      20.151   4.804  51.462  1.00  0.00    -0.289 NA
HETATM   13  C11 UNL     1      19.978   4.674  49.995  1.00  0.00     0.261 C 
HETATM   14  N2  UNL     1      21.196   4.152  49.401  1.00  0.00    -0.207 NA
HETATM   15  N3  UNL     1      20.818   3.828  48.070  1.00  0.00    -0.329 N 
HETATM   16  C12 UNL     1      21.083   2.488  47.786  1.00  0.00     0.098 C 
HETATM   17  C13 UNL     1      21.425   1.468  48.504  1.00  0.00    -0.008 C 
HETATM   18  C14 UNL     1      21.779   0.707  49.715  1.00  0.00     0.039 C 
HETATM   19  C15 UNL     1      22.286   5.045  49.301  1.00  0.00     0.084 C 
HETATM   20  C16 UNL     1      22.845   5.646  50.535  1.00  0.00     0.041 C 
HETATM   21  C17 UNL     1      23.860   4.820  51.274  1.00  0.00     0.127 C 
HETATM   22  N4  UNL     1      24.058   3.470  50.750  1.00  0.00    -0.348 N 
HETATM   23  C18 UNL     1      24.263   3.437  49.303  1.00  0.00     0.127 C 
HETATM   24  C19 UNL     1      23.435   4.432  48.554  1.00  0.00     0.041 C 
HETATM   25  H9  UNL     1      20.433   4.673  47.624  1.00  0.00     0.180 HD
ENDROOT
TORSDOF 0
ENDMDL
MODEL 5
REMARK VINA RESULT:      -7.9      1.548      2.535
REMARK  0 active torsions:
REMARK  status: ('A' for Active; 'I' for Inactive)
ROOT
HETATM    1  O1  UNL     1      20.877   0.493  53.000  1.00  0.00    -0.267 OA
HETATM    2  C1  UNL     1      21.740   1.137  52.309  1.00  0.00     0.254 C 
HETATM    3  C2  UNL     1      23.202   0.883  52.458  1.00  0.00     0.038 A 
HETATM    4  C3  UNL     1      23.473  -0.262  53.156  1.00  0.00     0.017 A 
HETATM    5  C4  UNL     1      24.816  -0.513  53.279  1.00  0.00     0.001 A 
HETATM    6  C5  UNL     1      25.726   0.350  52.726  1.00  0.00     0.001 A 
HETATM    7  C6  UNL     1      25.420   1.493  52.027  1.00  0.00     0.008 A 
HETATM    8  C7  UNL     1      24.086   1.785  51.880  1.00  0.00    -0.037 A 
HETATM    9  C8  UNL     1      23.387   2.917  51.222  1.00  0.00    -0.010 C 
HETATM   10  C9  UNL     1      23.156   2.135  50.152  1.00  0.00     0.085 C 
HETATM   11  C10 UNL     1      22.535   2.164  48.859  1.00  0.00     0.091 C 
HETATM   12  N1  UNL     1      21.836   2.851  47.960  1.00  0.00    -0.289 NA
HETATM   13  C11 UNL     1      21.478   4.227  48.376  1.00  0.00     0.261 C 
HETATM   14  N2  UNL     1      21.017   4.220  49.753  1.00  0.00    -0.207 NA
HETATM   15  N3  UNL     1      20.965   5.596  50.106  1.00  0.00    -0.329 N 
HETATM   16  C12 UNL     1      21.746   5.854  51.232  1.00  0.00     0.098 C 
HETATM   17  C13 UNL     1      22.617   5.168  51.899  1.00  0.00    -0.008 C 
HETATM   18  C14 UNL     1      23.468   4.020  52.256  1.00  0.00     0.039 C 
HETATM   19  C15 UNL     1      19.726   3.697  49.988  1.00  0.00     0.084 C 
HETATM   20  C16 UNL     1      19.435   2.293  49.618  1.00  0.00     0.041 C 
HETATM   21  C17 UNL     1      19.813   1.248  50.630  1.00  0.00     0.127 C 
HETATM   22  N4  UNL     1      20.547   1.750  51.791  1.00  0.00    -0.348 N 
HETATM   23  C18 UNL     1      19.923   2.919  52.406  1.00  0.00     0.127 C 
HETATM   24  C19 UNL     1      19.315   3.866  51.422  1.00  0.00     0.041 C 
HETATM   25  H9  UNL     1      20.353   6.083  49.436  1.00  0.00     0.180 HD
ENDROOT
TORSDOF 0
ENDMDL
MODEL 6
REMARK VINA RESULT:      -7.7      6.443      9.439
REMARK  0 active torsions:
REMARK  status: ('A' for Active; 'I' for Inactive)
ROOT
HETATM    1  O1  UNL     1      29.554   5.545  47.901  1.00  0.00    -0.267 OA
HETATM    2  C1  UNL     1      28.541   6.286  48.146  1.00  0.00     0.254 C 
HETATM    3  C2  UNL     1      27.239   5.704  48.581  1.00  0.00     0.038 A 
HETATM    4  C3  UNL     1      27.343   4.392  48.955  1.00  0.00     0.017 A 
HETATM    5  C4  UNL     1      26.152   3.855  49.377  1.00  0.00     0.001 A 
HETATM    6  C5  UNL     1      25.021   4.629  49.390  1.00  0.00     0.001 A 
HETATM    7  C6  UNL     1      24.951   5.947  49.008  1.00  0.00     0.008 A 
HETATM    8  C7  UNL     1      26.119   6.525  48.578  1.00  0.00    -0.037 A 
HETATM    9  C8  UNL     1      26.423   7.890  48.078  1.00  0.00    -0.010 C 
HETATM   10  C9  UNL     1      26.914   8.210  49.289  1.00  0.00     0.085 C 
HETATM   11  C10 UNL     1      27.513   9.302  50.000  1.00  0.00     0.091 C 
HETATM   12  N1  UNL     1      27.965  10.552  49.971  1.00  0.00    -0.289 NA
HETATM   13  C11 UNL     1      27.850  11.221  48.653  1.00  0.00     0.261 C 
HETATM   14  N2  UNL     1      28.264  10.310  47.601  1.00  0.00    -0.207 NA
HETATM   15  N3  UNL     1      27.860  10.959  46.404  1.00  0.00    -0.329 N 
HETATM   16  C12 UNL     1      27.018  10.142  45.650  1.00  0.00     0.098 C 
HETATM   17  C13 UNL     1      26.407   9.025  45.880  1.00  0.00    -0.008 C 
HETATM   18  C14 UNL     1      25.970   7.837  46.634  1.00  0.00     0.039 C 
HETATM   19  C15 UNL     1      29.651  10.071  47.479  1.00  0.00     0.084 C 
HETATM   20  C16 UNL     1      30.389   9.487  48.623  1.00  0.00     0.041 C 
HETATM   21  C17 UNL     1      30.354   7.989  48.740  1.00  0.00     0.127 C 
HETATM   22  N4  UNL     1      29.478   7.315  47.784  1.00  0.00    -0.348 N 
HETATM   23  C18 UNL     1      29.677   7.760  46.406  1.00  0.00     0.127 C 
HETATM   24  C19 UNL     1      29.961   9.222  46.279  1.00  0.00     0.041 C 
HETATM   25  H9  UNL     1      28.291  11.894  46.377  1.00  0.00     0.180 HD
ENDROOT
TORSDOF 0
ENDMDL
MODEL 7
REMARK VINA RESULT:      -7.6      2.672      3.387
REMARK  0 active torsions:
REMARK  status: ('A' for Active; 'I' for Inactive)
ROOT
HETATM    1  O1  UNL     1      22.569   4.732  52.768  1.00  0.00    -0.267 OA
HETATM    2  C1  UNL     1      23.189   4.353  51.715  1.00  0.00     0.254 C 
HETATM    3  C2  UNL     1      24.400   3.487  51.796  1.00  0.00     0.038 A 
HETATM    4  C3  UNL     1      24.576   2.934  53.035  1.00  0.00     0.017 A 
HETATM    5  C4  UNL     1      25.677   2.119  53.112  1.00  0.00     0.001 A 
HETATM    6  C5  UNL     1      26.466   1.933  52.007  1.00  0.00     0.001 A 
HETATM    7  C6  UNL     1      26.261   2.503  50.773  1.00  0.00     0.008 A 
HETATM    8  C7  UNL     1      25.171   3.328  50.651  1.00  0.00    -0.037 A 
HETATM    9  C8  UNL     1      24.650   4.119  49.508  1.00  0.00    -0.010 C 
HETATM   10  C9  UNL     1      23.734   3.161  49.278  1.00  0.00     0.085 C 
HETATM   11  C10 UNL     1      22.649   2.839  48.398  1.00  0.00     0.091 C 
HETATM   12  N1  UNL     1      21.881   3.205  47.375  1.00  0.00    -0.289 NA
HETATM   13  C11 UNL     1      22.201   4.537  46.809  1.00  0.00     0.261 C 
HETATM   14  N2  UNL     1      22.424   5.488  47.883  1.00  0.00    -0.207 NA
HETATM   15  N3  UNL     1      22.972   6.624  47.229  1.00  0.00    -0.329 N 
HETATM   16  C12 UNL     1      24.208   6.969  47.774  1.00  0.00     0.098 C 
HETATM   17  C13 UNL     1      25.017   6.392  48.602  1.00  0.00    -0.008 C 
HETATM   18  C14 UNL     1      25.526   5.354  49.516  1.00  0.00     0.039 C 
HETATM   19  C15 UNL     1      21.280   5.939  48.579  1.00  0.00     0.084 C 
HETATM   20  C16 UNL     1      20.428   4.956  49.286  1.00  0.00     0.041 C 
HETATM   21  C17 UNL     1      20.864   4.576  50.673  1.00  0.00     0.127 C 
HETATM   22  N4  UNL     1      22.153   5.127  51.088  1.00  0.00    -0.348 N 
HETATM   23  C18 UNL     1      22.273   6.563  50.841  1.00  0.00     0.127 C 
HETATM   24  C19 UNL     1      21.626   7.012  49.571  1.00  0.00     0.041 C 
HETATM   25  H9  UNL     1      22.315   6.928  46.496  1.00  0.00     0.180 HD
ENDROOT
TORSDOF 0
ENDMDL
MODEL 8
REMARK VINA RESULT:      -7.6      9.703     12.068
REMARK  0 active torsions:
REMARK  status: ('A' for Active; 'I' for Inactive)
ROOT
HETATM    1  O1  UNL     1      34.345   7.310  48.890  1.00  0.00    -0.267 OA
HETATM    2  C1  UNL     1      33.453   6.731  48.178  1.00  0.00     0.254 C 
HETATM    3  C2  UNL     1      33.665   5.362  47.628  1.00  0.00     0.038 A 
HETATM    4  C3  UNL     1      34.734   4.722  48.194  1.00  0.00     0.017 A 
HETATM    5  C4  UNL     1      34.922   3.453  47.707  1.00  0.00     0.001 A 
HETATM    6  C5  UNL     1      34.076   2.956  46.750  1.00  0.00     0.001 A 
HETATM    7  C6  UNL     1      33.009   3.626  46.202  1.00  0.00     0.008 A 
HETATM    8  C7  UNL     1      32.783   4.901  46.659  1.00  0.00    -0.037 A 
HETATM    9  C8  UNL     1      31.762   5.916  46.298  1.00  0.00    -0.010 C 
HETATM   10  C9  UNL     1      31.060   5.584  47.396  1.00  0.00     0.085 C 
HETATM   11  C10 UNL     1      29.858   5.923  48.100  1.00  0.00     0.091 C 
HETATM   12  N1  UNL     1      28.778   6.695  48.178  1.00  0.00    -0.289 NA
HETATM   13  C11 UNL     1      28.660   7.704  47.098  1.00  0.00     0.261 C 
HETATM   14  N2  UNL     1      29.948   8.335  46.873  1.00  0.00    -0.207 NA
HETATM   15  N3  UNL     1      29.768   9.065  45.666  1.00  0.00    -0.329 N 
HETATM   16  C12 UNL     1      30.707   8.688  44.708  1.00  0.00     0.098 C 
HETATM   17  C13 UNL     1      31.568   7.726  44.622  1.00  0.00    -0.008 C 
HETATM   18  C14 UNL     1      32.314   6.520  45.023  1.00  0.00     0.039 C 
HETATM   19  C15 UNL     1      30.377   9.267  47.844  1.00  0.00     0.084 C 
HETATM   20  C16 UNL     1      30.557   8.821  49.245  1.00  0.00     0.041 C 
HETATM   21  C17 UNL     1      31.878   8.186  49.575  1.00  0.00     0.127 C 
HETATM   22  N4  UNL     1      32.761   7.966  48.430  1.00  0.00    -0.348 N 
HETATM   23  C18 UNL     1      32.909   9.147  47.581  1.00  0.00     0.127 C 
HETATM   24  C19 UNL     1      31.653   9.944  47.433  1.00  0.00     0.041 C 
HETATM   25  H9  UNL     1      28.973   9.709  45.789  1.00  0.00     0.180 HD
ENDROOT
TORSDOF 0
ENDMDL
MODEL 9
REMARK VINA RESULT:      -7.4      7.300      9.995
REMARK  0 active torsions:
REMARK  status: ('A' for Active; 'I' for Inactive)
ROOT
HETATM    1  O1  UNL     1      27.727   9.925  50.172  1.00  0.00    -0.267 OA
HETATM    2  C1  UNL     1      27.908   9.017  49.289  1.00  0.00     0.254 C 
HETATM    3  C2  UNL     1      27.147   7.735  49.326  1.00  0.00     0.038 A 
HETATM    4  C3  UNL     1      26.084   7.773  50.186  1.00  0.00     0.017 A 
HETATM    5  C4  UNL     1      25.367   6.603  50.210  1.00  0.00     0.001 A 
HETATM    6  C5  UNL     1      25.748   5.552  49.418  1.00  0.00     0.001 A 
HETATM    7  C6  UNL     1      26.824   5.546  48.562  1.00  0.00     0.008 A 
HETATM    8  C7  UNL     1      27.571   6.697  48.507  1.00  0.00    -0.037 A 
HETATM    9  C8  UNL     1      28.788   7.051  47.733  1.00  0.00    -0.010 C 
HETATM   10  C9  UNL     1      28.019   7.714  46.851  1.00  0.00     0.085 C 
HETATM   11  C10 UNL     1      28.111   8.488  45.647  1.00  0.00     0.091 C 
HETATM   12  N1  UNL     1      28.888   9.037  44.718  1.00  0.00    -0.289 NA
HETATM   13  C11 UNL     1      30.340   8.815  44.916  1.00  0.00     0.261 C 
HETATM   14  N2  UNL     1      30.683   9.016  46.313  1.00  0.00    -0.207 NA
HETATM   15  N3  UNL     1      32.011   8.522  46.417  1.00  0.00    -0.329 N 
HETATM   16  C12 UNL     1      32.101   7.527  47.389  1.00  0.00     0.098 C 
HETATM   17  C13 UNL     1      31.231   6.857  48.073  1.00  0.00    -0.008 C 
HETATM   18  C14 UNL     1      29.904   6.418  48.539  1.00  0.00     0.039 C 
HETATM   19  C15 UNL     1      30.715  10.352  46.772  1.00  0.00     0.084 C 
HETATM   20  C16 UNL     1      29.486  11.175  46.693  1.00  0.00     0.041 C 
HETATM   21  C17 UNL     1      28.515  11.028  47.830  1.00  0.00     0.127 C 
HETATM   22  N4  UNL     1      28.850   9.985  48.798  1.00  0.00    -0.348 N 
HETATM   23  C18 UNL     1      30.236  10.048  49.256  1.00  0.00     0.127 C 
HETATM   24  C19 UNL     1      31.207  10.436  48.188  1.00  0.00     0.041 C 
HETATM   25  H9  UNL     1      32.601   9.025  45.738  1.00  0.00     0.180 HD
ENDROOT
TORSDOF 0
ENDMDL
