MODEL 1
REMARK VINA RESULT:      -6.4      0.000      0.000
REMARK  6 active torsions:
REMARK  status: ('A' for Active; 'I' for Inactive)
REMARK    1  A    between atoms: C4_4  and  C5_5 
REMARK    2  A    between atoms: C5_5  and  C6_6 
REMARK    3  A    between atoms: C6_6  and  C7_7 
REMARK    4  A    between atoms: N1_9  and  C9_10 
REMARK    5  A    between atoms: C10_11  and  C11_12 
REMARK    6  A    between atoms: C12_13  and  N2_14 
ROOT
HETATM    1  C1  UNL     1      26.786   7.428  48.782  1.00  0.00     0.017 C 
HETATM    2  C2  UNL     1      27.145   6.275  48.732  1.00  0.00    -0.090 C 
HETATM    3  C3  UNL     1      27.583   4.909  48.653  1.00  0.00     0.059 C 
HETATM    4  C4  UNL     1      26.780   3.984  49.152  1.00  0.00    -0.018 C 
ENDROOT
BRANCH   4   5
HETATM    5  C5  UNL     1      25.470   4.314  49.776  1.00  0.00     0.034 C 
BRANCH   5   6
HETATM    6  C6  UNL     1      24.395   3.313  49.407  1.00  0.00     0.066 C 
BRANCH   6   7
HETATM    7  C7  UNL     1      24.125   2.476  50.616  1.00  0.00     0.076 A 
HETATM    8  C8  UNL     1      24.972   2.121  51.641  1.00  0.00     0.148 A 
HETATM    9  N1  UNL     1      24.361   1.355  52.552  1.00  0.00    -0.236 N 
HETATM   10  N5  UNL     1      23.126   1.220  52.112  1.00  0.00    -0.062 NA
HETATM   11  N6  UNL     1      22.985   1.873  50.983  1.00  0.00    -0.135 NA
BRANCH   9  12
HETATM   12  C9  UNL     1      24.886   0.793  53.739  1.00  0.00     0.119 C 
HETATM   13  C10 UNL     1      25.671  -0.242  53.937  1.00  0.00     0.021 C 
BRANCH  13  14
HETATM   14  C11 UNL     1      26.264  -1.158  52.994  1.00  0.00     0.022 C 
HETATM   15  C12 UNL     1      27.507  -0.966  52.590  1.00  0.00     0.133 C 
BRANCH  15  16
HETATM   16  N2  UNL     1      28.162   0.178  53.154  1.00  0.00    -0.208 N 
HETATM   17  N3  UNL     1      28.830   0.197  54.378  1.00  0.00    -0.172 NA
HETATM   18  C13 UNL     1      29.089   1.405  54.752  1.00  0.00     0.129 C 
HETATM   19  C14 UNL     1      28.569   2.316  53.723  1.00  0.00     0.161 C 
HETATM   20  N4  UNL     1      28.267   1.456  52.619  1.00  0.00    -0.212 NA
HETATM   21  H16 UNL     1      29.024   1.490  51.917  1.00  0.00     0.149 HD
ENDBRANCH  15  16
ENDBRANCH  13  14
ENDBRANCH   9  12
ENDBRANCH   6   7
ENDBRANCH   5   6
ENDBRANCH   4   5
TORSDOF 6
ENDMDL
MODEL 2
REMARK VINA RESULT:      -6.4      3.620      6.600
REMARK  6 active torsions:
REMARK  status: ('A' for Active; 'I' for Inactive)
REMARK    1  A    between atoms: C4_4  and  C5_5 
REMARK    2  A    between atoms: C5_5  and  C6_6 
REMARK    3  A    between atoms: C6_6  and  C7_7 
REMARK    4  A    between atoms: N1_9  and  C9_10 
REMARK    5  A    between atoms: C10_11  and  C11_12 
REMARK    6  A    between atoms: C12_13  and  N2_14 
ROOT
HETATM    1  C1  UNL     1      28.825  -2.458  53.074  1.00  0.00     0.017 C 
HETATM    2  C2  UNL     1      29.374  -1.440  53.423  1.00  0.00    -0.090 C 
HETATM    3  C3  UNL     1      30.037  -0.240  53.855  1.00  0.00     0.059 C 
HETATM    4  C4  UNL     1      29.406   0.906  53.659  1.00  0.00    -0.018 C 
ENDROOT
BRANCH   4   5
HETATM    5  C5  UNL     1      28.064   0.982  53.020  1.00  0.00     0.034 C 
BRANCH   5   6
HETATM    6  C6  UNL     1      27.025   1.576  53.946  1.00  0.00     0.066 C 
BRANCH   6   7
HETATM    7  C7  UNL     1      25.958   0.548  54.144  1.00  0.00     0.076 A 
HETATM    8  C8  UNL     1      24.837   0.293  53.386  1.00  0.00     0.148 A 
HETATM    9  N1  UNL     1      24.114  -0.715  53.886  1.00  0.00    -0.236 N 
HETATM   10  N5  UNL     1      24.769  -1.105  54.961  1.00  0.00    -0.062 NA
HETATM   11  N6  UNL     1      25.845  -0.370  55.115  1.00  0.00    -0.135 NA
BRANCH   9  12
HETATM   12  C9  UNL     1      22.908  -1.271  53.401  1.00  0.00     0.119 C 
HETATM   13  C10 UNL     1      21.670  -0.833  53.443  1.00  0.00     0.021 C 
BRANCH  13  14
HETATM   14  C11 UNL     1      21.127   0.379  54.006  1.00  0.00     0.022 C 
HETATM   15  C12 UNL     1      20.842   1.396  53.213  1.00  0.00     0.133 C 
BRANCH  15  16
HETATM   16  N2  UNL     1      21.112   1.181  51.822  1.00  0.00    -0.208 N 
HETATM   17  N3  UNL     1      22.293   1.537  51.170  1.00  0.00    -0.172 NA
HETATM   18  C13 UNL     1      22.159   1.469  49.889  1.00  0.00     0.129 C 
HETATM   19  C14 UNL     1      20.785   1.036  49.600  1.00  0.00     0.161 C 
HETATM   20  N4  UNL     1      20.288   0.595  50.869  1.00  0.00    -0.212 NA
HETATM   21  H16 UNL     1      20.337  -0.434  50.938  1.00  0.00     0.149 HD
ENDBRANCH  15  16
ENDBRANCH  13  14
ENDBRANCH   9  12
ENDBRANCH   6   7
ENDBRANCH   5   6
ENDBRANCH   4   5
TORSDOF 6
ENDMDL
MODEL 3
REMARK VINA RESULT:      -6.4      2.325      6.078
REMARK  6 active torsions:
REMARK  status: ('A' for Active; 'I' for Inactive)
REMARK    1  A    between atoms: C4_4  and  C5_5 
REMARK    2  A    between atoms: C5_5  and  C6_6 
REMARK    3  A    between atoms: C6_6  and  C7_7 
REMARK    4  A    between atoms: N1_9  and  C9_10 
REMARK    5  A    between atoms: C10_11  and  C11_12 
REMARK    6  A    between atoms: C12_13  and  N2_14 
ROOT
HETATM    1  C1  UNL     1      28.613   2.488  53.561  1.00  0.00     0.017 C 
HETATM    2  C2  UNL     1      28.908   1.327  53.722  1.00  0.00    -0.090 C 
HETATM    3  C3  UNL     1      29.281  -0.048  53.913  1.00  0.00     0.059 C 
HETATM    4  C4  UNL     1      28.510  -0.968  53.359  1.00  0.00    -0.018 C 
ENDROOT
BRANCH   4   5
HETATM    5  C5  UNL     1      27.299  -0.627  52.565  1.00  0.00     0.034 C 
BRANCH   5   6
HETATM    6  C6  UNL     1      26.030  -1.142  53.209  1.00  0.00     0.066 C 
BRANCH   6   7
HETATM    7  C7  UNL     1      25.007  -0.056  53.123  1.00  0.00     0.076 A 
HETATM    8  C8  UNL     1      25.173   1.282  52.846  1.00  0.00     0.148 A 
HETATM    9  N1  UNL     1      24.011   1.944  52.857  1.00  0.00    -0.236 N 
HETATM   10  N5  UNL     1      23.102   1.032  53.141  1.00  0.00    -0.062 NA
HETATM   11  N6  UNL     1      23.680  -0.136  53.296  1.00  0.00    -0.135 NA
BRANCH   9  12
HETATM   12  C9  UNL     1      23.765   3.317  52.625  1.00  0.00     0.119 C 
HETATM   13  C10 UNL     1      23.716   4.015  51.512  1.00  0.00     0.021 C 
BRANCH  13  14
HETATM   14  C11 UNL     1      23.899   3.602  50.143  1.00  0.00     0.022 C 
HETATM   15  C12 UNL     1      24.384   4.461  49.263  1.00  0.00     0.133 C 
BRANCH  15  16
HETATM   16  N2  UNL     1      24.688   5.762  49.781  1.00  0.00    -0.208 N 
HETATM   17  N3  UNL     1      23.789   6.825  49.857  1.00  0.00    -0.172 NA
HETATM   18  C13 UNL     1      24.395   7.934  50.114  1.00  0.00     0.129 C 
HETATM   19  C14 UNL     1      25.832   7.647  50.229  1.00  0.00     0.161 C 
HETATM   20  N4  UNL     1      25.894   6.218  50.298  1.00  0.00    -0.212 NA
HETATM   21  H16 UNL     1      26.004   5.909  51.277  1.00  0.00     0.149 HD
ENDBRANCH  15  16
ENDBRANCH  13  14
ENDBRANCH   9  12
ENDBRANCH   6   7
ENDBRANCH   5   6
ENDBRANCH   4   5
TORSDOF 6
ENDMDL
MODEL 4
REMARK VINA RESULT:      -6.3      2.739      5.381
REMARK  6 active torsions:
REMARK  status: ('A' for Active; 'I' for Inactive)
REMARK    1  A    between atoms: C4_4  and  C5_5 
REMARK    2  A    between atoms: C5_5  and  C6_6 
REMARK    3  A    between atoms: C6_6  and  C7_7 
REMARK    4  A    between atoms: N1_9  and  C9_10 
REMARK    5  A    between atoms: C10_11  and  C11_12 
REMARK    6  A    between atoms: C12_13  and  N2_14 
ROOT
HETATM    1  C1  UNL     1      21.964  -1.667  54.663  1.00  0.00     0.017 C 
HETATM    2  C2  UNL     1      21.039  -1.129  54.102  1.00  0.00    -0.090 C 
HETATM    3  C3  UNL     1      19.925  -0.506  53.442  1.00  0.00     0.059 C 
HETATM    4  C4  UNL     1      20.177   0.168  52.332  1.00  0.00    -0.018 C 
ENDROOT
BRANCH   4   5
HETATM    5  C5  UNL     1      21.547   0.296  51.766  1.00  0.00     0.034 C 
BRANCH   5   6
HETATM    6  C6  UNL     1      21.618   1.343  50.675  1.00  0.00     0.066 C 
BRANCH   6   7
HETATM    7  C7  UNL     1      23.010   1.886  50.661  1.00  0.00     0.076 A 
HETATM    8  C8  UNL     1      24.119   1.470  51.364  1.00  0.00     0.148 A 
HETATM    9  N1  UNL     1      25.196   2.212  51.084  1.00  0.00    -0.236 N 
HETATM   10  N5  UNL     1      24.780   3.100  50.204  1.00  0.00    -0.062 NA
HETATM   11  N6  UNL     1      23.505   2.913  49.956  1.00  0.00    -0.135 NA
BRANCH   9  12
HETATM   12  C9  UNL     1      26.510   2.103  51.596  1.00  0.00     0.119 C 
HETATM   13  C10 UNL     1      26.954   1.927  52.820  1.00  0.00     0.021 C 
BRANCH  13  14
HETATM   14  C11 UNL     1      26.235   1.786  54.063  1.00  0.00     0.022 C 
HETATM   15  C12 UNL     1      26.418   0.707  54.803  1.00  0.00     0.133 C 
BRANCH  15  16
HETATM   16  N2  UNL     1      27.347  -0.248  54.273  1.00  0.00    -0.208 N 
HETATM   17  N3  UNL     1      28.716  -0.265  54.536  1.00  0.00    -0.172 NA
HETATM   18  C13 UNL     1      29.339  -1.058  53.729  1.00  0.00     0.129 C 
HETATM   19  C14 UNL     1      28.345  -1.649  52.823  1.00  0.00     0.161 C 
HETATM   20  N4  UNL     1      27.087  -1.314  53.421  1.00  0.00    -0.212 NA
HETATM   21  H16 UNL     1      26.717  -2.117  53.955  1.00  0.00     0.149 HD
ENDBRANCH  15  16
ENDBRANCH  13  14
ENDBRANCH   9  12
ENDBRANCH   6   7
ENDBRANCH   5   6
ENDBRANCH   4   5
TORSDOF 6
ENDMDL
MODEL 5
REMARK VINA RESULT:      -5.9      3.032      6.868
REMARK  6 active torsions:
REMARK  status: ('A' for Active; 'I' for Inactive)
REMARK    1  A    between atoms: C4_4  and  C5_5 
REMARK    2  A    between atoms: C5_5  and  C6_6 
REMARK    3  A    between atoms: C6_6  and  C7_7 
REMARK    4  A    between atoms: N1_9  and  C9_10 
REMARK    5  A    between atoms: C10_11  and  C11_12 
REMARK    6  A    between atoms: C12_13  and  N2_14 
ROOT
HETATM    1  C1  UNL     1      20.870   1.409  52.187  1.00  0.00     0.017 C 
HETATM    2  C2  UNL     1      20.827   0.898  53.282  1.00  0.00    -0.090 C 
HETATM    3  C3  UNL     1      20.769   0.310  54.592  1.00  0.00     0.059 C 
HETATM    4  C4  UNL     1      21.647  -0.638  54.871  1.00  0.00    -0.018 C 
ENDROOT
BRANCH   4   5
HETATM    5  C5  UNL     1      22.666  -1.101  53.890  1.00  0.00     0.034 C 
BRANCH   5   6
HETATM    6  C6  UNL     1      24.077  -0.926  54.408  1.00  0.00     0.066 C 
BRANCH   6   7
HETATM    7  C7  UNL     1      24.841  -0.152  53.383  1.00  0.00     0.076 A 
HETATM    8  C8  UNL     1      24.520   1.036  52.765  1.00  0.00     0.148 A 
HETATM    9  N1  UNL     1      25.463   1.419  51.897  1.00  0.00    -0.236 N 
HETATM   10  N5  UNL     1      26.385   0.479  51.958  1.00  0.00    -0.062 NA
HETATM   11  N6  UNL     1      26.026  -0.438  52.824  1.00  0.00    -0.135 NA
BRANCH   9  12
HETATM   12  C9  UNL     1      25.501   2.568  51.074  1.00  0.00     0.119 C 
HETATM   13  C10 UNL     1      24.724   3.626  51.021  1.00  0.00     0.021 C 
BRANCH  13  14
HETATM   14  C11 UNL     1      23.558   3.967  51.798  1.00  0.00     0.022 C 
HETATM   15  C12 UNL     1      23.128   5.217  51.815  1.00  0.00     0.133 C 
BRANCH  15  16
HETATM   16  N2  UNL     1      23.895   6.138  51.028  1.00  0.00    -0.208 N 
HETATM   17  N3  UNL     1      23.782   6.302  49.649  1.00  0.00    -0.172 NA
HETATM   18  C13 UNL     1      24.763   6.994  49.177  1.00  0.00     0.129 C 
HETATM   19  C14 UNL     1      25.644   7.351  50.298  1.00  0.00     0.161 C 
HETATM   20  N4  UNL     1      24.873   7.025  51.460  1.00  0.00    -0.212 NA
HETATM   21  H16 UNL     1      24.437   7.875  51.853  1.00  0.00     0.149 HD
ENDBRANCH  15  16
ENDBRANCH  13  14
ENDBRANCH   9  12
ENDBRANCH   6   7
ENDBRANCH   5   6
ENDBRANCH   4   5
TORSDOF 6
ENDMDL
MODEL 6
REMARK VINA RESULT:      -5.8      3.486      7.403
REMARK  6 active torsions:
REMARK  status: ('A' for Active; 'I' for Inactive)
REMARK    1  A    between atoms: C4_4  and  C5_5 
REMARK    2  A    between atoms: C5_5  and  C6_6 
REMARK    3  A    between atoms: C6_6  and  C7_7 
REMARK    4  A    between atoms: N1_9  and  C9_10 
REMARK    5  A    between atoms: C10_11  and  C11_12 
REMARK    6  A    between atoms: C12_13  and  N2_14 
ROOT
HETATM    1  C1  UNL     1      26.816  -2.233  52.328  1.00  0.00     0.017 C 
HETATM    2  C2  UNL     1      27.706  -1.581  52.822  1.00  0.00    -0.090 C 
HETATM    3  C3  UNL     1      28.777  -0.824  53.407  1.00  0.00     0.059 C 
HETATM    4  C4  UNL     1      28.456   0.075  54.322  1.00  0.00    -0.018 C 
ENDROOT
BRANCH   4   5
HETATM    5  C5  UNL     1      27.052   0.317  54.749  1.00  0.00     0.034 C 
BRANCH   5   6
HETATM    6  C6  UNL     1      26.456   1.539  54.084  1.00  0.00     0.066 C 
BRANCH   6   7
HETATM    7  C7  UNL     1      25.194   1.113  53.406  1.00  0.00     0.076 A 
HETATM    8  C8  UNL     1      24.533   1.690  52.344  1.00  0.00     0.148 A 
HETATM    9  N1  UNL     1      23.426   1.014  52.017  1.00  0.00    -0.236 N 
HETATM   10  N5  UNL     1      23.377   0.008  52.867  1.00  0.00    -0.062 NA
HETATM   11  N6  UNL     1      24.407   0.063  53.678  1.00  0.00    -0.135 NA
BRANCH   9  12
HETATM   12  C9  UNL     1      22.487   1.285  50.996  1.00  0.00     0.119 C 
HETATM   13  C10 UNL     1      21.222   0.953  50.867  1.00  0.00     0.021 C 
BRANCH  13  14
HETATM   14  C11 UNL     1      20.364   0.190  51.739  1.00  0.00     0.022 C 
HETATM   15  C12 UNL     1      19.190   0.682  52.093  1.00  0.00     0.133 C 
BRANCH  15  16
HETATM   16  N2  UNL     1      18.880   1.973  51.552  1.00  0.00    -0.208 N 
HETATM   17  N3  UNL     1      18.168   2.199  50.375  1.00  0.00    -0.172 NA
HETATM   18  C13 UNL     1      18.267   3.428  49.996  1.00  0.00     0.129 C 
HETATM   19  C14 UNL     1      19.111   4.134  50.970  1.00  0.00     0.161 C 
HETATM   20  N4  UNL     1      19.211   3.220  52.068  1.00  0.00    -0.212 NA
HETATM   21  H16 UNL     1      18.551   3.484  52.817  1.00  0.00     0.149 HD
ENDBRANCH  15  16
ENDBRANCH  13  14
ENDBRANCH   9  12
ENDBRANCH   6   7
ENDBRANCH   5   6
ENDBRANCH   4   5
TORSDOF 6
ENDMDL
MODEL 7
REMARK VINA RESULT:      -5.8      1.665      2.429
REMARK  6 active torsions:
REMARK  status: ('A' for Active; 'I' for Inactive)
REMARK    1  A    between atoms: C4_4  and  C5_5 
REMARK    2  A    between atoms: C5_5  and  C6_6 
REMARK    3  A    between atoms: C6_6  and  C7_7 
REMARK    4  A    between atoms: N1_9  and  C9_10 
REMARK    5  A    between atoms: C10_11  and  C11_12 
REMARK    6  A    between atoms: C12_13  and  N2_14 
ROOT
HETATM    1  C1  UNL     1      26.743   8.265  46.778  1.00  0.00     0.017 C 
HETATM    2  C2  UNL     1      25.782   8.256  47.511  1.00  0.00    -0.090 C 
HETATM    3  C3  UNL     1      24.637   8.268  48.379  1.00  0.00     0.059 C 
HETATM    4  C4  UNL     1      24.626   7.403  49.380  1.00  0.00    -0.018 C 
ENDROOT
BRANCH   4   5
HETATM    5  C5  UNL     1      25.738   6.445  49.624  1.00  0.00     0.034 C 
BRANCH   5   6
HETATM    6  C6  UNL     1      25.435   5.068  49.072  1.00  0.00     0.066 C 
BRANCH   6   7
HETATM    7  C7  UNL     1      25.798   4.071  50.124  1.00  0.00     0.076 A 
HETATM    8  C8  UNL     1      25.109   3.705  51.258  1.00  0.00     0.148 A 
HETATM    9  N1  UNL     1      25.760   2.772  51.961  1.00  0.00    -0.236 N 
HETATM   10  N5  UNL     1      26.865   2.541  51.280  1.00  0.00    -0.062 NA
HETATM   11  N6  UNL     1      26.890   3.298  50.208  1.00  0.00    -0.135 NA
BRANCH   9  12
HETATM   12  C9  UNL     1      25.385   2.146  53.172  1.00  0.00     0.119 C 
HETATM   13  C10 UNL     1      25.186   0.882  53.472  1.00  0.00     0.021 C 
BRANCH  13  14
HETATM   14  C11 UNL     1      25.285  -0.299  52.650  1.00  0.00     0.022 C 
HETATM   15  C12 UNL     1      26.443  -0.928  52.550  1.00  0.00     0.133 C 
BRANCH  15  16
HETATM   16  N2  UNL     1      27.521  -0.349  53.297  1.00  0.00    -0.208 N 
HETATM   17  N3  UNL     1      27.785  -0.593  54.644  1.00  0.00    -0.172 NA
HETATM   18  C13 UNL     1      28.638   0.252  55.115  1.00  0.00     0.129 C 
HETATM   19  C14 UNL     1      29.011   1.169  54.029  1.00  0.00     0.161 C 
HETATM   20  N4  UNL     1      28.490   0.542  52.851  1.00  0.00    -0.212 NA
HETATM   21  H16 UNL     1      29.238   0.036  52.350  1.00  0.00     0.149 HD
ENDBRANCH  15  16
ENDBRANCH  13  14
ENDBRANCH   9  12
ENDBRANCH   6   7
ENDBRANCH   5   6
ENDBRANCH   4   5
TORSDOF 6
ENDMDL
MODEL 8
REMARK VINA RESULT:      -5.7      3.257      5.792
REMARK  6 active torsions:
REMARK  status: ('A' for Active; 'I' for Inactive)
REMARK    1  A    between atoms: C4_4  and  C5_5 
REMARK    2  A    between atoms: C5_5  and  C6_6 
REMARK    3  A    between atoms: C6_6  and  C7_7 
REMARK    4  A    between atoms: N1_9  and  C9_10 
REMARK    5  A    between atoms: C10_11  and  C11_12 
REMARK    6  A    between atoms: C12_13  and  N2_14 
ROOT
HETATM    1  C1  UNL     1      26.414   2.446  51.052  1.00  0.00     0.017 C 
HETATM    2  C2  UNL     1      27.058   2.033  51.988  1.00  0.00    -0.090 C 
HETATM    3  C3  UNL     1      27.841   1.550  53.091  1.00  0.00     0.059 C 
HETATM    4  C4  UNL     1      27.408   0.466  53.714  1.00  0.00    -0.018 C 
ENDROOT
BRANCH   4   5
HETATM    5  C5  UNL     1      26.165  -0.246  53.312  1.00  0.00     0.034 C 
BRANCH   5   6
HETATM    6  C6  UNL     1      25.432  -0.828  54.502  1.00  0.00     0.066 C 
BRANCH   6   7
HETATM    7  C7  UNL     1      23.970  -0.617  54.278  1.00  0.00     0.076 A 
HETATM    8  C8  UNL     1      23.332   0.261  53.432  1.00  0.00     0.148 A 
HETATM    9  N1  UNL     1      22.001   0.156  53.511  1.00  0.00    -0.236 N 
HETATM   10  N5  UNL     1      21.786  -0.788  54.406  1.00  0.00    -0.062 NA
HETATM   11  N6  UNL     1      22.932  -1.241  54.855  1.00  0.00    -0.135 NA
BRANCH   9  12
HETATM   12  C9  UNL     1      21.007   0.878  52.810  1.00  0.00     0.119 C 
HETATM   13  C10 UNL     1      20.938   1.271  51.558  1.00  0.00     0.021 C 
BRANCH  13  14
HETATM   14  C11 UNL     1      21.869   1.092  50.471  1.00  0.00     0.022 C 
HETATM   15  C12 UNL     1      22.676   2.083  50.134  1.00  0.00     0.133 C 
BRANCH  15  16
HETATM   16  N2  UNL     1      22.535   3.278  50.914  1.00  0.00    -0.208 N 
HETATM   17  N3  UNL     1      21.658   4.324  50.627  1.00  0.00    -0.172 NA
HETATM   18  C13 UNL     1      21.929   5.369  51.333  1.00  0.00     0.129 C 
HETATM   19  C14 UNL     1      23.083   5.051  52.185  1.00  0.00     0.161 C 
HETATM   20  N4  UNL     1      23.215   3.630  52.073  1.00  0.00    -0.212 NA
HETATM   21  H16 UNL     1      22.793   3.162  52.892  1.00  0.00     0.149 HD
ENDBRANCH  15  16
ENDBRANCH  13  14
ENDBRANCH   9  12
ENDBRANCH   6   7
ENDBRANCH   5   6
ENDBRANCH   4   5
TORSDOF 6
ENDMDL
MODEL 9
REMARK VINA RESULT:      -5.6      7.568     10.690
REMARK  6 active torsions:
REMARK  status: ('A' for Active; 'I' for Inactive)
REMARK    1  A    between atoms: C4_4  and  C5_5 
REMARK    2  A    between atoms: C5_5  and  C6_6 
REMARK    3  A    between atoms: C6_6  and  C7_7 
REMARK    4  A    between atoms: N1_9  and  C9_10 
REMARK    5  A    between atoms: C10_11  and  C11_12 
REMARK    6  A    between atoms: C12_13  and  N2_14 
ROOT
HETATM    1  C1  UNL     1      35.278   5.547  48.699  1.00  0.00     0.017 C 
HETATM    2  C2  UNL     1      34.866   4.509  48.238  1.00  0.00    -0.090 C 
HETATM    3  C3  UNL     1      34.382   3.264  47.709  1.00  0.00     0.059 C 
HETATM    4  C4  UNL     1      34.522   3.061  46.409  1.00  0.00    -0.018 C 
ENDROOT
BRANCH   4   5
HETATM    5  C5  UNL     1      35.151   4.062  45.506  1.00  0.00     0.034 C 
BRANCH   5   6
HETATM    6  C6  UNL     1      34.229   4.471  44.378  1.00  0.00     0.066 C 
BRANCH   6   7
HETATM    7  C7  UNL     1      33.868   5.906  44.588  1.00  0.00     0.076 A 
HETATM    8  C8  UNL     1      33.022   6.468  45.518  1.00  0.00     0.148 A 
HETATM    9  N1  UNL     1      32.953   7.798  45.393  1.00  0.00    -0.236 N 
HETATM   10  N5  UNL     1      33.753   8.088  44.386  1.00  0.00    -0.062 NA
HETATM   11  N6  UNL     1      34.288   6.986  43.914  1.00  0.00    -0.135 NA
BRANCH   9  12
HETATM   12  C9  UNL     1      32.202   8.726  46.150  1.00  0.00     0.119 C 
HETATM   13  C10 UNL     1      32.117   8.924  47.446  1.00  0.00     0.021 C 
BRANCH  13  14
HETATM   14  C11 UNL     1      32.772   8.249  48.538  1.00  0.00     0.022 C 
HETATM   15  C12 UNL     1      32.067   7.471  49.341  1.00  0.00     0.133 C 
BRANCH  15  16
HETATM   16  N2  UNL     1      30.671   7.377  49.030  1.00  0.00    -0.208 N 
HETATM   17  N3  UNL     1      30.082   6.353  48.290  1.00  0.00    -0.172 NA
HETATM   18  C13 UNL     1      28.877   6.658  47.944  1.00  0.00     0.129 C 
HETATM   19  C14 UNL     1      28.581   7.997  48.473  1.00  0.00     0.161 C 
HETATM   20  N4  UNL     1      29.652   8.252  49.388  1.00  0.00    -0.212 NA
HETATM   21  H16 UNL     1      29.349   8.070  50.358  1.00  0.00     0.149 HD
ENDBRANCH  15  16
ENDBRANCH  13  14
ENDBRANCH   9  12
ENDBRANCH   6   7
ENDBRANCH   5   6
ENDBRANCH   4   5
TORSDOF 6
ENDMDL
