MODEL 1
REMARK VINA RESULT:     -10.5      0.000      0.000
REMARK  3 active torsions:
REMARK  status: ('A' for Active; 'I' for Inactive)
REMARK    1  A    between atoms: N2_7  and  C7_10 
REMARK    2  A    between atoms: C7_10  and  C8_11 
REMARK    3  A    between atoms: C7_10  and  N4_17 
ROOT
HETATM    1  O1  UNL     1      19.892   3.605  52.267  1.00  0.00    -0.269 OA
HETATM    2  C1  UNL     1      20.424   2.527  52.713  1.00  0.00     0.242 C 
HETATM    3  C2  UNL     1      20.429   1.215  53.388  1.00  0.00     0.085 C 
HETATM    4  C3  UNL     1      20.896   0.087  53.882  1.00  0.00     0.066 C 
HETATM    5  N1  UNL     1      22.200  -0.384  53.885  1.00  0.00    -0.248 NA
HETATM    6  C4  UNL     1      23.460  -0.871  54.231  1.00  0.00     0.358 A 
HETATM    7  N2  UNL     1      24.501  -0.231  53.610  1.00  0.00     0.083 N 
HETATM    8  C5  UNL     1      24.242   0.720  52.676  1.00  0.00     0.288 A 
HETATM    9  C6  UNL     1      25.492   1.134  52.287  1.00  0.00     0.070 A 
HETATM   10  C7  UNL     1      25.458   0.150  53.247  1.00  0.00     0.256 A 
HETATM   11  N4  UNL     1      24.693  -0.591  53.964  1.00  0.00    -0.036 NA
HETATM   12  C13 UNL     1      25.078   2.153  51.298  1.00  0.00     0.025 C 
HETATM   13  C14 UNL     1      24.172   3.200  51.919  1.00  0.00    -0.012 C 
HETATM   14  C15 UNL     1      23.484   4.094  51.181  1.00  0.00    -0.044 C 
HETATM   15  C16 UNL     1      24.030   4.872  50.074  1.00  0.00     0.004 C 
HETATM   16  C17 UNL     1      25.224   4.671  49.482  1.00  0.00    -0.026 C 
HETATM   17  C18 UNL     1      26.206   3.603  49.565  1.00  0.00     0.028 C 
HETATM   18  C19 UNL     1      26.326   2.807  50.776  1.00  0.00     0.013 C 
HETATM   19  C20 UNL     1      22.024   4.392  51.405  1.00  0.00     0.161 C 
HETATM   20  N5  UNL     1      21.432   3.300  52.097  1.00  0.00    -0.353 N 
HETATM   21  H3  UNL     1      22.322  -0.532  54.941  1.00  0.00     0.131 HD
HETATM   22  H19 UNL     1      22.205   2.662  52.304  1.00  0.00     0.163 HD
ENDROOT
BRANCH  10  23
HETATM   23  C8  UNL     1      26.867  -0.167  53.576  1.00  0.00     0.013 A 
HETATM   24  C9  UNL     1      27.531  -1.174  52.867  1.00  0.00     0.014 A 
HETATM   25  C10 UNL     1      28.861  -1.550  53.101  1.00  0.00     0.020 A 
HETATM   26  C11 UNL     1      29.506  -0.853  54.101  1.00  0.00     0.116 A 
HETATM   27  N3  UNL     1      28.884   0.109  54.786  1.00  0.00    -0.272 NA
HETATM   28  C12 UNL     1      27.609   0.470  54.561  1.00  0.00     0.127 A 
ENDBRANCH  10  23
TORSDOF 3
ENDMDL
MODEL 2
REMARK VINA RESULT:     -10.4      1.771      4.316
REMARK  3 active torsions:
REMARK  status: ('A' for Active; 'I' for Inactive)
REMARK    1  A    between atoms: N2_7  and  C7_10 
REMARK    2  A    between atoms: C7_10  and  C8_11 
REMARK    3  A    between atoms: C7_10  and  N4_17 
ROOT
HETATM    1  O1  UNL     1      20.933   4.104  50.441  1.00  0.00    -0.269 OA
HETATM    2  C1  UNL     1      22.212   4.058  50.529  1.00  0.00     0.242 C 
HETATM    3  C2  UNL     1      23.588   4.537  50.302  1.00  0.00     0.085 C 
HETATM    4  C3  UNL     1      24.904   4.560  50.339  1.00  0.00     0.066 C 
HETATM    5  N1  UNL     1      25.773   3.640  50.907  1.00  0.00    -0.248 NA
HETATM    6  C4  UNL     1      26.777   2.706  51.156  1.00  0.00     0.358 A 
HETATM    7  N2  UNL     1      26.364   1.614  51.875  1.00  0.00     0.083 N 
HETATM    8  C5  UNL     1      25.095   1.568  52.354  1.00  0.00     0.288 A 
HETATM    9  C6  UNL     1      25.041   0.357  53.000  1.00  0.00     0.070 A 
HETATM   10  C7  UNL     1      26.243   0.669  52.411  1.00  0.00     0.256 A 
HETATM   11  N4  UNL     1      26.880   1.549  51.726  1.00  0.00    -0.036 NA
HETATM   12  C13 UNL     1      23.635   0.424  53.456  1.00  0.00     0.025 C 
HETATM   13  C14 UNL     1      22.679   0.624  52.295  1.00  0.00    -0.012 C 
HETATM   14  C15 UNL     1      21.381   0.943  52.471  1.00  0.00    -0.044 C 
HETATM   15  C16 UNL     1      20.477   0.304  53.422  1.00  0.00     0.004 C 
HETATM   16  C17 UNL     1      20.838  -0.539  54.409  1.00  0.00    -0.026 C 
HETATM   17  C18 UNL     1      22.125  -0.919  54.970  1.00  0.00     0.028 C 
HETATM   18  C19 UNL     1      23.326  -0.871  54.152  1.00  0.00     0.013 C 
HETATM   19  C20 UNL     1      20.694   2.038  51.697  1.00  0.00     0.161 C 
HETATM   20  N5  UNL     1      21.677   2.933  51.194  1.00  0.00    -0.353 N 
HETATM   21  H3  UNL     1      26.368   3.416  50.042  1.00  0.00     0.131 HD
HETATM   22  H19 UNL     1      22.576   2.516  51.450  1.00  0.00     0.163 HD
ENDROOT
BRANCH  10  23
HETATM   23  C8  UNL     1      27.152  -0.470  52.675  1.00  0.00     0.013 A 
HETATM   24  C9  UNL     1      28.398  -0.235  53.267  1.00  0.00     0.014 A 
HETATM   25  C10 UNL     1      29.328  -1.242  53.560  1.00  0.00     0.020 A 
HETATM   26  C11 UNL     1      28.941  -2.522  53.222  1.00  0.00     0.116 A 
HETATM   27  N3  UNL     1      27.756  -2.760  52.656  1.00  0.00    -0.272 NA
HETATM   28  C12 UNL     1      26.863  -1.795  52.377  1.00  0.00     0.127 A 
ENDBRANCH  10  23
TORSDOF 3
ENDMDL
MODEL 3
REMARK VINA RESULT:      -9.8      1.943      4.343
REMARK  3 active torsions:
REMARK  status: ('A' for Active; 'I' for Inactive)
REMARK    1  A    between atoms: N2_7  and  C7_10 
REMARK    2  A    between atoms: C7_10  and  C8_11 
REMARK    3  A    between atoms: C7_10  and  N4_17 
ROOT
HETATM    1  O1  UNL     1      20.440   2.573  49.195  1.00  0.00    -0.269 OA
HETATM    2  C1  UNL     1      21.668   2.906  49.355  1.00  0.00     0.242 C 
HETATM    3  C2  UNL     1      22.891   3.687  49.087  1.00  0.00     0.085 C 
HETATM    4  C3  UNL     1      24.142   4.085  49.183  1.00  0.00     0.066 C 
HETATM    5  N1  UNL     1      25.148   3.596  50.004  1.00  0.00    -0.248 NA
HETATM    6  C4  UNL     1      26.323   3.060  50.527  1.00  0.00     0.358 A 
HETATM    7  N2  UNL     1      26.127   2.087  51.472  1.00  0.00     0.083 N 
HETATM    8  C5  UNL     1      24.866   1.796  51.883  1.00  0.00     0.288 A 
HETATM    9  C6  UNL     1      25.053   0.795  52.805  1.00  0.00     0.070 A 
HETATM   10  C7  UNL     1      26.193   1.291  52.218  1.00  0.00     0.256 A 
HETATM   11  N4  UNL     1      26.655   2.137  51.369  1.00  0.00    -0.036 NA
HETATM   12  C13 UNL     1      23.635   0.567  53.158  1.00  0.00     0.025 C 
HETATM   13  C14 UNL     1      22.801   0.227  51.937  1.00  0.00    -0.012 C 
HETATM   14  C15 UNL     1      21.453   0.201  51.963  1.00  0.00    -0.044 C 
HETATM   15  C16 UNL     1      20.642  -0.434  52.996  1.00  0.00     0.004 C 
HETATM   16  C17 UNL     1      21.092  -0.900  54.178  1.00  0.00    -0.026 C 
HETATM   17  C18 UNL     1      22.359  -0.769  54.879  1.00  0.00     0.028 C 
HETATM   18  C19 UNL     1      23.593  -0.572  54.136  1.00  0.00     0.013 C 
HETATM   19  C20 UNL     1      20.600   0.859  50.909  1.00  0.00     0.161 C 
HETATM   20  N5  UNL     1      21.370   1.856  50.251  1.00  0.00    -0.353 N 
HETATM   21  H3  UNL     1      25.876   3.359  49.253  1.00  0.00     0.131 HD
HETATM   22  H19 UNL     1      22.311   1.775  50.646  1.00  0.00     0.163 HD
ENDROOT
BRANCH  10  23
HETATM   23  C8  UNL     1      27.329   0.540  52.801  1.00  0.00     0.013 A 
HETATM   24  C9  UNL     1      27.420  -0.841  52.597  1.00  0.00     0.014 A 
HETATM   25  C10 UNL     1      28.454  -1.641  53.104  1.00  0.00     0.020 A 
HETATM   26  C11 UNL     1      29.410  -0.976  53.843  1.00  0.00     0.116 A 
HETATM   27  N3  UNL     1      29.334   0.341  54.046  1.00  0.00    -0.272 NA
HETATM   28  C12 UNL     1      28.344   1.109  53.559  1.00  0.00     0.127 A 
ENDBRANCH  10  23
TORSDOF 3
ENDMDL
MODEL 4
REMARK VINA RESULT:      -9.6      2.447      5.298
REMARK  3 active torsions:
REMARK  status: ('A' for Active; 'I' for Inactive)
REMARK    1  A    between atoms: N2_7  and  C7_10 
REMARK    2  A    between atoms: C7_10  and  C8_11 
REMARK    3  A    between atoms: C7_10  and  N4_17 
ROOT
HETATM    1  O1  UNL     1      21.891  -1.749  55.329  1.00  0.00    -0.269 OA
HETATM    2  C1  UNL     1      23.030  -1.268  54.986  1.00  0.00     0.242 C 
HETATM    3  C2  UNL     1      24.490  -1.085  55.081  1.00  0.00     0.085 C 
HETATM    4  C3  UNL     1      25.694  -0.633  54.799  1.00  0.00     0.066 C 
HETATM    5  N1  UNL     1      26.075   0.268  53.815  1.00  0.00    -0.248 NA
HETATM    6  C4  UNL     1      26.588   1.347  53.097  1.00  0.00     0.358 A 
HETATM    7  N2  UNL     1      25.725   1.865  52.166  1.00  0.00     0.083 N 
HETATM    8  C5  UNL     1      24.528   1.260  51.951  1.00  0.00     0.288 A 
HETATM    9  C6  UNL     1      23.946   2.039  50.982  1.00  0.00     0.070 A 
HETATM   10  C7  UNL     1      25.197   2.432  51.395  1.00  0.00     0.256 A 
HETATM   11  N4  UNL     1      26.174   2.165  52.185  1.00  0.00    -0.036 NA
HETATM   12  C13 UNL     1      22.674   1.297  50.851  1.00  0.00     0.025 C 
HETATM   13  C14 UNL     1      21.944   1.195  52.178  1.00  0.00    -0.012 C 
HETATM   14  C15 UNL     1      20.888   0.379  52.365  1.00  0.00    -0.044 C 
HETATM   15  C16 UNL     1      19.756   0.243  51.455  1.00  0.00     0.004 C 
HETATM   16  C17 UNL     1      19.686   0.738  50.203  1.00  0.00    -0.026 C 
HETATM   17  C18 UNL     1      20.670   1.334  49.314  1.00  0.00     0.028 C 
HETATM   18  C19 UNL     1      21.821   2.035  49.858  1.00  0.00     0.013 C 
HETATM   19  C20 UNL     1      20.756  -0.530  53.560  1.00  0.00     0.161 C 
HETATM   20  N5  UNL     1      22.045  -0.747  54.118  1.00  0.00    -0.353 N 
HETATM   21  H3  UNL     1      26.565   0.995  54.434  1.00  0.00     0.131 HD
HETATM   22  H19 UNL     1      22.677  -0.151  53.576  1.00  0.00     0.163 HD
ENDROOT
BRANCH  10  23
HETATM   23  C8  UNL     1      25.538   3.645  50.617  1.00  0.00     0.013 A 
HETATM   24  C9  UNL     1      26.582   3.597  49.687  1.00  0.00     0.014 A 
HETATM   25  C10 UNL     1      26.982   4.687  48.901  1.00  0.00     0.020 A 
HETATM   26  C11 UNL     1      26.270   5.852  49.098  1.00  0.00     0.116 A 
HETATM   27  N3  UNL     1      25.272   5.911  49.983  1.00  0.00    -0.272 NA
HETATM   28  C12 UNL     1      24.888   4.866  50.735  1.00  0.00     0.127 A 
ENDBRANCH  10  23
TORSDOF 3
ENDMDL
MODEL 5
REMARK VINA RESULT:      -9.3      2.366      5.433
REMARK  3 active torsions:
REMARK  status: ('A' for Active; 'I' for Inactive)
REMARK    1  A    between atoms: N2_7  and  C7_10 
REMARK    2  A    between atoms: C7_10  and  C8_11 
REMARK    3  A    between atoms: C7_10  and  N4_17 
ROOT
HETATM    1  O1  UNL     1      20.238  -0.758  53.593  1.00  0.00    -0.269 OA
HETATM    2  C1  UNL     1      20.279   0.380  53.002  1.00  0.00     0.242 C 
HETATM    3  C2  UNL     1      19.705   1.573  52.351  1.00  0.00     0.085 C 
HETATM    4  C3  UNL     1      19.658   2.735  51.733  1.00  0.00     0.066 C 
HETATM    5  N1  UNL     1      20.709   3.547  51.333  1.00  0.00    -0.248 NA
HETATM    6  C4  UNL     1      21.615   4.330  50.619  1.00  0.00     0.358 A 
HETATM    7  N2  UNL     1      22.931   4.063  50.897  1.00  0.00     0.083 N 
HETATM    8  C5  UNL     1      23.243   3.169  51.871  1.00  0.00     0.288 A 
HETATM    9  C6  UNL     1      24.616   3.156  51.864  1.00  0.00     0.070 A 
HETATM   10  C7  UNL     1      24.020   3.998  50.955  1.00  0.00     0.256 A 
HETATM   11  N4  UNL     1      22.899   4.429  50.500  1.00  0.00    -0.036 NA
HETATM   12  C13 UNL     1      24.822   2.158  52.936  1.00  0.00     0.025 C 
HETATM   13  C14 UNL     1      24.122   0.848  52.624  1.00  0.00    -0.012 C 
HETATM   14  C15 UNL     1      23.969  -0.130  53.540  1.00  0.00    -0.044 C 
HETATM   15  C16 UNL     1      25.014  -0.619  54.432  1.00  0.00     0.004 C 
HETATM   16  C17 UNL     1      26.215  -0.041  54.634  1.00  0.00    -0.026 C 
HETATM   17  C18 UNL     1      26.774   1.245  54.252  1.00  0.00     0.028 C 
HETATM   18  C19 UNL     1      26.301   1.927  53.058  1.00  0.00     0.013 C 
HETATM   19  C20 UNL     1      22.660  -0.840  53.770  1.00  0.00     0.161 C 
HETATM   20  N5  UNL     1      21.602  -0.023  53.286  1.00  0.00    -0.353 N 
HETATM   21  H3  UNL     1      20.472   3.625  50.289  1.00  0.00     0.131 HD
HETATM   22  H19 UNL     1      22.061   0.782  52.851  1.00  0.00     0.163 HD
ENDROOT
BRANCH  10  23
HETATM   23  C8  UNL     1      25.116   4.661  50.212  1.00  0.00     0.013 A 
HETATM   24  C9  UNL     1      26.103   3.882  49.599  1.00  0.00     0.014 A 
HETATM   25  C10 UNL     1      27.180   4.411  48.873  1.00  0.00     0.020 A 
HETATM   26  C11 UNL     1      27.220   5.787  48.792  1.00  0.00     0.116 A 
HETATM   27  N3  UNL     1      26.285   6.542  49.373  1.00  0.00    -0.272 NA
HETATM   28  C12 UNL     1      25.252   6.035  50.068  1.00  0.00     0.127 A 
ENDBRANCH  10  23
TORSDOF 3
ENDMDL
MODEL 6
REMARK VINA RESULT:      -9.2      2.000      4.572
REMARK  3 active torsions:
REMARK  status: ('A' for Active; 'I' for Inactive)
REMARK    1  A    between atoms: N2_7  and  C7_10 
REMARK    2  A    between atoms: C7_10  and  C8_11 
REMARK    3  A    between atoms: C7_10  and  N4_17 
ROOT
HETATM    1  O1  UNL     1      18.561   3.812  50.470  1.00  0.00    -0.269 OA
HETATM    2  C1  UNL     1      19.760   4.105  50.817  1.00  0.00     0.242 C 
HETATM    3  C2  UNL     1      20.933   4.987  50.967  1.00  0.00     0.085 C 
HETATM    4  C3  UNL     1      22.153   5.369  51.285  1.00  0.00     0.066 C 
HETATM    5  N1  UNL     1      23.171   4.626  51.865  1.00  0.00    -0.248 NA
HETATM    6  C4  UNL     1      24.368   3.978  52.164  1.00  0.00     0.358 A 
HETATM    7  N2  UNL     1      24.217   2.684  52.591  1.00  0.00     0.083 N 
HETATM    8  C5  UNL     1      22.969   2.181  52.777  1.00  0.00     0.288 A 
HETATM    9  C6  UNL     1      23.203   0.892  53.190  1.00  0.00     0.070 A 
HETATM   10  C7  UNL     1      24.320   1.649  52.927  1.00  0.00     0.256 A 
HETATM   11  N4  UNL     1      24.743   2.800  52.545  1.00  0.00    -0.036 NA
HETATM   12  C13 UNL     1      21.796   0.462  53.343  1.00  0.00     0.025 C 
HETATM   13  C14 UNL     1      21.013   0.638  52.055  1.00  0.00    -0.012 C 
HETATM   14  C15 UNL     1      19.670   0.535  52.003  1.00  0.00    -0.044 C 
HETATM   15  C16 UNL     1      18.881  -0.524  52.625  1.00  0.00     0.004 C 
HETATM   16  C17 UNL     1      19.335  -1.428  53.514  1.00  0.00    -0.026 C 
HETATM   17  C18 UNL     1      20.575  -1.548  54.263  1.00  0.00     0.028 C 
HETATM   18  C19 UNL     1      21.809  -0.988  53.737  1.00  0.00     0.013 C 
HETATM   19  C20 UNL     1      18.798   1.537  51.292  1.00  0.00     0.161 C 
HETATM   20  N5  UNL     1      19.514   2.758  51.161  1.00  0.00    -0.353 N 
HETATM   21  H3  UNL     1      23.930   4.772  51.121  1.00  0.00     0.131 HD
HETATM   22  H19 UNL     1      20.449   2.563  51.529  1.00  0.00     0.163 HD
ENDROOT
BRANCH  10  23
HETATM   23  C8  UNL     1      25.490   0.780  53.187  1.00  0.00     0.013 A 
HETATM   24  C9  UNL     1      25.978  -0.043  52.166  1.00  0.00     0.014 A 
HETATM   25  C10 UNL     1      27.078  -0.901  52.310  1.00  0.00     0.020 A 
HETATM   26  C11 UNL     1      27.677  -0.893  53.552  1.00  0.00     0.116 A 
HETATM   27  N3  UNL     1      27.221  -0.114  54.535  1.00  0.00    -0.272 NA
HETATM   28  C12 UNL     1      26.167   0.709  54.397  1.00  0.00     0.127 A 
ENDBRANCH  10  23
TORSDOF 3
ENDMDL
MODEL 7
REMARK VINA RESULT:      -9.2      2.598      6.660
REMARK  3 active torsions:
REMARK  status: ('A' for Active; 'I' for Inactive)
REMARK    1  A    between atoms: N2_7  and  C7_10 
REMARK    2  A    between atoms: C7_10  and  C8_11 
REMARK    3  A    between atoms: C7_10  and  N4_17 
ROOT
HETATM    1  O1  UNL     1      24.925  -1.495  55.580  1.00  0.00    -0.269 OA
HETATM    2  C1  UNL     1      25.450  -0.782  54.653  1.00  0.00     0.242 C 
HETATM    3  C2  UNL     1      26.563  -0.204  53.876  1.00  0.00     0.085 C 
HETATM    4  C3  UNL     1      27.183   0.509  52.958  1.00  0.00     0.066 C 
HETATM    5  N1  UNL     1      26.637   1.327  51.980  1.00  0.00    -0.248 NA
HETATM    6  C4  UNL     1      26.292   2.389  51.145  1.00  0.00     0.358 A 
HETATM    7  N2  UNL     1      24.944   2.518  50.927  1.00  0.00     0.083 N 
HETATM    8  C5  UNL     1      24.091   1.592  51.434  1.00  0.00     0.288 A 
HETATM    9  C6  UNL     1      22.857   2.039  51.030  1.00  0.00     0.070 A 
HETATM   10  C7  UNL     1      23.929   2.807  50.642  1.00  0.00     0.256 A 
HETATM   11  N4  UNL     1      25.207   2.927  50.691  1.00  0.00    -0.036 NA
HETATM   12  C13 UNL     1      22.036   0.972  51.642  1.00  0.00     0.025 C 
HETATM   13  C14 UNL     1      22.272   0.872  53.138  1.00  0.00    -0.012 C 
HETATM   14  C15 UNL     1      21.820  -0.162  53.876  1.00  0.00    -0.044 C 
HETATM   15  C16 UNL     1      20.476  -0.724  53.805  1.00  0.00     0.004 C 
HETATM   16  C17 UNL     1      19.556  -0.452  52.859  1.00  0.00    -0.026 C 
HETATM   17  C18 UNL     1      19.616   0.251  51.588  1.00  0.00     0.028 C 
HETATM   18  C19 UNL     1      20.595   1.305  51.377  1.00  0.00     0.013 C 
HETATM   19  C20 UNL     1      22.678  -0.891  54.878  1.00  0.00     0.161 C 
HETATM   20  N5  UNL     1      24.046  -0.673  54.557  1.00  0.00    -0.353 N 
HETATM   21  H3  UNL     1      27.147   2.240  52.221  1.00  0.00     0.131 HD
HETATM   22  H19 UNL     1      24.037  -0.014  53.774  1.00  0.00     0.163 HD
ENDROOT
BRANCH  10  23
HETATM   23  C8  UNL     1      23.378   3.942  49.867  1.00  0.00     0.013 A 
HETATM   24  C9  UNL     1      23.077   3.769  48.512  1.00  0.00     0.014 A 
HETATM   25  C10 UNL     1      22.551   4.778  47.691  1.00  0.00     0.020 A 
HETATM   26  C11 UNL     1      22.340   5.993  48.309  1.00  0.00     0.116 A 
HETATM   27  N3  UNL     1      22.624   6.171  49.601  1.00  0.00    -0.272 NA
HETATM   28  C12 UNL     1      23.126   5.204  50.387  1.00  0.00     0.127 A 
ENDBRANCH  10  23
TORSDOF 3
ENDMDL
MODEL 8
REMARK VINA RESULT:      -9.0      1.969      2.787
REMARK  3 active torsions:
REMARK  status: ('A' for Active; 'I' for Inactive)
REMARK    1  A    between atoms: N2_7  and  C7_10 
REMARK    2  A    between atoms: C7_10  and  C8_11 
REMARK    3  A    between atoms: C7_10  and  N4_17 
ROOT
HETATM    1  O1  UNL     1      20.698   5.947  48.779  1.00  0.00    -0.269 OA
HETATM    2  C1  UNL     1      20.807   4.808  49.356  1.00  0.00     0.242 C 
HETATM    3  C2  UNL     1      20.310   3.540  49.925  1.00  0.00     0.085 C 
HETATM    4  C3  UNL     1      20.334   2.365  50.518  1.00  0.00     0.066 C 
HETATM    5  N1  UNL     1      21.424   1.669  51.021  1.00  0.00    -0.248 NA
HETATM    6  C4  UNL     1      22.333   0.978  51.820  1.00  0.00     0.358 A 
HETATM    7  N2  UNL     1      23.631   1.401  51.692  1.00  0.00     0.083 N 
HETATM    8  C5  UNL     1      23.938   2.349  50.771  1.00  0.00     0.288 A 
HETATM    9  C6  UNL     1      25.292   2.521  50.929  1.00  0.00     0.070 A 
HETATM   10  C7  UNL     1      24.704   1.592  51.755  1.00  0.00     0.256 A 
HETATM   11  N4  UNL     1      23.599   1.024  52.078  1.00  0.00    -0.036 NA
HETATM   12  C13 UNL     1      25.493   3.563  49.899  1.00  0.00     0.025 C 
HETATM   13  C14 UNL     1      24.615   4.775  50.149  1.00  0.00    -0.012 C 
HETATM   14  C15 UNL     1      24.449   5.752  49.234  1.00  0.00    -0.044 C 
HETATM   15  C16 UNL     1      25.520   6.381  48.469  1.00  0.00     0.004 C 
HETATM   16  C17 UNL     1      26.794   5.951  48.393  1.00  0.00    -0.026 C 
HETATM   17  C18 UNL     1      27.456   4.728  48.818  1.00  0.00     0.028 C 
HETATM   18  C19 UNL     1      26.940   3.966  49.943  1.00  0.00     0.013 C 
HETATM   19  C20 UNL     1      23.098   6.312  48.870  1.00  0.00     0.161 C 
HETATM   20  N5  UNL     1      22.097   5.367  49.225  1.00  0.00    -0.353 N 
HETATM   21  H3  UNL     1      21.086   1.538  52.031  1.00  0.00     0.131 HD
HETATM   22  H19 UNL     1      22.597   4.609  49.697  1.00  0.00     0.163 HD
ENDROOT
BRANCH  10  23
HETATM   23  C8  UNL     1      25.784   1.041  52.606  1.00  0.00     0.013 A 
HETATM   24  C9  UNL     1      26.472  -0.104  52.190  1.00  0.00     0.014 A 
HETATM   25  C10 UNL     1      27.508  -0.704  52.920  1.00  0.00     0.020 A 
HETATM   26  C11 UNL     1      27.827  -0.086  54.112  1.00  0.00     0.116 A 
HETATM   27  N3  UNL     1      27.178   1.006  54.520  1.00  0.00    -0.272 NA
HETATM   28  C12 UNL     1      26.186   1.581  53.820  1.00  0.00     0.127 A 
ENDBRANCH  10  23
TORSDOF 3
ENDMDL
MODEL 9
REMARK VINA RESULT:      -8.7      1.895      2.334
REMARK  3 active torsions:
REMARK  status: ('A' for Active; 'I' for Inactive)
REMARK    1  A    between atoms: N2_7  and  C7_10 
REMARK    2  A    between atoms: C7_10  and  C8_11 
REMARK    3  A    between atoms: C7_10  and  N4_17 
ROOT
HETATM    1  O1  UNL     1      17.617   1.722  51.360  1.00  0.00    -0.269 OA
HETATM    2  C1  UNL     1      18.482   0.982  51.951  1.00  0.00     0.242 C 
HETATM    3  C2  UNL     1      18.931  -0.132  52.808  1.00  0.00     0.085 C 
HETATM    4  C3  UNL     1      19.752  -0.934  53.454  1.00  0.00     0.066 C 
HETATM    5  N1  UNL     1      21.137  -0.895  53.509  1.00  0.00    -0.248 NA
HETATM    6  C4  UNL     1      22.472  -0.840  53.907  1.00  0.00     0.358 A 
HETATM    7  N2  UNL     1      23.238   0.042  53.189  1.00  0.00     0.083 N 
HETATM    8  C5  UNL     1      22.693   0.695  52.130  1.00  0.00     0.288 A 
HETATM    9  C6  UNL     1      23.725   1.476  51.671  1.00  0.00     0.070 A 
HETATM   10  C7  UNL     1      24.008   0.690  52.763  1.00  0.00     0.256 A 
HETATM   11  N4  UNL     1      23.532  -0.171  53.588  1.00  0.00    -0.036 NA
HETATM   12  C13 UNL     1      23.013   2.129  50.552  1.00  0.00     0.025 C 
HETATM   13  C14 UNL     1      21.766   2.851  51.026  1.00  0.00    -0.012 C 
HETATM   14  C15 UNL     1      20.833   3.324  50.175  1.00  0.00    -0.044 C 
HETATM   15  C16 UNL     1      21.108   4.086  48.961  1.00  0.00     0.004 C 
HETATM   16  C17 UNL     1      22.318   4.252  48.390  1.00  0.00    -0.026 C 
HETATM   17  C18 UNL     1      23.615   3.635  48.615  1.00  0.00     0.028 C 
HETATM   18  C19 UNL     1      23.962   3.112  49.926  1.00  0.00     0.013 C 
HETATM   19  C20 UNL     1      19.356   3.100  50.371  1.00  0.00     0.161 C 
HETATM   20  N5  UNL     1      19.169   1.975  51.219  1.00  0.00    -0.353 N 
HETATM   21  H3  UNL     1      21.261  -0.841  54.574  1.00  0.00     0.131 HD
HETATM   22  H19 UNL     1      20.111   1.696  51.507  1.00  0.00     0.163 HD
ENDROOT
BRANCH  10  23
HETATM   23  C8  UNL     1      25.421   0.953  53.119  1.00  0.00     0.013 A 
HETATM   24  C9  UNL     1      26.411   0.045  52.729  1.00  0.00     0.014 A 
HETATM   25  C10 UNL     1      27.775   0.202  53.014  1.00  0.00     0.020 A 
HETATM   26  C11 UNL     1      28.104   1.337  53.725  1.00  0.00     0.116 A 
HETATM   27  N3  UNL     1      27.169   2.211  54.104  1.00  0.00    -0.272 NA
HETATM   28  C12 UNL     1      25.862   2.062  53.830  1.00  0.00     0.127 A 
ENDBRANCH  10  23
TORSDOF 3
ENDMDL
