MODEL 1
REMARK VINA RESULT:      -8.4      0.000      0.000
REMARK  3 active torsions:
REMARK  status: ('A' for Active; 'I' for Inactive)
REMARK    1  A    between atoms: C2_2  and  C3_3 
REMARK    2  A    between atoms: C10_12  and  N3_13 
REMARK    3  A    between atoms: N3_13  and  C11_14 
ROOT
HETATM    1  C3  UNL     1      26.533   2.160  51.497  1.00  0.00     0.053 C 
HETATM    2  C4  UNL     1      25.534   1.395  51.917  1.00  0.00     0.049 C 
HETATM    3  C5  UNL     1      25.416   0.622  53.147  1.00  0.00     0.023 A 
HETATM    4  C6  UNL     1      26.334   0.394  54.151  1.00  0.00     0.070 A 
HETATM    5  N1  UNL     1      26.078  -0.360  55.256  1.00  0.00    -0.259 NA
HETATM    6  C7  UNL     1      24.863  -0.936  55.414  1.00  0.00     0.142 A 
HETATM    7  C8  UNL     1      23.915  -0.733  54.432  1.00  0.00     0.089 A 
HETATM    8  C9  UNL     1      22.598  -1.321  54.544  1.00  0.00     0.103 C 
HETATM    9  N2  UNL     1      21.527  -1.793  54.632  1.00  0.00    -0.191 NA
HETATM   10  C10 UNL     1      24.174   0.038  53.302  1.00  0.00     0.067 A 
HETATM   11  C17 UNL     1      27.693   0.938  54.145  1.00  0.00     0.057 C 
HETATM   12  C18 UNL     1      28.282   1.782  53.311  1.00  0.00     0.144 C 
HETATM   13  O1  UNL     1      27.727   2.390  52.177  1.00  0.00    -0.327 OA
ENDROOT
BRANCH  10  14
HETATM   14  N3  UNL     1      23.180   0.231  52.305  1.00  0.00    -0.354 N 
HETATM   15  H8  UNL     1      23.503  -0.398  51.536  1.00  0.00     0.166 HD
BRANCH  14  16
HETATM   16  C11 UNL     1      22.016   1.028  52.237  1.00  0.00     0.033 A 
HETATM   17  C12 UNL     1      22.132   2.385  52.516  1.00  0.00     0.029 A 
HETATM   18  C13 UNL     1      20.950   3.092  52.428  1.00  0.00     0.004 A 
HETATM   19  C14 UNL     1      19.730   2.543  52.093  1.00  0.00     0.019 A 
HETATM   20  C15 UNL     1      19.682   1.175  51.824  1.00  0.00     0.013 A 
HETATM   21 BR1  UNL     1      18.007   0.374  51.355  1.00  0.00    -0.051 Br
HETATM   22  C16 UNL     1      20.829   0.413  51.896  1.00  0.00     0.048 A 
ENDBRANCH  14  16
ENDBRANCH  10  14
BRANCH   1  23
HETATM   23  C2  UNL     1      26.412   2.847  50.200  1.00  0.00     0.060 C 
HETATM   24  C1  UNL     1      25.027   3.260  49.832  1.00  0.00     0.012 C 
ENDBRANCH   1  23
TORSDOF 3
ENDMDL
MODEL 2
REMARK VINA RESULT:      -8.2      3.145      5.581
REMARK  3 active torsions:
REMARK  status: ('A' for Active; 'I' for Inactive)
REMARK    1  A    between atoms: C2_2  and  C3_3 
REMARK    2  A    between atoms: C10_12  and  N3_13 
REMARK    3  A    between atoms: N3_13  and  C11_14 
ROOT
HETATM    1  C3  UNL     1      24.275   2.906  50.035  1.00  0.00     0.053 C 
HETATM    2  C4  UNL     1      24.054   2.218  51.147  1.00  0.00     0.049 C 
HETATM    3  C5  UNL     1      22.938   1.343  51.485  1.00  0.00     0.023 A 
HETATM    4  C6  UNL     1      21.775   1.070  50.796  1.00  0.00     0.070 A 
HETATM    5  N1  UNL     1      20.810   0.219  51.242  1.00  0.00    -0.259 NA
HETATM    6  C7  UNL     1      20.966  -0.417  52.428  1.00  0.00     0.142 A 
HETATM    7  C8  UNL     1      22.117  -0.172  53.149  1.00  0.00     0.089 A 
HETATM    8  C9  UNL     1      22.342  -0.821  54.422  1.00  0.00     0.103 C 
HETATM    9  N2  UNL     1      22.531  -1.348  55.453  1.00  0.00    -0.191 NA
HETATM   10  C10 UNL     1      23.104   0.697  52.695  1.00  0.00     0.067 A 
HETATM   11  C17 UNL     1      21.441   1.667  49.501  1.00  0.00     0.057 C 
HETATM   12  C18 UNL     1      22.148   2.454  48.705  1.00  0.00     0.144 C 
HETATM   13  O1  UNL     1      23.449   2.933  48.912  1.00  0.00    -0.327 OA
ENDROOT
BRANCH  10  14
HETATM   14  N3  UNL     1      24.280   0.933  53.457  1.00  0.00    -0.354 N 
HETATM   15  H8  UNL     1      23.955   1.620  54.173  1.00  0.00     0.166 HD
BRANCH  14  16
HETATM   16  C11 UNL     1      25.601   0.439  53.380  1.00  0.00     0.033 A 
HETATM   17  C12 UNL     1      25.792  -0.858  52.919  1.00  0.00     0.029 A 
HETATM   18  C13 UNL     1      27.111  -1.263  52.874  1.00  0.00     0.004 A 
HETATM   19  C14 UNL     1      28.185  -0.481  53.245  1.00  0.00     0.019 A 
HETATM   20  C15 UNL     1      27.925   0.812  53.699  1.00  0.00     0.013 A 
HETATM   21 BR1  UNL     1      29.389   1.929  54.223  1.00  0.00    -0.051 Br
HETATM   22  C16 UNL     1      26.628   1.276  53.767  1.00  0.00     0.048 A 
ENDBRANCH  14  16
ENDBRANCH  10  14
BRANCH   1  23
HETATM   23  C2  UNL     1      25.492   3.730  49.933  1.00  0.00     0.060 C 
HETATM   24  C1  UNL     1      26.702   3.149  50.582  1.00  0.00     0.012 C 
ENDBRANCH   1  23
TORSDOF 3
ENDMDL
MODEL 3
REMARK VINA RESULT:      -8.2      3.082      5.115
REMARK  3 active torsions:
REMARK  status: ('A' for Active; 'I' for Inactive)
REMARK    1  A    between atoms: C2_2  and  C3_3 
REMARK    2  A    between atoms: C10_12  and  N3_13 
REMARK    3  A    between atoms: N3_13  and  C11_14 
ROOT
HETATM    1  C3  UNL     1      21.875  -0.352  52.830  1.00  0.00     0.053 C 
HETATM    2  C4  UNL     1      23.028   0.292  52.717  1.00  0.00     0.049 C 
HETATM    3  C5  UNL     1      24.237   0.169  53.522  1.00  0.00     0.023 A 
HETATM    4  C6  UNL     1      24.481  -0.566  54.664  1.00  0.00     0.070 A 
HETATM    5  N1  UNL     1      25.677  -0.583  55.314  1.00  0.00    -0.259 NA
HETATM    6  C7  UNL     1      26.713   0.150  54.843  1.00  0.00     0.142 A 
HETATM    7  C8  UNL     1      26.512   0.900  53.701  1.00  0.00     0.089 A 
HETATM    8  C9  UNL     1      27.580   1.704  53.148  1.00  0.00     0.103 C 
HETATM    9  N2  UNL     1      28.444   2.354  52.694  1.00  0.00    -0.191 NA
HETATM   10  C10 UNL     1      25.290   0.919  53.035  1.00  0.00     0.067 A 
HETATM   11  C17 UNL     1      23.478  -1.414  55.311  1.00  0.00     0.057 C 
HETATM   12  C18 UNL     1      22.248  -1.734  54.939  1.00  0.00     0.144 C 
HETATM   13  O1  UNL     1      21.570  -1.323  53.783  1.00  0.00    -0.327 OA
ENDROOT
BRANCH  10  14
HETATM   14  N3  UNL     1      25.109   1.700  51.861  1.00  0.00    -0.354 N 
HETATM   15  H8  UNL     1      25.302   1.013  51.098  1.00  0.00     0.166 HD
BRANCH  14  16
HETATM   16  C11 UNL     1      24.762   3.051  51.639  1.00  0.00     0.033 A 
HETATM   17  C12 UNL     1      23.836   3.640  52.492  1.00  0.00     0.029 A 
HETATM   18  C13 UNL     1      23.552   4.960  52.207  1.00  0.00     0.004 A 
HETATM   19  C14 UNL     1      24.115   5.679  51.172  1.00  0.00     0.019 A 
HETATM   20  C15 UNL     1      25.037   5.028  50.352  1.00  0.00     0.013 A 
HETATM   21 BR1  UNL     1      25.841   5.990  48.906  1.00  0.00    -0.051 Br
HETATM   22  C16 UNL     1      25.363   3.708  50.585  1.00  0.00     0.048 A 
ENDBRANCH  14  16
ENDBRANCH  10  14
BRANCH   1  23
HETATM   23  C2  UNL     1      20.788  -0.047  51.882  1.00  0.00     0.060 C 
HETATM   24  C1  UNL     1      21.217   0.651  50.636  1.00  0.00     0.012 C 
ENDBRANCH   1  23
TORSDOF 3
ENDMDL
MODEL 4
REMARK VINA RESULT:      -8.0      2.647      4.277
REMARK  3 active torsions:
REMARK  status: ('A' for Active; 'I' for Inactive)
REMARK    1  A    between atoms: C2_2  and  C3_3 
REMARK    2  A    between atoms: C10_12  and  N3_13 
REMARK    3  A    between atoms: N3_13  and  C11_14 
ROOT
HETATM    1  C3  UNL     1      25.637   0.079  54.062  1.00  0.00     0.053 C 
HETATM    2  C4  UNL     1      24.543   0.238  53.330  1.00  0.00     0.049 C 
HETATM    3  C5  UNL     1      23.178  -0.198  53.600  1.00  0.00     0.023 A 
HETATM    4  C6  UNL     1      22.673  -0.970  54.626  1.00  0.00     0.070 A 
HETATM    5  N1  UNL     1      21.357  -1.300  54.750  1.00  0.00    -0.259 NA
HETATM    6  C7  UNL     1      20.462  -0.863  53.833  1.00  0.00     0.142 A 
HETATM    7  C8  UNL     1      20.926  -0.087  52.790  1.00  0.00     0.089 A 
HETATM    8  C9  UNL     1      20.019   0.410  51.779  1.00  0.00     0.103 C 
HETATM    9  N2  UNL     1      19.286   0.819  50.959  1.00  0.00    -0.191 NA
HETATM   10  C10 UNL     1      22.270   0.252  52.661  1.00  0.00     0.067 A 
HETATM   11  C17 UNL     1      23.494  -1.526  55.702  1.00  0.00     0.057 C 
HETATM   12  C18 UNL     1      24.777  -1.355  55.986  1.00  0.00     0.144 C 
HETATM   13  O1  UNL     1      25.708  -0.566  55.296  1.00  0.00    -0.327 OA
ENDROOT
BRANCH  10  14
HETATM   14  N3  UNL     1      22.723   1.052  51.578  1.00  0.00    -0.354 N 
HETATM   15  H8  UNL     1      22.766   0.367  50.791  1.00  0.00     0.166 HD
BRANCH  14  16
HETATM   16  C11 UNL     1      23.062   2.418  51.456  1.00  0.00     0.033 A 
HETATM   17  C12 UNL     1      22.297   3.349  52.148  1.00  0.00     0.029 A 
HETATM   18  C13 UNL     1      22.693   4.659  51.976  1.00  0.00     0.004 A 
HETATM   19  C14 UNL     1      23.754   5.062  51.191  1.00  0.00     0.019 A 
HETATM   20  C15 UNL     1      24.482   4.077  50.523  1.00  0.00     0.013 A 
HETATM   21 BR1  UNL     1      25.962   4.594  49.425  1.00  0.00    -0.051 Br
HETATM   22  C16 UNL     1      24.135   2.749  50.654  1.00  0.00     0.048 A 
ENDBRANCH  14  16
ENDBRANCH  10  14
BRANCH   1  23
HETATM   23  C2  UNL     1      26.915   0.618  53.566  1.00  0.00     0.060 C 
HETATM   24  C1  UNL     1      26.896   1.082  52.149  1.00  0.00     0.012 C 
ENDBRANCH   1  23
TORSDOF 3
ENDMDL
MODEL 5
REMARK VINA RESULT:      -8.0      3.345      5.801
REMARK  3 active torsions:
REMARK  status: ('A' for Active; 'I' for Inactive)
REMARK    1  A    between atoms: C2_2  and  C3_3 
REMARK    2  A    between atoms: C10_12  and  N3_13 
REMARK    3  A    between atoms: N3_13  and  C11_14 
ROOT
HETATM    1  C3  UNL     1      21.313   1.480  49.247  1.00  0.00     0.053 C 
HETATM    2  C4  UNL     1      21.696   0.949  50.400  1.00  0.00     0.049 C 
HETATM    3  C5  UNL     1      20.883   0.404  51.481  1.00  0.00     0.023 A 
HETATM    4  C6  UNL     1      19.514   0.380  51.646  1.00  0.00     0.070 A 
HETATM    5  N1  UNL     1      18.889  -0.171  52.723  1.00  0.00    -0.259 NA
HETATM    6  C7  UNL     1      19.620  -0.740  53.710  1.00  0.00     0.142 A 
HETATM    7  C8  UNL     1      20.994  -0.738  53.584  1.00  0.00     0.089 A 
HETATM    8  C9  UNL     1      21.830  -1.331  54.605  1.00  0.00     0.103 C 
HETATM    9  N2  UNL     1      22.512  -1.813  55.429  1.00  0.00    -0.191 NA
HETATM   10  C10 UNL     1      21.636  -0.175  52.485  1.00  0.00     0.067 A 
HETATM   11  C17 UNL     1      18.572   0.948  50.680  1.00  0.00     0.057 C 
HETATM   12  C18 UNL     1      18.775   1.476  49.482  1.00  0.00     0.144 C 
HETATM   13  O1  UNL     1      19.997   1.631  48.813  1.00  0.00    -0.327 OA
ENDROOT
BRANCH  10  14
HETATM   14  N3  UNL     1      23.053  -0.185  52.379  1.00  0.00    -0.354 N 
HETATM   15  H8  UNL     1      23.232  -1.030  51.792  1.00  0.00     0.166 HD
BRANCH  14  16
HETATM   16  C11 UNL     1      24.069   0.657  52.882  1.00  0.00     0.033 A 
HETATM   17  C12 UNL     1      23.835   2.027  52.908  1.00  0.00     0.029 A 
HETATM   18  C13 UNL     1      24.876   2.778  53.413  1.00  0.00     0.004 A 
HETATM   19  C14 UNL     1      26.071   2.258  53.868  1.00  0.00     0.019 A 
HETATM   20  C15 UNL     1      26.243   0.875  53.815  1.00  0.00     0.013 A 
HETATM   21 BR1  UNL     1      27.885   0.113  54.438  1.00  0.00    -0.051 Br
HETATM   22  C16 UNL     1      25.238   0.069  53.321  1.00  0.00     0.048 A 
ENDBRANCH  14  16
ENDBRANCH  10  14
BRANCH   1  23
HETATM   23  C2  UNL     1      22.339   1.966  48.307  1.00  0.00     0.060 C 
HETATM   24  C1  UNL     1      23.327   2.918  48.891  1.00  0.00     0.012 C 
ENDBRANCH   1  23
TORSDOF 3
ENDMDL
MODEL 6
REMARK VINA RESULT:      -7.6      2.992      5.202
REMARK  3 active torsions:
REMARK  status: ('A' for Active; 'I' for Inactive)
REMARK    1  A    between atoms: C2_2  and  C3_3 
REMARK    2  A    between atoms: C10_12  and  N3_13 
REMARK    3  A    between atoms: N3_13  and  C11_14 
ROOT
HETATM    1  C3  UNL     1      21.229   1.726  52.677  1.00  0.00     0.053 C 
HETATM    2  C4  UNL     1      22.518   2.038  52.717  1.00  0.00     0.049 C 
HETATM    3  C5  UNL     1      23.666   1.186  53.002  1.00  0.00     0.023 A 
HETATM    4  C6  UNL     1      23.723  -0.134  53.399  1.00  0.00     0.070 A 
HETATM    5  N1  UNL     1      24.885  -0.806  53.630  1.00  0.00    -0.259 NA
HETATM    6  C7  UNL     1      26.073  -0.177  53.470  1.00  0.00     0.142 A 
HETATM    7  C8  UNL     1      26.061   1.144  53.073  1.00  0.00     0.089 A 
HETATM    8  C9  UNL     1      27.297   1.871  52.885  1.00  0.00     0.103 C 
HETATM    9  N2  UNL     1      28.298   2.463  52.727  1.00  0.00    -0.191 NA
HETATM   10  C10 UNL     1      24.875   1.834  52.836  1.00  0.00     0.067 A 
HETATM   11  C17 UNL     1      22.539  -0.966  53.620  1.00  0.00     0.057 C 
HETATM   12  C18 UNL     1      21.256  -0.714  53.412  1.00  0.00     0.144 C 
HETATM   13  O1  UNL     1      20.686   0.464  52.908  1.00  0.00    -0.327 OA
ENDROOT
BRANCH  10  14
HETATM   14  N3  UNL     1      24.889   3.195  52.428  1.00  0.00    -0.354 N 
HETATM   15  H8  UNL     1      25.318   3.676  53.250  1.00  0.00     0.166 HD
BRANCH  14  16
HETATM   16  C11 UNL     1      24.468   3.861  51.255  1.00  0.00     0.033 A 
HETATM   17  C12 UNL     1      24.615   3.205  50.039  1.00  0.00     0.029 A 
HETATM   18  C13 UNL     1      24.180   3.923  48.943  1.00  0.00     0.004 A 
HETATM   19  C14 UNL     1      23.637   5.190  49.000  1.00  0.00     0.019 A 
HETATM   20  C15 UNL     1      23.517   5.793  50.252  1.00  0.00     0.013 A 
HETATM   21 BR1  UNL     1      22.768   7.550  50.375  1.00  0.00    -0.051 Br
HETATM   22  C16 UNL     1      23.934   5.127  51.386  1.00  0.00     0.048 A 
ENDBRANCH  14  16
ENDBRANCH  10  14
BRANCH   1  23
HETATM   23  C2  UNL     1      20.248   2.779  52.362  1.00  0.00     0.060 C 
HETATM   24  C1  UNL     1      20.570   3.603  51.162  1.00  0.00     0.012 C 
ENDBRANCH   1  23
TORSDOF 3
ENDMDL
MODEL 7
REMARK VINA RESULT:      -7.6      2.787      4.737
REMARK  3 active torsions:
REMARK  status: ('A' for Active; 'I' for Inactive)
REMARK    1  A    between atoms: C2_2  and  C3_3 
REMARK    2  A    between atoms: C10_12  and  N3_13 
REMARK    3  A    between atoms: N3_13  and  C11_14 
ROOT
HETATM    1  C3  UNL     1      23.024  -0.543  54.067  1.00  0.00     0.053 C 
HETATM    2  C4  UNL     1      23.581   0.321  53.228  1.00  0.00     0.049 C 
HETATM    3  C5  UNL     1      24.963   0.776  53.154  1.00  0.00     0.023 A 
HETATM    4  C6  UNL     1      26.036   0.517  53.981  1.00  0.00     0.070 A 
HETATM    5  N1  UNL     1      27.286   1.020  53.782  1.00  0.00    -0.259 NA
HETATM    6  C7  UNL     1      27.530   1.824  52.721  1.00  0.00     0.142 A 
HETATM    7  C8  UNL     1      26.484   2.109  51.867  1.00  0.00     0.089 A 
HETATM    8  C9  UNL     1      26.681   2.961  50.716  1.00  0.00     0.103 C 
HETATM    9  N2  UNL     1      26.837   3.649  49.778  1.00  0.00    -0.191 NA
HETATM   10  C10 UNL     1      25.205   1.596  52.068  1.00  0.00     0.067 A 
HETATM   11  C17 UNL     1      25.955  -0.330  55.172  1.00  0.00     0.057 C 
HETATM   12  C18 UNL     1      24.958  -1.065  55.642  1.00  0.00     0.144 C 
HETATM   13  O1  UNL     1      23.678  -1.222  55.093  1.00  0.00    -0.327 OA
ENDROOT
BRANCH  10  14
HETATM   14  N3  UNL     1      24.144   1.904  51.174  1.00  0.00    -0.354 N 
HETATM   15  H8  UNL     1      24.030   1.014  50.640  1.00  0.00     0.166 HD
BRANCH  14  16
HETATM   16  C11 UNL     1      23.364   3.062  50.957  1.00  0.00     0.033 A 
HETATM   17  C12 UNL     1      22.861   3.732  52.066  1.00  0.00     0.029 A 
HETATM   18  C13 UNL     1      22.110   4.851  51.768  1.00  0.00     0.004 A 
HETATM   19  C14 UNL     1      21.853   5.307  50.491  1.00  0.00     0.019 A 
HETATM   20  C15 UNL     1      22.388   4.589  49.422  1.00  0.00     0.013 A 
HETATM   21 BR1  UNL     1      22.055   5.189  47.635  1.00  0.00    -0.051 Br
HETATM   22  C16 UNL     1      23.147   3.461  49.654  1.00  0.00     0.048 A 
ENDBRANCH  14  16
ENDBRANCH  10  14
BRANCH   1  23
HETATM   23  C2  UNL     1      21.588  -0.843  53.937  1.00  0.00     0.060 C 
HETATM   24  C1  UNL     1      20.679   0.316  54.172  1.00  0.00     0.012 C 
ENDBRANCH   1  23
TORSDOF 3
ENDMDL
MODEL 8
REMARK VINA RESULT:      -7.5      1.725      2.398
REMARK  3 active torsions:
REMARK  status: ('A' for Active; 'I' for Inactive)
REMARK    1  A    between atoms: C2_2  and  C3_3 
REMARK    2  A    between atoms: C10_12  and  N3_13 
REMARK    3  A    between atoms: N3_13  and  C11_14 
ROOT
HETATM    1  C3  UNL     1      24.011   3.637  50.882  1.00  0.00     0.053 C 
HETATM    2  C4  UNL     1      23.472   2.670  51.612  1.00  0.00     0.049 C 
HETATM    3  C5  UNL     1      24.115   1.536  52.262  1.00  0.00     0.023 A 
HETATM    4  C6  UNL     1      25.425   1.104  52.218  1.00  0.00     0.070 A 
HETATM    5  N1  UNL     1      25.886   0.012  52.888  1.00  0.00    -0.259 NA
HETATM    6  C7  UNL     1      25.042  -0.719  53.653  1.00  0.00     0.142 A 
HETATM    7  C8  UNL     1      23.722  -0.321  53.725  1.00  0.00     0.089 A 
HETATM    8  C9  UNL     1      22.771  -1.059  54.526  1.00  0.00     0.103 C 
HETATM    9  N2  UNL     1      21.996  -1.653  55.178  1.00  0.00    -0.191 NA
HETATM   10  C10 UNL     1      23.248   0.795  53.042  1.00  0.00     0.067 A 
HETATM   11  C17 UNL     1      26.472   1.772  51.443  1.00  0.00     0.057 C 
HETATM   12  C18 UNL     1      26.447   2.899  50.749  1.00  0.00     0.144 C 
HETATM   13  O1  UNL     1      25.364   3.772  50.575  1.00  0.00    -0.327 OA
ENDROOT
BRANCH  10  14
HETATM   14  N3  UNL     1      21.884   1.184  53.132  1.00  0.00    -0.354 N 
HETATM   15  H8  UNL     1      21.895   1.875  53.915  1.00  0.00     0.166 HD
BRANCH  14  16
HETATM   16  C11 UNL     1      20.721   0.815  52.420  1.00  0.00     0.033 A 
HETATM   17  C12 UNL     1      20.533   1.344  51.149  1.00  0.00     0.029 A 
HETATM   18  C13 UNL     1      19.374   0.935  50.522  1.00  0.00     0.004 A 
HETATM   19  C14 UNL     1      18.447   0.073  51.071  1.00  0.00     0.019 A 
HETATM   20  C15 UNL     1      18.695  -0.423  52.351  1.00  0.00     0.013 A 
HETATM   21 BR1  UNL     1      17.433  -1.622  53.148  1.00  0.00    -0.051 Br
HETATM   22  C16 UNL     1      19.836  -0.051  53.030  1.00  0.00     0.048 A 
ENDBRANCH  14  16
ENDBRANCH  10  14
BRANCH   1  23
HETATM   23  C2  UNL     1      23.138   4.686  50.325  1.00  0.00     0.060 C 
HETATM   24  C1  UNL     1      22.431   4.314  49.066  1.00  0.00     0.012 C 
ENDBRANCH   1  23
TORSDOF 3
ENDMDL
MODEL 9
REMARK VINA RESULT:      -7.5      3.093      4.883
REMARK  3 active torsions:
REMARK  status: ('A' for Active; 'I' for Inactive)
REMARK    1  A    between atoms: C2_2  and  C3_3 
REMARK    2  A    between atoms: C10_12  and  N3_13 
REMARK    3  A    between atoms: N3_13  and  C11_14 
ROOT
HETATM    1  C3  UNL     1      26.804   1.490  53.245  1.00  0.00     0.053 C 
HETATM    2  C4  UNL     1      25.814   1.649  52.377  1.00  0.00     0.049 C 
HETATM    3  C5  UNL     1      24.478   1.066  52.383  1.00  0.00     0.023 A 
HETATM    4  C6  UNL     1      23.915   0.129  53.224  1.00  0.00     0.070 A 
HETATM    5  N1  UNL     1      22.636  -0.325  53.106  1.00  0.00    -0.259 NA
HETATM    6  C7  UNL     1      21.839   0.148  52.119  1.00  0.00     0.142 A 
HETATM    7  C8  UNL     1      22.364   1.089  51.256  1.00  0.00     0.089 A 
HETATM    8  C9  UNL     1      21.563   1.633  50.181  1.00  0.00     0.103 C 
HETATM    9  N2  UNL     1      20.915   2.080  49.311  1.00  0.00    -0.191 NA
HETATM   10  C10 UNL     1      23.670   1.554  51.374  1.00  0.00     0.067 A 
HETATM   11  C17 UNL     1      24.629  -0.489  54.343  1.00  0.00     0.057 C 
HETATM   12  C18 UNL     1      25.834  -0.248  54.837  1.00  0.00     0.144 C 
HETATM   13  O1  UNL     1      26.766   0.700  54.393  1.00  0.00    -0.327 OA
ENDROOT
BRANCH  10  14
HETATM   14  N3  UNL     1      24.187   2.523  50.471  1.00  0.00    -0.354 N 
HETATM   15  H8  UNL     1      24.426   1.949  49.633  1.00  0.00     0.166 HD
BRANCH  14  16
HETATM   16  C11 UNL     1      24.382   3.920  50.554  1.00  0.00     0.033 A 
HETATM   17  C12 UNL     1      23.611   4.638  51.462  1.00  0.00     0.029 A 
HETATM   18  C13 UNL     1      23.863   5.995  51.480  1.00  0.00     0.004 A 
HETATM   19  C14 UNL     1      24.793   6.632  50.684  1.00  0.00     0.019 A 
HETATM   20  C15 UNL     1      25.533   5.853  49.795  1.00  0.00     0.013 A 
HETATM   21 BR1  UNL     1      26.834   6.699  48.673  1.00  0.00    -0.051 Br
HETATM   22  C16 UNL     1      25.328   4.491  49.729  1.00  0.00     0.048 A 
ENDBRANCH  14  16
ENDBRANCH  10  14
BRANCH   1  23
HETATM   23  C2  UNL     1      28.077   2.195  53.016  1.00  0.00     0.060 C 
HETATM   24  C1  UNL     1      29.095   2.024  54.092  1.00  0.00     0.012 C 
ENDBRANCH   1  23
TORSDOF 3
ENDMDL
