MODEL 1
REMARK VINA RESULT:      -8.2      0.000      0.000
REMARK  6 active torsions:
REMARK  status: ('A' for Active; 'I' for Inactive)
REMARK    1  A    between atoms: C2_2  and  C3_4 
REMARK    2  A    between atoms: C7_11  and  N3_12 
REMARK    3  A    between atoms: N3_12  and  C8_13 
REMARK    4  A    between atoms: C8_13  and  C9_14 
REMARK    5  A    between atoms: C10_15  and  C11_16 
REMARK    6  A    between atoms: C11_16  and  N4_17 
ROOT
HETATM    1  C3  UNL     1      27.616   0.241  54.516  1.00  0.00     0.182 C 
HETATM    2  F1  UNL     1      27.930  -0.487  55.643  1.00  0.00    -0.200 F 
HETATM    3  C4  UNL     1      26.339   0.034  54.374  1.00  0.00     0.169 A 
HETATM    4  N1  UNL     1      25.361  -0.700  55.069  1.00  0.00    -0.226 NA
HETATM    5  C5  UNL     1      24.146  -0.727  54.687  1.00  0.00     0.088 A 
HETATM    6  C6  UNL     1      23.351  -1.504  55.508  1.00  0.00     0.151 A 
HETATM    7  N2  UNL     1      22.038  -1.656  55.277  1.00  0.00    -0.241 NA
HETATM    8  C7  UNL     1      21.433  -1.068  54.244  1.00  0.00     0.124 A 
HETATM    9  C16 UNL     1      22.209  -0.275  53.392  1.00  0.00     0.065 A 
HETATM   10  C17 UNL     1      23.574  -0.100  53.608  1.00  0.00     0.013 A 
HETATM   11  C18 UNL     1      24.400   0.616  52.887  1.00  0.00     0.103 A 
HETATM   12  N5  UNL     1      25.797   0.718  53.227  1.00  0.00    -0.347 N 
HETATM   13  H17 UNL     1      26.260   1.333  52.524  1.00  0.00     0.167 HD
ENDROOT
BRANCH   8  14
HETATM   14  N3  UNL     1      20.100  -1.000  53.726  1.00  0.00    -0.364 N 
HETATM   15  H4  UNL     1      19.399  -1.571  54.254  1.00  0.00     0.162 HD
BRANCH  14  16
HETATM   16  C8  UNL     1      19.988  -0.134  52.553  1.00  0.00     0.215 C 
BRANCH  16  17
HETATM   17  C9  UNL     1      18.566   0.043  52.233  1.00  0.00    -0.085 C 
HETATM   18  C10 UNL     1      17.400   0.179  51.954  1.00  0.00    -0.085 C 
BRANCH  18  19
HETATM   19  C11 UNL     1      15.961   0.359  51.635  1.00  0.00     0.220 C 
BRANCH  19  20
HETATM   20  N4  UNL     1      15.606   1.776  51.804  1.00  0.00    -0.338 N 
HETATM   21  C12 UNL     1      14.703   2.328  52.818  1.00  0.00     0.153 C 
HETATM   22  C13 UNL     1      14.908   3.815  52.946  1.00  0.00     0.188 C 
HETATM   23  O1  UNL     1      16.231   4.190  52.762  1.00  0.00    -0.380 OA
HETATM   24  C14 UNL     1      16.712   4.015  51.487  1.00  0.00     0.270 C 
HETATM   25  C15 UNL     1      16.197   2.723  50.895  1.00  0.00     0.244 C 
HETATM   26  O2  UNL     1      16.257   2.432  49.658  1.00  0.00    -0.271 OA
ENDBRANCH  19  20
ENDBRANCH  18  19
ENDBRANCH  16  17
ENDBRANCH  14  16
ENDBRANCH   8  14
BRANCH   1  27
HETATM   27  C2  UNL     1      28.665   0.973  53.848  1.00  0.00     0.067 C 
HETATM   28  C1  UNL     1      29.715   0.206  53.451  1.00  0.00     0.040 C 
HETATM   29 CL1  UNL     1      28.817   2.685  53.475  1.00  0.00    -0.082 Cl
ENDBRANCH   1  27
TORSDOF 6
ENDMDL
MODEL 2
REMARK VINA RESULT:      -8.0      6.845      9.698
REMARK  6 active torsions:
REMARK  status: ('A' for Active; 'I' for Inactive)
REMARK    1  A    between atoms: C2_2  and  C3_4 
REMARK    2  A    between atoms: C7_11  and  N3_12 
REMARK    3  A    between atoms: N3_12  and  C8_13 
REMARK    4  A    between atoms: C8_13  and  C9_14 
REMARK    5  A    between atoms: C10_15  and  C11_16 
REMARK    6  A    between atoms: C11_16  and  N4_17 
ROOT
HETATM    1  C3  UNL     1      28.424   8.249  48.700  1.00  0.00     0.182 C 
HETATM    2  F1  UNL     1      27.676   9.383  48.925  1.00  0.00    -0.200 F 
HETATM    3  C4  UNL     1      27.574   7.285  48.905  1.00  0.00     0.169 A 
HETATM    4  N1  UNL     1      26.218   7.207  49.268  1.00  0.00    -0.226 NA
HETATM    5  C5  UNL     1      25.624   6.089  49.406  1.00  0.00     0.088 A 
HETATM    6  C6  UNL     1      24.297   6.236  49.763  1.00  0.00     0.151 A 
HETATM    7  N2  UNL     1      23.497   5.176  49.953  1.00  0.00    -0.241 NA
HETATM    8  C7  UNL     1      23.941   3.926  49.809  1.00  0.00     0.124 A 
HETATM    9  C16 UNL     1      25.280   3.741  49.450  1.00  0.00     0.065 A 
HETATM   10  C17 UNL     1      26.132   4.824  49.246  1.00  0.00     0.013 A 
HETATM   11  C18 UNL     1      27.396   4.779  48.906  1.00  0.00     0.103 A 
HETATM   12  N5  UNL     1      28.166   5.983  48.721  1.00  0.00    -0.347 N 
HETATM   13  H17 UNL     1      29.137   5.713  48.455  1.00  0.00     0.167 HD
ENDROOT
BRANCH   8  14
HETATM   14  N3  UNL     1      23.385   2.611  49.911  1.00  0.00    -0.364 N 
HETATM   15  H4  UNL     1      23.395   2.064  49.018  1.00  0.00     0.162 HD
BRANCH  14  16
HETATM   16  C8  UNL     1      22.913   2.294  51.259  1.00  0.00     0.215 C 
BRANCH  16  17
HETATM   17  C9  UNL     1      23.878   1.387  51.894  1.00  0.00    -0.085 C 
HETATM   18  C10 UNL     1      24.682   0.657  52.420  1.00  0.00    -0.085 C 
BRANCH  18  19
HETATM   19  C11 UNL     1      25.654  -0.263  53.064  1.00  0.00     0.220 C 
BRANCH  19  20
HETATM   20  N4  UNL     1      26.948   0.423  53.193  1.00  0.00    -0.338 N 
HETATM   21  C12 UNL     1      27.263   1.775  52.721  1.00  0.00     0.153 C 
HETATM   22  C13 UNL     1      28.517   2.281  53.385  1.00  0.00     0.188 C 
HETATM   23  O1  UNL     1      28.645   1.839  54.694  1.00  0.00    -0.380 OA
HETATM   24  C14 UNL     1      28.856   0.489  54.833  1.00  0.00     0.270 C 
HETATM   25  C15 UNL     1      28.016  -0.287  53.846  1.00  0.00     0.244 C 
HETATM   26  O2  UNL     1      28.198  -1.515  53.565  1.00  0.00    -0.271 OA
ENDBRANCH  19  20
ENDBRANCH  18  19
ENDBRANCH  16  17
ENDBRANCH  14  16
ENDBRANCH   8  14
BRANCH   1  27
HETATM   27  C2  UNL     1      29.812   8.395  48.332  1.00  0.00     0.067 C 
HETATM   28  C1  UNL     1      30.025   8.505  46.993  1.00  0.00     0.040 C 
HETATM   29 CL1  UNL     1      31.267   8.441  49.318  1.00  0.00    -0.082 Cl
ENDBRANCH   1  27
TORSDOF 6
ENDMDL
MODEL 3
REMARK VINA RESULT:      -7.9      4.022      5.040
REMARK  6 active torsions:
REMARK  status: ('A' for Active; 'I' for Inactive)
REMARK    1  A    between atoms: C2_2  and  C3_4 
REMARK    2  A    between atoms: C7_11  and  N3_12 
REMARK    3  A    between atoms: N3_12  and  C8_13 
REMARK    4  A    between atoms: C8_13  and  C9_14 
REMARK    5  A    between atoms: C10_15  and  C11_16 
REMARK    6  A    between atoms: C11_16  and  N4_17 
ROOT
HETATM    1  C3  UNL     1      27.172   0.671  52.999  1.00  0.00     0.182 C 
HETATM    2  F1  UNL     1      27.080   1.510  51.910  1.00  0.00    -0.200 F 
HETATM    3  C4  UNL     1      25.935   0.333  53.220  1.00  0.00     0.169 A 
HETATM    4  N1  UNL     1      24.694   0.633  52.630  1.00  0.00    -0.226 NA
HETATM    5  C5  UNL     1      23.605   0.146  53.075  1.00  0.00     0.088 A 
HETATM    6  C6  UNL     1      22.504   0.565  52.352  1.00  0.00     0.151 A 
HETATM    7  N2  UNL     1      21.263   0.159  52.660  1.00  0.00    -0.241 NA
HETATM    8  C7  UNL     1      21.027  -0.667  53.680  1.00  0.00     0.124 A 
HETATM    9  C16 UNL     1      22.119  -1.109  54.434  1.00  0.00     0.065 A 
HETATM   10  C17 UNL     1      23.418  -0.704  54.136  1.00  0.00     0.013 A 
HETATM   11  C18 UNL     1      24.514  -1.050  54.763  1.00  0.00     0.103 A 
HETATM   12  N5  UNL     1      25.803  -0.560  54.345  1.00  0.00    -0.347 N 
HETATM   13  H17 UNL     1      26.527  -0.961  54.979  1.00  0.00     0.167 HD
ENDROOT
BRANCH   8  14
HETATM   14  N3  UNL     1      19.879  -1.294  54.260  1.00  0.00    -0.364 N 
HETATM   15  H4  UNL     1      20.049  -1.731  55.197  1.00  0.00     0.162 HD
BRANCH  14  16
HETATM   16  C8  UNL     1      18.687  -1.194  53.419  1.00  0.00     0.215 C 
BRANCH  16  17
HETATM   17  C9  UNL     1      17.917  -2.438  53.541  1.00  0.00    -0.085 C 
HETATM   18  C10 UNL     1      17.301  -3.471  53.642  1.00  0.00    -0.085 C 
BRANCH  18  19
HETATM   19  C11 UNL     1      16.519  -4.727  53.768  1.00  0.00     0.220 C 
BRANCH  19  20
HETATM   20  N4  UNL     1      15.318  -4.630  52.925  1.00  0.00    -0.338 N 
HETATM   21  C12 UNL     1      15.059  -3.614  51.901  1.00  0.00     0.153 C 
HETATM   22  C13 UNL     1      13.954  -4.069  50.982  1.00  0.00     0.188 C 
HETATM   23  O1  UNL     1      13.969  -5.439  50.766  1.00  0.00    -0.380 OA
HETATM   24  C14 UNL     1      13.664  -6.204  51.865  1.00  0.00     0.270 C 
HETATM   25  C15 UNL     1      14.293  -5.623  53.111  1.00  0.00     0.244 C 
HETATM   26  O2  UNL     1      13.969  -5.957  54.295  1.00  0.00    -0.271 OA
ENDBRANCH  19  20
ENDBRANCH  18  19
ENDBRANCH  16  17
ENDBRANCH  14  16
ENDBRANCH   8  14
BRANCH   1  27
HETATM   27  C2  UNL     1      28.474   0.403  53.560  1.00  0.00     0.067 C 
HETATM   28  C1  UNL     1      29.071   1.485  54.127  1.00  0.00     0.040 C 
HETATM   29 CL1  UNL     1      29.419  -1.079  53.621  1.00  0.00    -0.082 Cl
ENDBRANCH   1  27
TORSDOF 6
ENDMDL
MODEL 4
REMARK VINA RESULT:      -7.8      1.756      2.226
REMARK  6 active torsions:
REMARK  status: ('A' for Active; 'I' for Inactive)
REMARK    1  A    between atoms: C2_2  and  C3_4 
REMARK    2  A    between atoms: C7_11  and  N3_12 
REMARK    3  A    between atoms: N3_12  and  C8_13 
REMARK    4  A    between atoms: C8_13  and  C9_14 
REMARK    5  A    between atoms: C10_15  and  C11_16 
REMARK    6  A    between atoms: C11_16  and  N4_17 
ROOT
HETATM    1  C3  UNL     1      27.128  -0.027  53.157  1.00  0.00     0.182 C 
HETATM    2  F1  UNL     1      27.236   0.725  52.007  1.00  0.00    -0.200 F 
HETATM    3  C4  UNL     1      25.842  -0.111  53.338  1.00  0.00     0.169 A 
HETATM    4  N1  UNL     1      24.702   0.365  52.665  1.00  0.00    -0.226 NA
HETATM    5  C5  UNL     1      23.525   0.125  53.087  1.00  0.00     0.088 A 
HETATM    6  C6  UNL     1      22.551   0.681  52.281  1.00  0.00     0.151 A 
HETATM    7  N2  UNL     1      21.245   0.538  52.553  1.00  0.00    -0.241 NA
HETATM    8  C7  UNL     1      20.819  -0.146  53.617  1.00  0.00     0.124 A 
HETATM    9  C16 UNL     1      21.780  -0.721  54.456  1.00  0.00     0.065 A 
HETATM   10  C17 UNL     1      23.142  -0.589  54.196  1.00  0.00     0.013 A 
HETATM   11  C18 UNL     1      24.130  -1.080  54.901  1.00  0.00     0.103 A 
HETATM   12  N5  UNL     1      25.503  -0.872  54.515  1.00  0.00    -0.347 N 
HETATM   13  H17 UNL     1      26.114  -1.348  55.212  1.00  0.00     0.167 HD
ENDROOT
BRANCH   8  14
HETATM   14  N3  UNL     1      19.553  -0.502  54.181  1.00  0.00    -0.364 N 
HETATM   15  H4  UNL     1      19.308   0.015  55.058  1.00  0.00     0.162 HD
BRANCH  14  16
HETATM   16  C8  UNL     1      18.850  -1.524  53.407  1.00  0.00     0.215 C 
BRANCH  16  17
HETATM   17  C9  UNL     1      18.044  -0.862  52.374  1.00  0.00    -0.085 C 
HETATM   18  C10 UNL     1      17.392  -0.303  51.526  1.00  0.00    -0.085 C 
BRANCH  18  19
HETATM   19  C11 UNL     1      16.576   0.363  50.479  1.00  0.00     0.220 C 
BRANCH  19  20
HETATM   20  N4  UNL     1      16.712   1.821  50.622  1.00  0.00    -0.338 N 
HETATM   21  C12 UNL     1      15.654   2.754  51.018  1.00  0.00     0.153 C 
HETATM   22  C13 UNL     1      16.251   4.067  51.453  1.00  0.00     0.188 C 
HETATM   23  O1  UNL     1      17.468   3.912  52.102  1.00  0.00    -0.380 OA
HETATM   24  C14 UNL     1      18.495   3.459  51.310  1.00  0.00     0.270 C 
HETATM   25  C15 UNL     1      18.002   2.398  50.352  1.00  0.00     0.244 C 
HETATM   26  O2  UNL     1      18.655   1.996  49.336  1.00  0.00    -0.271 OA
ENDBRANCH  19  20
ENDBRANCH  18  19
ENDBRANCH  16  17
ENDBRANCH  14  16
ENDBRANCH   8  14
BRANCH   1  27
HETATM   27  C2  UNL     1      28.334  -0.485  53.801  1.00  0.00     0.067 C 
HETATM   28  C1  UNL     1      28.702   0.248  54.886  1.00  0.00     0.040 C 
HETATM   29 CL1  UNL     1      29.412  -1.821  53.413  1.00  0.00    -0.082 Cl
ENDBRANCH   1  27
TORSDOF 6
ENDMDL
MODEL 5
REMARK VINA RESULT:      -7.8      7.369     11.632
REMARK  6 active torsions:
REMARK  status: ('A' for Active; 'I' for Inactive)
REMARK    1  A    between atoms: C2_2  and  C3_4 
REMARK    2  A    between atoms: C7_11  and  N3_12 
REMARK    3  A    between atoms: N3_12  and  C8_13 
REMARK    4  A    between atoms: C8_13  and  C9_14 
REMARK    5  A    between atoms: C10_15  and  C11_16 
REMARK    6  A    between atoms: C11_16  and  N4_17 
ROOT
HETATM    1  C3  UNL     1      22.258   0.345  53.658  1.00  0.00     0.182 C 
HETATM    2  F1  UNL     1      21.117   1.110  53.544  1.00  0.00    -0.200 F 
HETATM    3  C4  UNL     1      23.130   1.005  52.954  1.00  0.00     0.169 A 
HETATM    4  N1  UNL     1      23.117   2.193  52.200  1.00  0.00    -0.226 NA
HETATM    5  C5  UNL     1      24.153   2.611  51.590  1.00  0.00     0.088 A 
HETATM    6  C6  UNL     1      23.926   3.794  50.912  1.00  0.00     0.151 A 
HETATM    7  N2  UNL     1      24.895   4.401  50.209  1.00  0.00    -0.241 NA
HETATM    8  C7  UNL     1      26.126   3.894  50.128  1.00  0.00     0.124 A 
HETATM    9  C16 UNL     1      26.390   2.696  50.801  1.00  0.00     0.065 A 
HETATM   10  C17 UNL     1      25.403   2.046  51.538  1.00  0.00     0.013 A 
HETATM   11  C18 UNL     1      25.529   0.929  52.209  1.00  0.00     0.103 A 
HETATM   12  N5  UNL     1      24.421   0.363  52.938  1.00  0.00    -0.347 N 
HETATM   13  H17 UNL     1      24.745  -0.516  53.394  1.00  0.00     0.167 HD
ENDROOT
BRANCH   8  14
HETATM   14  N3  UNL     1      27.361   4.267  49.507  1.00  0.00    -0.364 N 
HETATM   15  H4  UNL     1      28.168   3.639  49.734  1.00  0.00     0.162 HD
BRANCH  14  16
HETATM   16  C8  UNL     1      27.242   5.461  48.672  1.00  0.00     0.215 C 
BRANCH  16  17
HETATM   17  C9  UNL     1      28.573   5.816  48.165  1.00  0.00    -0.085 C 
HETATM   18  C10 UNL     1      29.662   6.104  47.731  1.00  0.00    -0.085 C 
BRANCH  18  19
HETATM   19  C11 UNL     1      31.009   6.466  47.221  1.00  0.00     0.220 C 
BRANCH  19  20
HETATM   20  N4  UNL     1      31.944   5.370  47.520  1.00  0.00    -0.338 N 
HETATM   21  C12 UNL     1      31.838   3.988  47.045  1.00  0.00     0.153 C 
HETATM   22  C13 UNL     1      33.159   3.280  47.199  1.00  0.00     0.188 C 
HETATM   23  O1  UNL     1      34.243   4.119  46.986  1.00  0.00    -0.380 OA
HETATM   24  C14 UNL     1      34.412   5.101  47.932  1.00  0.00     0.270 C 
HETATM   25  C15 UNL     1      33.078   5.672  48.353  1.00  0.00     0.244 C 
HETATM   26  O2  UNL     1      32.905   6.393  49.387  1.00  0.00    -0.271 OA
ENDBRANCH  19  20
ENDBRANCH  18  19
ENDBRANCH  16  17
ENDBRANCH  14  16
ENDBRANCH   8  14
BRANCH   1  27
HETATM   27  C2  UNL     1      22.208  -0.863  54.445  1.00  0.00     0.067 C 
HETATM   28  C1  UNL     1      21.102  -1.624  54.230  1.00  0.00     0.040 C 
HETATM   29 CL1  UNL     1      23.326  -1.505  55.642  1.00  0.00    -0.082 Cl
ENDBRANCH   1  27
TORSDOF 6
ENDMDL
MODEL 6
REMARK VINA RESULT:      -7.7      2.123      2.439
REMARK  6 active torsions:
REMARK  status: ('A' for Active; 'I' for Inactive)
REMARK    1  A    between atoms: C2_2  and  C3_4 
REMARK    2  A    between atoms: C7_11  and  N3_12 
REMARK    3  A    between atoms: N3_12  and  C8_13 
REMARK    4  A    between atoms: C8_13  and  C9_14 
REMARK    5  A    between atoms: C10_15  and  C11_16 
REMARK    6  A    between atoms: C11_16  and  N4_17 
ROOT
HETATM    1  C3  UNL     1      27.809   0.296  54.613  1.00  0.00     0.182 C 
HETATM    2  F1  UNL     1      28.112  -0.231  55.849  1.00  0.00    -0.200 F 
HETATM    3  C4  UNL     1      26.557  -0.019  54.453  1.00  0.00     0.169 A 
HETATM    4  N1  UNL     1      25.594  -0.710  55.211  1.00  0.00    -0.226 NA
HETATM    5  C5  UNL     1      24.404  -0.878  54.790  1.00  0.00     0.088 A 
HETATM    6  C6  UNL     1      23.620  -1.579  55.686  1.00  0.00     0.151 A 
HETATM    7  N2  UNL     1      22.333  -1.857  55.430  1.00  0.00    -0.241 NA
HETATM    8  C7  UNL     1      21.744  -1.473  54.296  1.00  0.00     0.124 A 
HETATM    9  C16 UNL     1      22.509  -0.763  53.365  1.00  0.00     0.065 A 
HETATM   10  C17 UNL     1      23.847  -0.461  53.606  1.00  0.00     0.013 A 
HETATM   11  C18 UNL     1      24.661   0.196  52.819  1.00  0.00     0.103 A 
HETATM   12  N5  UNL     1      26.030   0.447  53.195  1.00  0.00    -0.347 N 
HETATM   13  H17 UNL     1      26.487   0.981  52.426  1.00  0.00     0.167 HD
ENDROOT
BRANCH   8  14
HETATM   14  N3  UNL     1      20.437  -1.577  53.721  1.00  0.00    -0.364 N 
HETATM   15  H4  UNL     1      20.211  -2.520  53.325  1.00  0.00     0.162 HD
BRANCH  14  16
HETATM   16  C8  UNL     1      19.675  -0.332  53.807  1.00  0.00     0.215 C 
BRANCH  16  17
HETATM   17  C9  UNL     1      19.165   0.002  52.472  1.00  0.00    -0.085 C 
HETATM   18  C10 UNL     1      18.749   0.294  51.377  1.00  0.00    -0.085 C 
BRANCH  18  19
HETATM   19  C11 UNL     1      18.236   0.628  50.025  1.00  0.00     0.220 C 
BRANCH  19  20
HETATM   20  N4  UNL     1      18.755   1.946  49.627  1.00  0.00    -0.338 N 
HETATM   21  C12 UNL     1      17.959   3.150  49.375  1.00  0.00     0.153 C 
HETATM   22  C13 UNL     1      18.838   4.373  49.403  1.00  0.00     0.188 C 
HETATM   23  O1  UNL     1      19.866   4.271  50.330  1.00  0.00    -0.380 OA
HETATM   24  C14 UNL     1      20.819   3.326  50.039  1.00  0.00     0.270 C 
HETATM   25  C15 UNL     1      20.179   2.080  49.471  1.00  0.00     0.244 C 
HETATM   26  O2  UNL     1      20.821   1.158  48.872  1.00  0.00    -0.271 OA
ENDBRANCH  19  20
ENDBRANCH  18  19
ENDBRANCH  16  17
ENDBRANCH  14  16
ENDBRANCH   8  14
BRANCH   1  27
HETATM   27  C2  UNL     1      28.841   0.993  53.884  1.00  0.00     0.067 C 
HETATM   28  C1  UNL     1      29.865   0.201  53.470  1.00  0.00     0.040 C 
HETATM   29 CL1  UNL     1      29.001   2.692  53.455  1.00  0.00    -0.082 Cl
ENDBRANCH   1  27
TORSDOF 6
ENDMDL
MODEL 7
REMARK VINA RESULT:      -7.7      3.025      3.646
REMARK  6 active torsions:
REMARK  status: ('A' for Active; 'I' for Inactive)
REMARK    1  A    between atoms: C2_2  and  C3_4 
REMARK    2  A    between atoms: C7_11  and  N3_12 
REMARK    3  A    between atoms: N3_12  and  C8_13 
REMARK    4  A    between atoms: C8_13  and  C9_14 
REMARK    5  A    between atoms: C10_15  and  C11_16 
REMARK    6  A    between atoms: C11_16  and  N4_17 
ROOT
HETATM    1  C3  UNL     1      27.895   0.273  54.699  1.00  0.00     0.182 C 
HETATM    2  F1  UNL     1      28.137  -0.181  55.977  1.00  0.00    -0.200 F 
HETATM    3  C4  UNL     1      26.649  -0.043  54.501  1.00  0.00     0.169 A 
HETATM    4  N1  UNL     1      25.645  -0.679  55.253  1.00  0.00    -0.226 NA
HETATM    5  C5  UNL     1      24.475  -0.865  54.788  1.00  0.00     0.088 A 
HETATM    6  C6  UNL     1      23.643  -1.505  55.688  1.00  0.00     0.151 A 
HETATM    7  N2  UNL     1      22.366  -1.788  55.389  1.00  0.00    -0.241 NA
HETATM    8  C7  UNL     1      21.834  -1.470  54.208  1.00  0.00     0.124 A 
HETATM    9  C16 UNL     1      22.648  -0.823  53.272  1.00  0.00     0.065 A 
HETATM   10  C17 UNL     1      23.977  -0.516  53.557  1.00  0.00     0.013 A 
HETATM   11  C18 UNL     1      24.832   0.086  52.770  1.00  0.00     0.103 A 
HETATM   12  N5  UNL     1      26.185   0.349  53.193  1.00  0.00    -0.347 N 
HETATM   13  H17 UNL     1      26.682   0.833  52.416  1.00  0.00     0.167 HD
ENDROOT
BRANCH   8  14
HETATM   14  N3  UNL     1      20.554  -1.600  53.580  1.00  0.00    -0.364 N 
HETATM   15  H4  UNL     1      20.419  -2.492  53.050  1.00  0.00     0.162 HD
BRANCH  14  16
HETATM   16  C8  UNL     1      19.685  -0.447  53.813  1.00  0.00     0.215 C 
BRANCH  16  17
HETATM   17  C9  UNL     1      19.827   0.485  52.687  1.00  0.00    -0.085 C 
HETATM   18  C10 UNL     1      19.935   1.239  51.750  1.00  0.00    -0.085 C 
BRANCH  18  19
HETATM   19  C11 UNL     1      20.078   2.184  50.615  1.00  0.00     0.220 C 
BRANCH  19  20
HETATM   20  N4  UNL     1      21.197   3.099  50.891  1.00  0.00    -0.338 N 
HETATM   21  C12 UNL     1      21.227   4.143  51.919  1.00  0.00     0.153 C 
HETATM   22  C13 UNL     1      22.646   4.579  52.179  1.00  0.00     0.188 C 
HETATM   23  O1  UNL     1      23.554   3.535  52.068  1.00  0.00    -0.380 OA
HETATM   24  C14 UNL     1      23.711   3.033  50.799  1.00  0.00     0.270 C 
HETATM   25  C15 UNL     1      22.381   2.964  50.085  1.00  0.00     0.244 C 
HETATM   26  O2  UNL     1      22.254   2.796  48.830  1.00  0.00    -0.271 OA
ENDBRANCH  19  20
ENDBRANCH  18  19
ENDBRANCH  16  17
ENDBRANCH  14  16
ENDBRANCH   8  14
BRANCH   1  27
HETATM   27  C2  UNL     1      28.966   0.917  53.978  1.00  0.00     0.067 C 
HETATM   28  C1  UNL     1      29.884   0.059  53.457  1.00  0.00     0.040 C 
HETATM   29 CL1  UNL     1      29.290   2.619  53.674  1.00  0.00    -0.082 Cl
ENDBRANCH   1  27
TORSDOF 6
ENDMDL
MODEL 8
REMARK VINA RESULT:      -7.4      2.578      3.770
REMARK  6 active torsions:
REMARK  status: ('A' for Active; 'I' for Inactive)
REMARK    1  A    between atoms: C2_2  and  C3_4 
REMARK    2  A    between atoms: C7_11  and  N3_12 
REMARK    3  A    between atoms: N3_12  and  C8_13 
REMARK    4  A    between atoms: C8_13  and  C9_14 
REMARK    5  A    between atoms: C10_15  and  C11_16 
REMARK    6  A    between atoms: C11_16  and  N4_17 
ROOT
HETATM    1  C3  UNL     1      24.950   0.215  52.857  1.00  0.00     0.182 C 
HETATM    2  F1  UNL     1      24.952   1.043  51.756  1.00  0.00    -0.200 F 
HETATM    3  C4  UNL     1      23.691  -0.074  53.011  1.00  0.00     0.169 A 
HETATM    4  N1  UNL     1      22.498   0.265  52.347  1.00  0.00    -0.226 NA
HETATM    5  C5  UNL     1      21.368  -0.175  52.734  1.00  0.00     0.088 A 
HETATM    6  C6  UNL     1      20.326   0.275  51.945  1.00  0.00     0.151 A 
HETATM    7  N2  UNL     1      19.055  -0.081  52.185  1.00  0.00    -0.241 NA
HETATM    8  C7  UNL     1      18.730  -0.884  53.199  1.00  0.00     0.124 A 
HETATM    9  C16 UNL     1      19.760  -1.358  54.019  1.00  0.00     0.065 A 
HETATM   10  C17 UNL     1      21.088  -1.005  53.792  1.00  0.00     0.013 A 
HETATM   11  C18 UNL     1      22.133  -1.384  54.484  1.00  0.00     0.103 A 
HETATM   12  N5  UNL     1      23.462  -0.947  54.135  1.00  0.00    -0.347 N 
HETATM   13  H17 UNL     1      24.132  -1.367  54.814  1.00  0.00     0.167 HD
ENDROOT
BRANCH   8  14
HETATM   14  N3  UNL     1      17.528  -1.461  53.719  1.00  0.00    -0.364 N 
HETATM   15  H4  UNL     1      17.577  -1.730  54.730  1.00  0.00     0.162 HD
BRANCH  14  16
HETATM   16  C8  UNL     1      16.462  -1.555  52.722  1.00  0.00     0.215 C 
BRANCH  16  17
HETATM   17  C9  UNL     1      15.752  -0.271  52.668  1.00  0.00    -0.085 C 
HETATM   18  C10 UNL     1      15.178   0.789  52.608  1.00  0.00    -0.085 C 
BRANCH  18  19
HETATM   19  C11 UNL     1      14.457   2.086  52.556  1.00  0.00     0.220 C 
BRANCH  19  20
HETATM   20  N4  UNL     1      13.213   1.974  53.333  1.00  0.00    -0.338 N 
HETATM   21  C12 UNL     1      12.682   0.753  53.946  1.00  0.00     0.153 C 
HETATM   22  C13 UNL     1      11.646   1.097  54.984  1.00  0.00     0.188 C 
HETATM   23  O1  UNL     1      11.938   2.273  55.661  1.00  0.00    -0.380 OA
HETATM   24  C14 UNL     1      11.869   3.414  54.900  1.00  0.00     0.270 C 
HETATM   25  C15 UNL     1      12.435   3.170  53.520  1.00  0.00     0.244 C 
HETATM   26  O2  UNL     1      12.263   3.951  52.530  1.00  0.00    -0.271 OA
ENDBRANCH  19  20
ENDBRANCH  18  19
ENDBRANCH  16  17
ENDBRANCH  14  16
ENDBRANCH   8  14
BRANCH   1  27
HETATM   27  C2  UNL     1      26.207  -0.094  53.495  1.00  0.00     0.067 C 
HETATM   28  C1  UNL     1      26.953  -1.022  52.838  1.00  0.00     0.040 C 
HETATM   29 CL1  UNL     1      26.927   0.516  54.980  1.00  0.00    -0.082 Cl
ENDBRANCH   1  27
TORSDOF 6
ENDMDL
MODEL 9
REMARK VINA RESULT:      -7.4      7.827     10.913
REMARK  6 active torsions:
REMARK  status: ('A' for Active; 'I' for Inactive)
REMARK    1  A    between atoms: C2_2  and  C3_4 
REMARK    2  A    between atoms: C7_11  and  N3_12 
REMARK    3  A    between atoms: N3_12  and  C8_13 
REMARK    4  A    between atoms: C8_13  and  C9_14 
REMARK    5  A    between atoms: C10_15  and  C11_16 
REMARK    6  A    between atoms: C11_16  and  N4_17 
ROOT
HETATM    1  C3  UNL     1      31.917   8.311  47.743  1.00  0.00     0.182 C 
HETATM    2  F1  UNL     1      31.538   9.612  47.991  1.00  0.00    -0.200 F 
HETATM    3  C4  UNL     1      30.830   7.634  47.974  1.00  0.00     0.169 A 
HETATM    4  N1  UNL     1      29.520   7.951  48.380  1.00  0.00    -0.226 NA
HETATM    5  C5  UNL     1      28.631   7.054  48.536  1.00  0.00     0.088 A 
HETATM    6  C6  UNL     1      27.416   7.577  48.935  1.00  0.00     0.151 A 
HETATM    7  N2  UNL     1      26.348   6.794  49.150  1.00  0.00    -0.241 NA
HETATM    8  C7  UNL     1      26.404   5.470  48.992  1.00  0.00     0.124 A 
HETATM    9  C16 UNL     1      27.620   4.907  48.591  1.00  0.00     0.065 A 
HETATM   10  C17 UNL     1      28.744   5.696  48.361  1.00  0.00     0.013 A 
HETATM   11  C18 UNL     1      29.929   5.289  47.981  1.00  0.00     0.103 A 
HETATM   12  N5  UNL     1      31.011   6.218  47.772  1.00  0.00    -0.347 N 
HETATM   13  H17 UNL     1      31.852   5.679  47.476  1.00  0.00     0.167 HD
ENDROOT
BRANCH   8  14
HETATM   14  N3  UNL     1      25.492   4.373  49.112  1.00  0.00    -0.364 N 
HETATM   15  H4  UNL     1      25.462   3.741  48.278  1.00  0.00     0.162 HD
BRANCH  14  16
HETATM   16  C8  UNL     1      24.784   4.357  50.391  1.00  0.00     0.215 C 
BRANCH  16  17
HETATM   17  C9  UNL     1      25.143   3.131  51.114  1.00  0.00    -0.085 C 
HETATM   18  C10 UNL     1      25.441   2.114  51.692  1.00  0.00    -0.085 C 
BRANCH  18  19
HETATM   19  C11 UNL     1      25.806   0.877  52.426  1.00  0.00     0.220 C 
BRANCH  19  20
HETATM   20  N4  UNL     1      27.169   1.022  52.961  1.00  0.00    -0.338 N 
HETATM   21  C12 UNL     1      27.959   2.256  52.994  1.00  0.00     0.153 C 
HETATM   22  C13 UNL     1      29.102   2.118  53.966  1.00  0.00     0.188 C 
HETATM   23  O1  UNL     1      28.773   1.347  55.072  1.00  0.00    -0.380 OA
HETATM   24  C14 UNL     1      28.553   0.017  54.807  1.00  0.00     0.270 C 
HETATM   25  C15 UNL     1      27.797  -0.151  53.510  1.00  0.00     0.244 C 
HETATM   26  O2  UNL     1      27.687  -1.255  52.886  1.00  0.00    -0.271 OA
ENDBRANCH  19  20
ENDBRANCH  18  19
ENDBRANCH  16  17
ENDBRANCH  14  16
ENDBRANCH   8  14
BRANCH   1  27
HETATM   27  C2  UNL     1      33.275   8.050  47.331  1.00  0.00     0.067 C 
HETATM   28  C1  UNL     1      33.807   9.007  46.525  1.00  0.00     0.040 C 
HETATM   29 CL1  UNL     1      34.347   6.700  47.683  1.00  0.00    -0.082 Cl
ENDBRANCH   1  27
TORSDOF 6
ENDMDL
