MODEL 1
REMARK VINA RESULT:      -7.9      0.000      0.000
REMARK  1 active torsions:
REMARK  status: ('A' for Active; 'I' for Inactive)
REMARK    1  A    between atoms: N1_5  and  C5_6 
ROOT
HETATM    1  C5  UNL     1      23.700   0.787  52.947  1.00  0.00     0.055 C 
HETATM    2  C6  UNL     1      24.664   1.646  53.216  1.00  0.00     0.010 C 
HETATM    3  C7  UNL     1      25.934   1.861  53.832  1.00  0.00     0.111 C 
HETATM    4  C8  UNL     1      26.834   1.248  54.573  1.00  0.00     0.108 C 
HETATM    5  O1  UNL     1      27.443   2.542  54.334  1.00  0.00    -0.386 OA
HETATM    6  C9  UNL     1      28.153   2.279  53.015  1.00  0.00     0.202 C 
HETATM    7  C10 UNL     1      27.561   0.998  52.462  1.00  0.00    -0.049 C 
HETATM    8  C11 UNL     1      28.059  -0.222  52.828  1.00  0.00     0.048 C 
HETATM    9  C12 UNL     1      26.920  -1.210  52.927  1.00  0.00     0.121 C 
HETATM   10  F1  UNL     1      26.900  -2.544  53.276  1.00  0.00    -0.206 F 
HETATM   11  C13 UNL     1      25.832  -0.462  52.606  1.00  0.00    -0.013 C 
HETATM   12  C14 UNL     1      26.493   0.413  51.551  1.00  0.00     0.075 C 
HETATM   13  C15 UNL     1      24.437  -0.503  53.202  1.00  0.00     0.166 C 
HETATM   14 CL1  UNL     1      24.349  -1.054  54.837  1.00  0.00    -0.113 Cl
ENDROOT
BRANCH   1  15
HETATM   15  N1  UNL     1      22.449   0.701  52.330  1.00  0.00    -0.248 N 
HETATM   16  C4  UNL     1      22.194   1.053  50.979  1.00  0.00     0.115 A 
HETATM   17  C3  UNL     1      20.938   0.877  50.624  1.00  0.00     0.002 A 
HETATM   18  C2  UNL     1      19.848   0.372  51.477  1.00  0.00     0.048 A 
HETATM   19  C1  UNL     1      18.776   1.454  51.562  1.00  0.00     0.020 C 
HETATM   20  C16 UNL     1      20.247   0.049  52.843  1.00  0.00     0.120 A 
HETATM   21  N2  UNL     1      21.481   0.216  53.209  1.00  0.00    -0.184 NA
ENDBRANCH   1  15
TORSDOF 1
ENDMDL
MODEL 2
REMARK VINA RESULT:      -7.8      1.877      2.356
REMARK  1 active torsions:
REMARK  status: ('A' for Active; 'I' for Inactive)
REMARK    1  A    between atoms: N1_5  and  C5_6 
ROOT
HETATM    1  C5  UNL     1      24.558   1.764  53.287  1.00  0.00     0.055 C 
HETATM    2  C6  UNL     1      25.719   1.951  53.886  1.00  0.00     0.010 C 
HETATM    3  C7  UNL     1      26.836   1.345  54.537  1.00  0.00     0.111 C 
HETATM    4  C8  UNL     1      27.269   0.177  54.963  1.00  0.00     0.108 C 
HETATM    5  O1  UNL     1      28.374   1.061  55.276  1.00  0.00    -0.386 OA
HETATM    6  C9  UNL     1      29.146   1.022  53.966  1.00  0.00     0.202 C 
HETATM    7  C10 UNL     1      28.203   0.432  52.936  1.00  0.00    -0.049 C 
HETATM    8  C11 UNL     1      28.100  -0.922  52.770  1.00  0.00     0.048 C 
HETATM    9  C12 UNL     1      26.665  -1.272  52.454  1.00  0.00     0.121 C 
HETATM   10  F1  UNL     1      26.053  -2.487  52.225  1.00  0.00    -0.206 F 
HETATM   11  C13 UNL     1      26.040  -0.066  52.467  1.00  0.00    -0.013 C 
HETATM   12  C14 UNL     1      27.173   0.753  51.864  1.00  0.00     0.075 C 
HETATM   13  C15 UNL     1      24.662   0.290  52.992  1.00  0.00     0.166 C 
HETATM   14 CL1  UNL     1      24.070  -0.727  54.257  1.00  0.00    -0.113 Cl
ENDROOT
BRANCH   1  15
HETATM   15  N1  UNL     1      23.509   2.468  52.687  1.00  0.00    -0.248 N 
HETATM   16  C4  UNL     1      22.366   1.862  52.105  1.00  0.00     0.115 A 
HETATM   17  C3  UNL     1      21.511   2.735  51.611  1.00  0.00     0.002 A 
HETATM   18  C2  UNL     1      21.650   4.201  51.621  1.00  0.00     0.048 A 
HETATM   19  C1  UNL     1      21.660   4.683  50.174  1.00  0.00     0.020 C 
HETATM   20  C16 UNL     1      22.873   4.691  52.250  1.00  0.00     0.120 A 
HETATM   21  N2  UNL     1      23.725   3.844  52.741  1.00  0.00    -0.184 NA
ENDBRANCH   1  15
TORSDOF 1
ENDMDL
MODEL 3
REMARK VINA RESULT:      -7.7      3.233      6.386
REMARK  1 active torsions:
REMARK  status: ('A' for Active; 'I' for Inactive)
REMARK    1  A    between atoms: N1_5  and  C5_6 
ROOT
HETATM    1  C5  UNL     1      23.579   1.863  52.395  1.00  0.00     0.055 C 
HETATM    2  C6  UNL     1      22.345   2.221  52.695  1.00  0.00     0.010 C 
HETATM    3  C7  UNL     1      21.116   2.776  52.226  1.00  0.00     0.111 C 
HETATM    4  C8  UNL     1      20.577   3.324  51.157  1.00  0.00     0.108 C 
HETATM    5  O1  UNL     1      19.470   3.291  52.092  1.00  0.00    -0.386 OA
HETATM    6  C9  UNL     1      18.917   1.900  51.824  1.00  0.00     0.202 C 
HETATM    7  C10 UNL     1      19.990   1.159  51.051  1.00  0.00    -0.049 C 
HETATM    8  C11 UNL     1      20.067   1.253  49.688  1.00  0.00     0.048 C 
HETATM    9  C12 UNL     1      21.520   1.243  49.275  1.00  0.00     0.121 C 
HETATM   10  F1  UNL     1      22.114   1.336  48.034  1.00  0.00    -0.206 F 
HETATM   11  C13 UNL     1      22.179   1.146  50.459  1.00  0.00    -0.013 C 
HETATM   12  C14 UNL     1      21.189   0.231  51.166  1.00  0.00     0.075 C 
HETATM   13  C15 UNL     1      23.468   1.819  50.893  1.00  0.00     0.166 C 
HETATM   14 CL1  UNL     1      23.811   3.323  50.115  1.00  0.00    -0.113 Cl
ENDROOT
BRANCH   1  15
HETATM   15  N1  UNL     1      24.736   1.329  52.970  1.00  0.00    -0.248 N 
HETATM   16  C4  UNL     1      25.857   2.096  53.378  1.00  0.00     0.115 A 
HETATM   17  C3  UNL     1      26.822   1.368  53.901  1.00  0.00     0.002 A 
HETATM   18  C2  UNL     1      26.818  -0.094  54.082  1.00  0.00     0.048 A 
HETATM   19  C1  UNL     1      27.983  -0.671  53.284  1.00  0.00     0.020 C 
HETATM   20  C16 UNL     1      25.604  -0.759  53.619  1.00  0.00     0.120 A 
HETATM   21  N2  UNL     1      24.644  -0.056  53.101  1.00  0.00    -0.184 NA
ENDBRANCH   1  15
TORSDOF 1
ENDMDL
MODEL 4
REMARK VINA RESULT:      -7.5      3.341      4.430
REMARK  1 active torsions:
REMARK  status: ('A' for Active; 'I' for Inactive)
REMARK    1  A    between atoms: N1_5  and  C5_6 
ROOT
HETATM    1  C5  UNL     1      26.420   2.792  51.777  1.00  0.00     0.055 C 
HETATM    2  C6  UNL     1      27.464   2.201  52.325  1.00  0.00     0.010 C 
HETATM    3  C7  UNL     1      27.943   1.352  53.368  1.00  0.00     0.111 C 
HETATM    4  C8  UNL     1      27.536   0.727  54.453  1.00  0.00     0.108 C 
HETATM    5  O1  UNL     1      28.927   0.332  54.360  1.00  0.00    -0.386 OA
HETATM    6  C9  UNL     1      28.814  -0.884  53.453  1.00  0.00     0.202 C 
HETATM    7  C10 UNL     1      27.435  -0.820  52.828  1.00  0.00    -0.049 C 
HETATM    8  C11 UNL     1      26.348  -1.352  53.465  1.00  0.00     0.048 C 
HETATM    9  C12 UNL     1      25.144  -0.481  53.197  1.00  0.00     0.121 C 
HETATM   10  F1  UNL     1      23.836  -0.577  53.626  1.00  0.00    -0.206 F 
HETATM   11  C13 UNL     1      25.645   0.508  52.411  1.00  0.00    -0.013 C 
HETATM   12  C14 UNL     1      26.635  -0.341  51.627  1.00  0.00     0.075 C 
HETATM   13  C15 UNL     1      25.315   1.989  52.413  1.00  0.00     0.166 C 
HETATM   14 CL1  UNL     1      24.764   2.619  53.924  1.00  0.00    -0.113 Cl
ENDROOT
BRANCH   1  15
HETATM   15  N1  UNL     1      26.071   3.648  50.728  1.00  0.00    -0.248 N 
HETATM   16  C4  UNL     1      26.945   4.029  49.677  1.00  0.00     0.115 A 
HETATM   17  C3  UNL     1      26.384   4.837  48.802  1.00  0.00     0.002 A 
HETATM   18  C2  UNL     1      24.999   5.340  48.834  1.00  0.00     0.048 A 
HETATM   19  C1  UNL     1      25.053   6.862  48.917  1.00  0.00     0.020 C 
HETATM   20  C16 UNL     1      24.210   4.872  49.968  1.00  0.00     0.120 A 
HETATM   21  N2  UNL     1      24.748   4.075  50.840  1.00  0.00    -0.184 NA
ENDBRANCH   1  15
TORSDOF 1
ENDMDL
MODEL 5
REMARK VINA RESULT:      -7.4      3.803      6.333
REMARK  1 active torsions:
REMARK  status: ('A' for Active; 'I' for Inactive)
REMARK    1  A    between atoms: N1_5  and  C5_6 
ROOT
HETATM    1  C5  UNL     1      24.987   2.043  51.736  1.00  0.00     0.055 C 
HETATM    2  C6  UNL     1      24.943   2.990  50.819  1.00  0.00     0.010 C 
HETATM    3  C7  UNL     1      24.124   3.769  49.947  1.00  0.00     0.111 C 
HETATM    4  C8  UNL     1      22.876   3.889  49.542  1.00  0.00     0.108 C 
HETATM    5  O1  UNL     1      23.546   4.966  48.839  1.00  0.00    -0.386 OA
HETATM    6  C9  UNL     1      23.458   6.076  49.875  1.00  0.00     0.202 C 
HETATM    7  C10 UNL     1      23.095   5.405  51.185  1.00  0.00    -0.049 C 
HETATM    8  C11 UNL     1      21.789   5.166  51.515  1.00  0.00     0.048 C 
HETATM    9  C12 UNL     1      21.700   3.854  52.257  1.00  0.00     0.121 C 
HETATM   10  F1  UNL     1      20.618   3.172  52.775  1.00  0.00    -0.206 F 
HETATM   11  C13 UNL     1      22.990   3.429  52.294  1.00  0.00    -0.013 C 
HETATM   12  C14 UNL     1      23.645   4.792  52.463  1.00  0.00     0.075 C 
HETATM   13  C15 UNL     1      23.536   2.022  52.143  1.00  0.00     0.166 C 
HETATM   14 CL1  UNL     1      22.557   0.946  51.210  1.00  0.00    -0.113 Cl
ENDROOT
BRANCH   1  15
HETATM   15  N1  UNL     1      25.889   1.327  52.529  1.00  0.00    -0.248 N 
HETATM   16  C4  UNL     1      26.346   1.748  53.805  1.00  0.00     0.115 A 
HETATM   17  C3  UNL     1      27.185   0.900  54.361  1.00  0.00     0.002 A 
HETATM   18  C2  UNL     1      27.651  -0.376  53.790  1.00  0.00     0.048 A 
HETATM   19  C1  UNL     1      29.168  -0.300  53.644  1.00  0.00     0.020 C 
HETATM   20  C16 UNL     1      27.104  -0.687  52.474  1.00  0.00     0.120 A 
HETATM   21  N2  UNL     1      26.276   0.139  51.911  1.00  0.00    -0.184 NA
ENDBRANCH   1  15
TORSDOF 1
ENDMDL
MODEL 6
REMARK VINA RESULT:      -7.2      3.795      6.378
REMARK  1 active torsions:
REMARK  status: ('A' for Active; 'I' for Inactive)
REMARK    1  A    between atoms: N1_5  and  C5_6 
ROOT
HETATM    1  C5  UNL     1      24.816   1.722  52.252  1.00  0.00     0.055 C 
HETATM    2  C6  UNL     1      23.850   1.532  51.374  1.00  0.00     0.010 C 
HETATM    3  C7  UNL     1      22.750   2.107  50.667  1.00  0.00     0.111 C 
HETATM    4  C8  UNL     1      22.045   3.216  50.589  1.00  0.00     0.108 C 
HETATM    5  O1  UNL     1      21.451   2.386  49.559  1.00  0.00    -0.386 OA
HETATM    6  C9  UNL     1      22.352   2.715  48.379  1.00  0.00     0.202 C 
HETATM    7  C10 UNL     1      23.578   3.393  48.957  1.00  0.00    -0.049 C 
HETATM    8  C11 UNL     1      23.595   4.742  49.183  1.00  0.00     0.048 C 
HETATM    9  C12 UNL     1      24.385   5.022  50.439  1.00  0.00     0.121 C 
HETATM   10  F1  UNL     1      24.671   6.203  51.092  1.00  0.00    -0.206 F 
HETATM   11  C13 UNL     1      24.767   3.783  50.848  1.00  0.00    -0.013 C 
HETATM   12  C14 UNL     1      24.993   3.177  49.470  1.00  0.00     0.075 C 
HETATM   13  C15 UNL     1      24.857   3.229  52.258  1.00  0.00     0.166 C 
HETATM   14 CL1  UNL     1      23.793   3.959  53.406  1.00  0.00    -0.113 Cl
ENDROOT
BRANCH   1  15
HETATM   15  N1  UNL     1      25.855   1.048  52.901  1.00  0.00    -0.248 N 
HETATM   16  C4  UNL     1      26.364   1.397  54.178  1.00  0.00     0.115 A 
HETATM   17  C3  UNL     1      27.338   0.608  54.582  1.00  0.00     0.002 A 
HETATM   18  C2  UNL     1      27.899  -0.541  53.849  1.00  0.00     0.048 A 
HETATM   19  C1  UNL     1      29.379  -0.266  53.605  1.00  0.00     0.020 C 
HETATM   20  C16 UNL     1      27.284  -0.788  52.548  1.00  0.00     0.120 A 
HETATM   21  N2  UNL     1      26.324  -0.019  52.135  1.00  0.00    -0.184 NA
ENDBRANCH   1  15
TORSDOF 1
ENDMDL
MODEL 7
REMARK VINA RESULT:      -7.2      3.343      6.460
REMARK  1 active torsions:
REMARK  status: ('A' for Active; 'I' for Inactive)
REMARK    1  A    between atoms: N1_5  and  C5_6 
ROOT
HETATM    1  C5  UNL     1      24.015   1.316  52.671  1.00  0.00     0.055 C 
HETATM    2  C6  UNL     1      22.730   1.025  52.750  1.00  0.00     0.010 C 
HETATM    3  C7  UNL     1      21.390   1.503  52.638  1.00  0.00     0.111 C 
HETATM    4  C8  UNL     1      20.706   2.611  52.441  1.00  0.00     0.108 C 
HETATM    5  O1  UNL     1      19.666   1.605  52.526  1.00  0.00    -0.386 OA
HETATM    6  C9  UNL     1      19.600   1.148  51.077  1.00  0.00     0.202 C 
HETATM    7  C10 UNL     1      20.859   1.664  50.410  1.00  0.00    -0.049 C 
HETATM    8  C11 UNL     1      20.909   2.923  49.878  1.00  0.00     0.048 C 
HETATM    9  C12 UNL     1      22.286   3.500  50.102  1.00  0.00     0.121 C 
HETATM   10  F1  UNL     1      22.824   4.728  49.776  1.00  0.00    -0.206 F 
HETATM   11  C13 UNL     1      22.936   2.506  50.763  1.00  0.00    -0.013 C 
HETATM   12  C14 UNL     1      22.295   1.331  50.038  1.00  0.00     0.075 C 
HETATM   13  C15 UNL     1      23.931   2.610  51.903  1.00  0.00     0.166 C 
HETATM   14 CL1  UNL     1      23.768   4.012  52.899  1.00  0.00    -0.113 Cl
ENDROOT
BRANCH   1  15
HETATM   15  N1  UNL     1      25.280   0.742  52.829  1.00  0.00    -0.248 N 
HETATM   16  C4  UNL     1      25.512  -0.640  53.052  1.00  0.00     0.115 A 
HETATM   17  C3  UNL     1      26.790  -0.940  53.161  1.00  0.00     0.002 A 
HETATM   18  C2  UNL     1      27.923  -0.002  53.070  1.00  0.00     0.048 A 
HETATM   19  C1  UNL     1      28.681  -0.051  54.393  1.00  0.00     0.020 C 
HETATM   20  C16 UNL     1      27.542   1.388  52.840  1.00  0.00     0.120 A 
HETATM   21  N2  UNL     1      26.287   1.700  52.731  1.00  0.00    -0.184 NA
ENDBRANCH   1  15
TORSDOF 1
ENDMDL
MODEL 8
REMARK VINA RESULT:      -7.1      2.011      2.458
REMARK  1 active torsions:
REMARK  status: ('A' for Active; 'I' for Inactive)
REMARK    1  A    between atoms: N1_5  and  C5_6 
ROOT
HETATM    1  C5  UNL     1      24.230   2.025  51.316  1.00  0.00     0.055 C 
HETATM    2  C6  UNL     1      25.390   2.444  51.784  1.00  0.00     0.010 C 
HETATM    3  C7  UNL     1      26.298   2.457  52.886  1.00  0.00     0.111 C 
HETATM    4  C8  UNL     1      26.400   2.065  54.139  1.00  0.00     0.108 C 
HETATM    5  O1  UNL     1      27.695   2.663  53.885  1.00  0.00    -0.386 OA
HETATM    6  C9  UNL     1      28.447   1.473  53.309  1.00  0.00     0.202 C 
HETATM    7  C10 UNL     1      27.396   0.443  52.947  1.00  0.00    -0.049 C 
HETATM    8  C11 UNL     1      26.940  -0.454  53.873  1.00  0.00     0.048 C 
HETATM    9  C12 UNL     1      25.469  -0.700  53.640  1.00  0.00     0.121 C 
HETATM   10  F1  UNL     1      24.560  -1.492  54.309  1.00  0.00    -0.206 F 
HETATM   11  C13 UNL     1      25.186   0.096  52.575  1.00  0.00    -0.013 C 
HETATM   12  C14 UNL     1      26.504  -0.085  51.834  1.00  0.00     0.075 C 
HETATM   13  C15 UNL     1      23.944   0.925  52.305  1.00  0.00     0.166 C 
HETATM   14 CL1  UNL     1      23.086   1.446  53.712  1.00  0.00    -0.113 Cl
ENDROOT
BRANCH   1  15
HETATM   15  N1  UNL     1      23.414   2.100  50.183  1.00  0.00    -0.248 N 
HETATM   16  C4  UNL     1      23.609   3.009  49.112  1.00  0.00     0.115 A 
HETATM   17  C3  UNL     1      22.714   2.882  48.154  1.00  0.00     0.002 A 
HETATM   18  C2  UNL     1      21.597   1.921  48.118  1.00  0.00     0.048 A 
HETATM   19  C1  UNL     1      20.296   2.715  48.052  1.00  0.00     0.020 C 
HETATM   20  C16 UNL     1      21.512   1.046  49.283  1.00  0.00     0.120 A 
HETATM   21  N2  UNL     1      22.386   1.159  50.236  1.00  0.00    -0.184 NA
ENDBRANCH   1  15
TORSDOF 1
ENDMDL
MODEL 9
REMARK VINA RESULT:      -7.0      8.203      9.756
REMARK  1 active torsions:
REMARK  status: ('A' for Active; 'I' for Inactive)
REMARK    1  A    between atoms: N1_5  and  C5_6 
ROOT
HETATM    1  C5  UNL     1      29.243   5.938  48.031  1.00  0.00     0.055 C 
HETATM    2  C6  UNL     1      30.367   5.289  47.792  1.00  0.00     0.010 C 
HETATM    3  C7  UNL     1      31.695   5.355  47.272  1.00  0.00     0.111 C 
HETATM    4  C8  UNL     1      32.516   6.175  46.648  1.00  0.00     0.108 C 
HETATM    5  O1  UNL     1      33.336   4.998  46.857  1.00  0.00    -0.386 OA
HETATM    6  C9  UNL     1      33.890   5.283  48.244  1.00  0.00     0.202 C 
HETATM    7  C10 UNL     1      33.032   6.390  48.824  1.00  0.00    -0.049 C 
HETATM    8  C11 UNL     1      33.319   7.705  48.577  1.00  0.00     0.048 C 
HETATM    9  C12 UNL     1      32.027   8.475  48.445  1.00  0.00     0.121 C 
HETATM   10  F1  UNL     1      31.784   9.807  48.179  1.00  0.00    -0.206 F 
HETATM   11  C13 UNL     1      31.076   7.521  48.626  1.00  0.00    -0.013 C 
HETATM   12  C14 UNL     1      31.812   6.702  49.677  1.00  0.00     0.075 C 
HETATM   13  C15 UNL     1      29.744   7.355  47.919  1.00  0.00     0.166 C 
HETATM   14 CL1  UNL     1      29.672   8.005  46.320  1.00  0.00    -0.113 Cl
ENDROOT
BRANCH   1  15
HETATM   15  N1  UNL     1      27.957   5.749  48.546  1.00  0.00    -0.248 N 
HETATM   16  C4  UNL     1      27.388   4.483  48.840  1.00  0.00     0.115 A 
HETATM   17  C3  UNL     1      26.166   4.564  49.324  1.00  0.00     0.002 A 
HETATM   18  C2  UNL     1      25.398   5.797  49.569  1.00  0.00     0.048 A 
HETATM   19  C1  UNL     1      24.135   5.742  48.717  1.00  0.00     0.020 C 
HETATM   20  C16 UNL     1      26.102   7.028  49.223  1.00  0.00     0.120 A 
HETATM   21  N2  UNL     1      27.307   6.966  48.744  1.00  0.00    -0.184 NA
ENDBRANCH   1  15
TORSDOF 1
ENDMDL
