MODEL 1
REMARK VINA RESULT:      -8.3      0.000      0.000
REMARK  4 active torsions:
REMARK  status: ('A' for Active; 'I' for Inactive)
REMARK    1  A    between atoms: C5_6  and  C6_7 
REMARK    2  A    between atoms: C6_7  and  O1_8 
REMARK    3  A    between atoms: O1_8  and  C7_9 
REMARK    4  A    between atoms: C10_12  and  N1_13 
ROOT
HETATM    1  C7  UNL     1      22.983   0.457  53.149  1.00  0.00     0.091 A 
HETATM    2  C8  UNL     1      23.881   1.165  52.380  1.00  0.00     0.041 A 
HETATM    3  C9  UNL     1      25.228   0.933  52.464  1.00  0.00     0.034 A 
HETATM    4  C10 UNL     1      25.768  -0.014  53.314  1.00  0.00     0.059 A 
HETATM    5  C15 UNL     1      24.843  -0.705  54.070  1.00  0.00     0.058 A 
HETATM    6  C16 UNL     1      23.481  -0.497  54.010  1.00  0.00     0.069 A 
HETATM    7 CL1  UNL     1      22.366  -1.425  55.012  1.00  0.00    -0.081 Cl
ENDROOT
BRANCH   1   8
HETATM    8  O1  UNL     1      21.614   0.672  53.083  1.00  0.00    -0.345 OA
BRANCH   8   9
HETATM    9  C6  UNL     1      20.909   0.905  51.881  1.00  0.00     0.214 C 
BRANCH   9  10
HETATM   10  C5  UNL     1      19.601   0.177  52.046  1.00  0.00    -0.031 A 
HETATM   11  C4  UNL     1      18.643   0.417  51.070  1.00  0.00     0.009 A 
HETATM   12  C3  UNL     1      17.398  -0.188  51.106  1.00  0.00     0.004 A 
HETATM   13  C2  UNL     1      17.134  -1.057  52.164  1.00  0.00     0.042 A 
HETATM   14  C1  UNL     1      18.093  -1.282  53.117  1.00  0.00     0.117 A 
HETATM   15  F1  UNL     1      17.823  -2.136  54.152  1.00  0.00    -0.206 F 
HETATM   16  C17 UNL     1      19.347  -0.677  53.090  1.00  0.00     0.051 A 
ENDBRANCH   9  10
ENDBRANCH   8   9
ENDBRANCH   1   8
BRANCH   4  17
HETATM   17  N1  UNL     1      27.169  -0.248  53.394  1.00  0.00    -0.246 N 
HETATM   18  C11 UNL     1      28.150   0.747  53.649  1.00  0.00     0.115 A 
HETATM   19  C12 UNL     1      29.438   0.521  53.720  1.00  0.00    -0.002 A 
HETATM   20  C13 UNL     1      29.943  -0.841  53.529  1.00  0.00     0.077 A 
HETATM   21  C14 UNL     1      28.879  -1.836  53.267  1.00  0.00     0.116 A 
HETATM   22  N2  UNL     1      27.620  -1.557  53.207  1.00  0.00    -0.184 NA
ENDBRANCH   4  17
TORSDOF 4
ENDMDL
MODEL 2
REMARK VINA RESULT:      -8.3      3.563      8.364
REMARK  4 active torsions:
REMARK  status: ('A' for Active; 'I' for Inactive)
REMARK    1  A    between atoms: C5_6  and  C6_7 
REMARK    2  A    between atoms: C6_7  and  O1_8 
REMARK    3  A    between atoms: O1_8  and  C7_9 
REMARK    4  A    between atoms: C10_12  and  N1_13 
ROOT
HETATM    1  C7  UNL     1      23.743   0.332  53.168  1.00  0.00     0.091 A 
HETATM    2  C8  UNL     1      23.075   0.919  52.115  1.00  0.00     0.041 A 
HETATM    3  C9  UNL     1      21.740   0.696  51.905  1.00  0.00     0.034 A 
HETATM    4  C10 UNL     1      20.986  -0.121  52.726  1.00  0.00     0.059 A 
HETATM    5  C15 UNL     1      21.683  -0.693  53.770  1.00  0.00     0.058 A 
HETATM    6  C16 UNL     1      23.026  -0.490  54.011  1.00  0.00     0.069 A 
HETATM    7 CL1  UNL     1      23.842  -1.261  55.370  1.00  0.00    -0.081 Cl
ENDROOT
BRANCH   1   8
HETATM    8  O1  UNL     1      25.095   0.541  53.403  1.00  0.00    -0.345 OA
BRANCH   8   9
HETATM    9  C6  UNL     1      26.038   0.817  52.387  1.00  0.00     0.214 C 
BRANCH   9  10
HETATM   10  C5  UNL     1      27.303   0.129  52.830  1.00  0.00    -0.031 A 
HETATM   11  C4  UNL     1      28.312   0.955  53.305  1.00  0.00     0.009 A 
HETATM   12  C3  UNL     1      29.524   0.450  53.742  1.00  0.00     0.004 A 
HETATM   13  C2  UNL     1      29.702  -0.932  53.690  1.00  0.00     0.042 A 
HETATM   14  C1  UNL     1      28.694  -1.733  53.218  1.00  0.00     0.117 A 
HETATM   15  F1  UNL     1      28.880  -3.088  53.170  1.00  0.00    -0.206 F 
HETATM   16  C17 UNL     1      27.472  -1.232  52.776  1.00  0.00     0.051 A 
ENDBRANCH   9  10
ENDBRANCH   8   9
ENDBRANCH   1   8
BRANCH   4  17
HETATM   17  N1  UNL     1      19.599  -0.346  52.500  1.00  0.00    -0.246 N 
HETATM   18  C11 UNL     1      18.867   0.126  51.379  1.00  0.00     0.115 A 
HETATM   19  C12 UNL     1      17.590  -0.086  51.180  1.00  0.00    -0.002 A 
HETATM   20  C13 UNL     1      16.827  -0.861  52.162  1.00  0.00     0.077 A 
HETATM   21  C14 UNL     1      17.638  -1.329  53.308  1.00  0.00     0.116 A 
HETATM   22  N2  UNL     1      18.898  -1.089  53.454  1.00  0.00    -0.184 NA
ENDBRANCH   4  17
TORSDOF 4
ENDMDL
MODEL 3
REMARK VINA RESULT:      -8.2      3.892      8.666
REMARK  4 active torsions:
REMARK  status: ('A' for Active; 'I' for Inactive)
REMARK    1  A    between atoms: C5_6  and  C6_7 
REMARK    2  A    between atoms: C6_7  and  O1_8 
REMARK    3  A    between atoms: O1_8  and  C7_9 
REMARK    4  A    between atoms: C10_12  and  N1_13 
ROOT
HETATM    1  C7  UNL     1      23.638  -0.169  53.433  1.00  0.00     0.091 A 
HETATM    2  C8  UNL     1      22.781  -0.976  54.149  1.00  0.00     0.041 A 
HETATM    3  C9  UNL     1      21.445  -1.036  53.852  1.00  0.00     0.034 A 
HETATM    4  C10 UNL     1      20.878  -0.301  52.828  1.00  0.00     0.059 A 
HETATM    5  C15 UNL     1      21.763   0.495  52.130  1.00  0.00     0.058 A 
HETATM    6  C16 UNL     1      23.112   0.579  52.402  1.00  0.00     0.069 A 
HETATM    7 CL1  UNL     1      24.175   1.624  51.461  1.00  0.00    -0.081 Cl
ENDROOT
BRANCH   1   8
HETATM    8  O1  UNL     1      24.995  -0.090  53.713  1.00  0.00    -0.345 OA
BRANCH   8   9
HETATM    9  C6  UNL     1      25.947  -1.043  53.285  1.00  0.00     0.214 C 
BRANCH   9  10
HETATM   10  C5  UNL     1      27.279  -0.353  53.415  1.00  0.00    -0.031 A 
HETATM   11  C4  UNL     1      28.398  -1.173  53.360  1.00  0.00     0.009 A 
HETATM   12  C3  UNL     1      29.681  -0.664  53.468  1.00  0.00     0.004 A 
HETATM   13  C2  UNL     1      29.816   0.713  53.635  1.00  0.00     0.042 A 
HETATM   14  C1  UNL     1      28.699   1.507  53.686  1.00  0.00     0.117 A 
HETATM   15  F1  UNL     1      28.844   2.858  53.851  1.00  0.00    -0.206 F 
HETATM   16  C17 UNL     1      27.405   1.004  53.579  1.00  0.00     0.051 A 
ENDBRANCH   9  10
ENDBRANCH   8   9
ENDBRANCH   1   8
BRANCH   4  17
HETATM   17  N1  UNL     1      19.490  -0.371  52.526  1.00  0.00    -0.246 N 
HETATM   18  C11 UNL     1      18.866   0.240  51.405  1.00  0.00     0.115 A 
HETATM   19  C12 UNL     1      17.586   0.171  51.136  1.00  0.00    -0.002 A 
HETATM   20  C13 UNL     1      16.701  -0.581  52.030  1.00  0.00     0.077 A 
HETATM   21  C14 UNL     1      17.402  -1.196  53.179  1.00  0.00     0.116 A 
HETATM   22  N2  UNL     1      18.671  -1.094  53.396  1.00  0.00    -0.184 NA
ENDBRANCH   4  17
TORSDOF 4
ENDMDL
MODEL 4
REMARK VINA RESULT:      -8.1      3.650      8.309
REMARK  4 active torsions:
REMARK  status: ('A' for Active; 'I' for Inactive)
REMARK    1  A    between atoms: C5_6  and  C6_7 
REMARK    2  A    between atoms: C6_7  and  O1_8 
REMARK    3  A    between atoms: O1_8  and  C7_9 
REMARK    4  A    between atoms: C10_12  and  N1_13 
ROOT
HETATM    1  C7  UNL     1      24.034   1.114  53.101  1.00  0.00     0.091 A 
HETATM    2  C8  UNL     1      23.654  -0.202  53.261  1.00  0.00     0.041 A 
HETATM    3  C9  UNL     1      22.353  -0.593  53.082  1.00  0.00     0.034 A 
HETATM    4  C10 UNL     1      21.352   0.293  52.734  1.00  0.00     0.059 A 
HETATM    5  C15 UNL     1      21.765   1.600  52.581  1.00  0.00     0.058 A 
HETATM    6  C16 UNL     1      23.065   2.029  52.753  1.00  0.00     0.069 A 
HETATM    7 CL1  UNL     1      23.509   3.721  52.539  1.00  0.00    -0.081 Cl
ENDROOT
BRANCH   1   8
HETATM    8  O1  UNL     1      25.344   1.536  53.276  1.00  0.00    -0.345 OA
BRANCH   8   9
HETATM    9  C6  UNL     1      26.321   1.524  52.254  1.00  0.00     0.214 C 
BRANCH   9  10
HETATM   10  C5  UNL     1      27.383   0.572  52.738  1.00  0.00    -0.031 A 
HETATM   11  C4  UNL     1      28.483   1.150  53.356  1.00  0.00     0.009 A 
HETATM   12  C3  UNL     1      29.530   0.387  53.845  1.00  0.00     0.004 A 
HETATM   13  C2  UNL     1      29.443  -0.997  53.695  1.00  0.00     0.042 A 
HETATM   14  C1  UNL     1      28.348  -1.549  53.082  1.00  0.00     0.117 A 
HETATM   15  F1  UNL     1      28.273  -2.908  52.940  1.00  0.00    -0.206 F 
HETATM   16  C17 UNL     1      27.291  -0.789  52.588  1.00  0.00     0.051 A 
ENDBRANCH   9  10
ENDBRANCH   8   9
ENDBRANCH   1   8
BRANCH   4  17
HETATM   17  N1  UNL     1      20.004  -0.124  52.550  1.00  0.00    -0.246 N 
HETATM   18  C11 UNL     1      19.267  -0.931  53.457  1.00  0.00     0.115 A 
HETATM   19  C12 UNL     1      18.027  -1.310  53.278  1.00  0.00    -0.002 A 
HETATM   20  C13 UNL     1      17.312  -0.891  52.069  1.00  0.00     0.077 A 
HETATM   21  C14 UNL     1      18.125  -0.052  51.161  1.00  0.00     0.116 A 
HETATM   22  N2  UNL     1      19.349   0.291  51.388  1.00  0.00    -0.184 NA
ENDBRANCH   4  17
TORSDOF 4
ENDMDL
MODEL 5
REMARK VINA RESULT:      -8.0      1.321      1.838
REMARK  4 active torsions:
REMARK  status: ('A' for Active; 'I' for Inactive)
REMARK    1  A    between atoms: C5_6  and  C6_7 
REMARK    2  A    between atoms: C6_7  and  O1_8 
REMARK    3  A    between atoms: O1_8  and  C7_9 
REMARK    4  A    between atoms: C10_12  and  N1_13 
ROOT
HETATM    1  C7  UNL     1      22.647  -0.138  53.632  1.00  0.00     0.091 A 
HETATM    2  C8  UNL     1      23.281  -0.854  54.625  1.00  0.00     0.041 A 
HETATM    3  C9  UNL     1      24.647  -0.951  54.671  1.00  0.00     0.034 A 
HETATM    4  C10 UNL     1      25.467  -0.345  53.738  1.00  0.00     0.059 A 
HETATM    5  C15 UNL     1      24.802   0.364  52.759  1.00  0.00     0.058 A 
HETATM    6  C16 UNL     1      23.430   0.482  52.682  1.00  0.00     0.069 A 
HETATM    7 CL1  UNL     1      22.658   1.407  51.395  1.00  0.00    -0.081 Cl
ENDROOT
BRANCH   1   8
HETATM    8  O1  UNL     1      21.266  -0.025  53.562  1.00  0.00    -0.345 OA
BRANCH   8   9
HETATM    9  C6  UNL     1      20.369  -1.016  54.020  1.00  0.00     0.214 C 
BRANCH   9  10
HETATM   10  C5  UNL     1      19.149  -0.874  53.148  1.00  0.00    -0.031 A 
HETATM   11  C4  UNL     1      19.269  -0.010  52.069  1.00  0.00     0.009 A 
HETATM   12  C3  UNL     1      18.221   0.211  51.191  1.00  0.00     0.004 A 
HETATM   13  C2  UNL     1      17.027  -0.470  51.428  1.00  0.00     0.042 A 
HETATM   14  C1  UNL     1      16.928  -1.320  52.499  1.00  0.00     0.117 A 
HETATM   15  F1  UNL     1      15.752  -1.983  52.722  1.00  0.00    -0.206 F 
HETATM   16  C17 UNL     1      17.977  -1.547  53.387  1.00  0.00     0.051 A 
ENDBRANCH   9  10
ENDBRANCH   8   9
ENDBRANCH   1   8
BRANCH   4  17
HETATM   17  N1  UNL     1      26.884  -0.450  53.795  1.00  0.00    -0.246 N 
HETATM   18  C11 UNL     1      27.746   0.471  54.447  1.00  0.00     0.115 A 
HETATM   19  C12 UNL     1      29.050   0.365  54.494  1.00  0.00    -0.002 A 
HETATM   20  C13 UNL     1      29.706  -0.770  53.839  1.00  0.00     0.077 A 
HETATM   21  C14 UNL     1      28.762  -1.697  53.177  1.00  0.00     0.116 A 
HETATM   22  N2  UNL     1      27.481  -1.544  53.162  1.00  0.00    -0.184 NA
ENDBRANCH   4  17
TORSDOF 4
ENDMDL
MODEL 6
REMARK VINA RESULT:      -7.8      2.770      3.588
REMARK  4 active torsions:
REMARK  status: ('A' for Active; 'I' for Inactive)
REMARK    1  A    between atoms: C5_6  and  C6_7 
REMARK    2  A    between atoms: C6_7  and  O1_8 
REMARK    3  A    between atoms: O1_8  and  C7_9 
REMARK    4  A    between atoms: C10_12  and  N1_13 
ROOT
HETATM    1  C7  UNL     1      22.542   0.910  53.131  1.00  0.00     0.091 A 
HETATM    2  C8  UNL     1      22.975  -0.324  53.567  1.00  0.00     0.041 A 
HETATM    3  C9  UNL     1      24.308  -0.592  53.733  1.00  0.00     0.034 A 
HETATM    4  C10 UNL     1      25.292   0.345  53.478  1.00  0.00     0.059 A 
HETATM    5  C15 UNL     1      24.825   1.569  53.044  1.00  0.00     0.058 A 
HETATM    6  C16 UNL     1      23.492   1.873  52.866  1.00  0.00     0.069 A 
HETATM    7 CL1  UNL     1      22.980   3.464  52.307  1.00  0.00    -0.081 Cl
ENDROOT
BRANCH   1   8
HETATM    8  O1  UNL     1      21.198   1.207  52.954  1.00  0.00    -0.345 OA
BRANCH   8   9
HETATM    9  C6  UNL     1      20.353   0.532  52.044  1.00  0.00     0.214 C 
BRANCH   9  10
HETATM   10  C5  UNL     1      20.544   1.243  50.731  1.00  0.00    -0.031 A 
HETATM   11  C4  UNL     1      19.781   2.387  50.541  1.00  0.00     0.009 A 
HETATM   12  C3  UNL     1      19.861   3.133  49.377  1.00  0.00     0.004 A 
HETATM   13  C2  UNL     1      20.742   2.693  48.389  1.00  0.00     0.042 A 
HETATM   14  C1  UNL     1      21.488   1.561  48.595  1.00  0.00     0.117 A 
HETATM   15  F1  UNL     1      22.349   1.138  47.619  1.00  0.00    -0.206 F 
HETATM   16  C17 UNL     1      21.413   0.805  49.763  1.00  0.00     0.051 A 
ENDBRANCH   9  10
ENDBRANCH   8   9
ENDBRANCH   1   8
BRANCH   4  17
HETATM   17  N1  UNL     1      26.674   0.057  53.654  1.00  0.00    -0.246 N 
HETATM   18  C11 UNL     1      27.379  -0.994  53.009  1.00  0.00     0.115 A 
HETATM   19  C12 UNL     1      28.651  -1.251  53.178  1.00  0.00    -0.002 A 
HETATM   20  C13 UNL     1      29.440  -0.418  54.090  1.00  0.00     0.077 A 
HETATM   21  C14 UNL     1      28.658   0.660  54.734  1.00  0.00     0.116 A 
HETATM   22  N2  UNL     1      27.400   0.868  54.531  1.00  0.00    -0.184 NA
ENDBRANCH   4  17
TORSDOF 4
ENDMDL
MODEL 7
REMARK VINA RESULT:      -7.6      1.661      2.171
REMARK  4 active torsions:
REMARK  status: ('A' for Active; 'I' for Inactive)
REMARK    1  A    between atoms: C5_6  and  C6_7 
REMARK    2  A    between atoms: C6_7  and  O1_8 
REMARK    3  A    between atoms: O1_8  and  C7_9 
REMARK    4  A    between atoms: C10_12  and  N1_13 
ROOT
HETATM    1  C7  UNL     1      22.345   0.273  52.781  1.00  0.00     0.091 A 
HETATM    2  C8  UNL     1      23.099   1.229  52.133  1.00  0.00     0.041 A 
HETATM    3  C9  UNL     1      24.422   1.416  52.435  1.00  0.00     0.034 A 
HETATM    4  C10 UNL     1      25.078   0.668  53.395  1.00  0.00     0.059 A 
HETATM    5  C15 UNL     1      24.295  -0.279  54.024  1.00  0.00     0.058 A 
HETATM    6  C16 UNL     1      22.962  -0.494  53.745  1.00  0.00     0.069 A 
HETATM    7 CL1  UNL     1      22.032  -1.726  54.596  1.00  0.00    -0.081 Cl
ENDROOT
BRANCH   1   8
HETATM    8  O1  UNL     1      21.003   0.064  52.494  1.00  0.00    -0.345 OA
BRANCH   8   9
HETATM    9  C6  UNL     1      20.351   0.579  51.350  1.00  0.00     0.214 C 
BRANCH   9  10
HETATM   10  C5  UNL     1      18.937   0.067  51.441  1.00  0.00    -0.031 A 
HETATM   11  C4  UNL     1      18.597  -0.576  52.623  1.00  0.00     0.009 A 
HETATM   12  C3  UNL     1      17.330  -1.094  52.833  1.00  0.00     0.004 A 
HETATM   13  C2  UNL     1      16.396  -0.947  51.808  1.00  0.00     0.042 A 
HETATM   14  C1  UNL     1      16.750  -0.308  50.648  1.00  0.00     0.117 A 
HETATM   15  F1  UNL     1      15.826  -0.171  49.648  1.00  0.00    -0.206 F 
HETATM   16  C17 UNL     1      18.022   0.215  50.428  1.00  0.00     0.051 A 
ENDBRANCH   9  10
ENDBRANCH   8   9
ENDBRANCH   1   8
BRANCH   4  17
HETATM   17  N1  UNL     1      26.452   0.869  53.701  1.00  0.00    -0.246 N 
HETATM   18  C11 UNL     1      27.255  -0.014  54.472  1.00  0.00     0.115 A 
HETATM   19  C12 UNL     1      28.520   0.180  54.749  1.00  0.00    -0.002 A 
HETATM   20  C13 UNL     1      29.192   1.382  54.247  1.00  0.00     0.077 A 
HETATM   21  C14 UNL     1      28.311   2.265  53.451  1.00  0.00     0.116 A 
HETATM   22  N2  UNL     1      27.066   2.024  53.209  1.00  0.00    -0.184 NA
ENDBRANCH   4  17
TORSDOF 4
ENDMDL
MODEL 8
REMARK VINA RESULT:      -7.6      4.894      5.974
REMARK  4 active torsions:
REMARK  status: ('A' for Active; 'I' for Inactive)
REMARK    1  A    between atoms: C5_6  and  C6_7 
REMARK    2  A    between atoms: C6_7  and  O1_8 
REMARK    3  A    between atoms: O1_8  and  C7_9 
REMARK    4  A    between atoms: C10_12  and  N1_13 
ROOT
HETATM    1  C7  UNL     1      24.451   2.922  50.553  1.00  0.00     0.091 A 
HETATM    2  C8  UNL     1      24.070   4.016  49.804  1.00  0.00     0.041 A 
HETATM    3  C9  UNL     1      24.997   4.823  49.201  1.00  0.00     0.034 A 
HETATM    4  C10 UNL     1      26.357   4.597  49.301  1.00  0.00     0.059 A 
HETATM    5  C15 UNL     1      26.705   3.495  50.056  1.00  0.00     0.058 A 
HETATM    6  C16 UNL     1      25.798   2.662  50.677  1.00  0.00     0.069 A 
HETATM    7 CL1  UNL     1      26.328   1.273  51.625  1.00  0.00    -0.081 Cl
ENDROOT
BRANCH   1   8
HETATM    8  O1  UNL     1      23.532   2.088  51.174  1.00  0.00    -0.345 OA
BRANCH   8   9
HETATM    9  C6  UNL     1      22.765   2.461  52.301  1.00  0.00     0.214 C 
BRANCH   9  10
HETATM   10  C5  UNL     1      22.304   1.162  52.909  1.00  0.00    -0.031 A 
HETATM   11  C4  UNL     1      23.302   0.331  53.398  1.00  0.00     0.009 A 
HETATM   12  C3  UNL     1      23.013  -0.892  53.980  1.00  0.00     0.004 A 
HETATM   13  C2  UNL     1      21.672  -1.266  54.061  1.00  0.00     0.042 A 
HETATM   14  C1  UNL     1      20.700  -0.431  53.573  1.00  0.00     0.117 A 
HETATM   15  F1  UNL     1      19.387  -0.808  53.657  1.00  0.00    -0.206 F 
HETATM   16  C17 UNL     1      20.983   0.800  52.986  1.00  0.00     0.051 A 
ENDBRANCH   9  10
ENDBRANCH   8   9
ENDBRANCH   1   8
BRANCH   4  17
HETATM   17  N1  UNL     1      27.312   5.441  48.670  1.00  0.00    -0.246 N 
HETATM   18  C11 UNL     1      27.040   6.730  48.140  1.00  0.00     0.115 A 
HETATM   19  C12 UNL     1      27.926   7.499  47.560  1.00  0.00    -0.002 A 
HETATM   20  C13 UNL     1      29.310   7.033  47.428  1.00  0.00     0.077 A 
HETATM   21  C14 UNL     1      29.537   5.686  47.996  1.00  0.00     0.116 A 
HETATM   22  N2  UNL     1      28.623   4.969  48.558  1.00  0.00    -0.184 NA
ENDBRANCH   4  17
TORSDOF 4
ENDMDL
MODEL 9
REMARK VINA RESULT:      -7.5      5.490      8.161
REMARK  4 active torsions:
REMARK  status: ('A' for Active; 'I' for Inactive)
REMARK    1  A    between atoms: C5_6  and  C6_7 
REMARK    2  A    between atoms: C6_7  and  O1_8 
REMARK    3  A    between atoms: O1_8  and  C7_9 
REMARK    4  A    between atoms: C10_12  and  N1_13 
ROOT
HETATM    1  C7  UNL     1      25.383   2.533  51.271  1.00  0.00     0.091 A 
HETATM    2  C8  UNL     1      26.494   2.572  50.456  1.00  0.00     0.041 A 
HETATM    3  C9  UNL     1      26.752   3.654  49.656  1.00  0.00     0.034 A 
HETATM    4  C10 UNL     1      25.926   4.762  49.616  1.00  0.00     0.059 A 
HETATM    5  C15 UNL     1      24.824   4.691  50.443  1.00  0.00     0.058 A 
HETATM    6  C16 UNL     1      24.534   3.619  51.260  1.00  0.00     0.069 A 
HETATM    7 CL1  UNL     1      23.102   3.608  52.288  1.00  0.00    -0.081 Cl
ENDROOT
BRANCH   1   8
HETATM    8  O1  UNL     1      25.098   1.449  52.090  1.00  0.00    -0.345 OA
BRANCH   8   9
HETATM    9  C6  UNL     1      25.538   1.335  53.428  1.00  0.00     0.214 C 
BRANCH   9  10
HETATM   10  C5  UNL     1      26.717   0.399  53.374  1.00  0.00    -0.031 A 
HETATM   11  C4  UNL     1      27.934   0.928  53.783  1.00  0.00     0.009 A 
HETATM   12  C3  UNL     1      29.095   0.174  53.781  1.00  0.00     0.004 A 
HETATM   13  C2  UNL     1      29.003  -1.149  53.350  1.00  0.00     0.042 A 
HETATM   14  C1  UNL     1      27.793  -1.654  52.950  1.00  0.00     0.117 A 
HETATM   15  F1  UNL     1      27.714  -2.953  52.529  1.00  0.00    -0.206 F 
HETATM   16  C17 UNL     1      26.620  -0.902  52.949  1.00  0.00     0.051 A 
ENDBRANCH   9  10
ENDBRANCH   8   9
ENDBRANCH   1   8
BRANCH   4  17
HETATM   17  N1  UNL     1      26.203   5.882  48.783  1.00  0.00    -0.246 N 
HETATM   18  C11 UNL     1      25.229   6.782  48.274  1.00  0.00     0.115 A 
HETATM   19  C12 UNL     1      25.494   7.809  47.507  1.00  0.00    -0.002 A 
HETATM   20  C13 UNL     1      26.881   8.085  47.124  1.00  0.00     0.077 A 
HETATM   21  C14 UNL     1      27.853   7.118  47.681  1.00  0.00     0.116 A 
HETATM   22  N2  UNL     1      27.535   6.119  48.434  1.00  0.00    -0.184 NA
ENDBRANCH   4  17
TORSDOF 4
ENDMDL
