MODEL 1
REMARK VINA RESULT:      -8.7      0.000      0.000
REMARK  5 active torsions:
REMARK  status: ('A' for Active; 'I' for Inactive)
REMARK    1  A    between atoms: C5_5  and  N1_6 
REMARK       I    between atoms: N1_6  and  C6_7 
REMARK    2  A    between atoms: C6_7  and  C7_9 
REMARK    3  A    between atoms: C11_14  and  N3_15 
REMARK    4  A    between atoms: N3_15  and  C12_16 
REMARK    5  A    between atoms: C12_16  and  C13_17 
ROOT
HETATM    1  C7  UNL     1      22.798   0.767  53.203  1.00  0.00     0.077 A 
HETATM    2  C8  UNL     1      21.541   0.811  53.759  1.00  0.00     0.022 A 
HETATM    3  C9  UNL     1      21.194  -0.238  54.568  1.00  0.00     0.020 A 
HETATM    4  C10 UNL     1      21.965  -1.322  54.879  1.00  0.00     0.119 A 
HETATM    5  N2  UNL     1      23.165  -1.312  54.316  1.00  0.00    -0.243 NA
HETATM    6  C11 UNL     1      23.613  -0.324  53.498  1.00  0.00     0.139 A 
ENDROOT
BRANCH   1   7
HETATM    7  C6  UNL     1      23.112   1.899  52.347  1.00  0.00     0.260 C 
HETATM    8  N1  UNL     1      23.945   2.966  52.729  1.00  0.00    -0.323 N 
HETATM    9  H4  UNL     1      24.412   3.015  53.687  1.00  0.00     0.169 HD
HETATM   10  O1  UNL     1      22.800   2.245  51.181  1.00  0.00    -0.267 OA
BRANCH   8  11
HETATM   11  C5  UNL     1      24.181   4.001  51.841  1.00  0.00     0.034 C 
HETATM   12  C4  UNL     1      25.279   3.794  50.817  1.00  0.00     0.059 C 
HETATM   13  C3  UNL     1      25.265   4.974  50.059  1.00  0.00     0.036 C 
HETATM   14  C2  UNL     1      24.102   5.331  49.180  1.00  0.00    -0.027 C 
HETATM   15  N5  UNL     1      26.301   6.032  49.960  1.00  0.00    -0.388 N 
HETATM   16  C1  UNL     1      23.237   5.386  48.173  1.00  0.00     0.022 C 
HETATM   17  C19 UNL     1      23.947   6.174  50.402  1.00  0.00     0.020 C 
HETATM   18  C18 UNL     1      23.759   5.220  51.507  1.00  0.00     0.018 C 
HETATM   19  C20 UNL     1      22.733   7.084  50.275  1.00  0.00     0.027 C 
HETATM   20  C21 UNL     1      25.218   6.996  50.332  1.00  0.00     0.138 C 
HETATM   21  H21 UNL     1      27.285   5.695  49.697  1.00  0.00     0.159 HD
ENDBRANCH   8  11
ENDBRANCH   1   7
BRANCH   6  22
HETATM   22  N3  UNL     1      24.890  -0.259  52.872  1.00  0.00    -0.370 N 
HETATM   23  H8  UNL     1      24.664  -0.874  52.047  1.00  0.00     0.161 HD
BRANCH  22  24
HETATM   24  C12 UNL     1      26.151  -0.196  52.252  1.00  0.00     0.160 C 
BRANCH  24  25
HETATM   25  C13 UNL     1      27.196   0.445  53.122  1.00  0.00    -0.038 A 
HETATM   26  C14 UNL     1      27.760  -0.215  54.195  1.00  0.00     0.028 A 
HETATM   27  C15 UNL     1      28.716   0.489  54.922  1.00  0.00     0.116 A 
HETATM   28  N4  UNL     1      29.096   1.763  54.620  1.00  0.00    -0.273 NA
HETATM   29  C16 UNL     1      28.553   2.429  53.568  1.00  0.00     0.116 A 
HETATM   30  C17 UNL     1      27.594   1.745  52.825  1.00  0.00     0.028 A 
ENDBRANCH  24  25
ENDBRANCH  22  24
ENDBRANCH   6  22
TORSDOF 5
ENDMDL
MODEL 2
REMARK VINA RESULT:      -8.6      2.138      7.159
REMARK  5 active torsions:
REMARK  status: ('A' for Active; 'I' for Inactive)
REMARK    1  A    between atoms: C5_5  and  N1_6 
REMARK       I    between atoms: N1_6  and  C6_7 
REMARK    2  A    between atoms: C6_7  and  C7_9 
REMARK    3  A    between atoms: C11_14  and  N3_15 
REMARK    4  A    between atoms: N3_15  and  C12_16 
REMARK    5  A    between atoms: C12_16  and  C13_17 
ROOT
HETATM    1  C7  UNL     1      24.752   4.206  49.839  1.00  0.00     0.077 A 
HETATM    2  C8  UNL     1      25.565   5.316  49.820  1.00  0.00     0.022 A 
HETATM    3  C9  UNL     1      25.209   6.318  48.958  1.00  0.00     0.020 A 
HETATM    4  C10 UNL     1      24.133   6.331  48.117  1.00  0.00     0.119 A 
HETATM    5  N2  UNL     1      23.385   5.238  48.177  1.00  0.00    -0.243 NA
HETATM    6  C11 UNL     1      23.644   4.185  48.995  1.00  0.00     0.139 A 
ENDROOT
BRANCH   1   7
HETATM    7  C6  UNL     1      25.179   3.169  50.764  1.00  0.00     0.260 C 
HETATM    8  N1  UNL     1      26.515   2.968  51.157  1.00  0.00    -0.323 N 
HETATM    9  H4  UNL     1      27.316   3.575  50.797  1.00  0.00     0.169 HD
HETATM   10  O1  UNL     1      24.601   2.261  51.411  1.00  0.00    -0.267 OA
BRANCH   8  11
HETATM   11  C5  UNL     1      26.822   1.950  52.042  1.00  0.00     0.034 C 
HETATM   12  C4  UNL     1      26.938   2.321  53.506  1.00  0.00     0.059 C 
HETATM   13  C3  UNL     1      27.223   1.106  54.145  1.00  0.00     0.036 C 
HETATM   14  C2  UNL     1      26.219  -0.009  54.200  1.00  0.00    -0.027 C 
HETATM   15  N5  UNL     1      28.462   0.688  54.848  1.00  0.00    -0.388 N 
HETATM   16  C1  UNL     1      25.182  -0.773  54.524  1.00  0.00     0.022 C 
HETATM   17  C19 UNL     1      27.187  -0.401  53.133  1.00  0.00     0.020 C 
HETATM   18  C18 UNL     1      27.063   0.641  52.100  1.00  0.00     0.018 C 
HETATM   19  C20 UNL     1      26.827  -1.764  52.557  1.00  0.00     0.027 C 
HETATM   20  C21 UNL     1      28.463  -0.503  53.943  1.00  0.00     0.138 C 
HETATM   21  H21 UNL     1      28.801   1.350  55.623  1.00  0.00     0.159 HD
ENDBRANCH   8  11
ENDBRANCH   1   7
BRANCH   6  22
HETATM   22  N3  UNL     1      22.876   2.991  49.104  1.00  0.00    -0.370 N 
HETATM   23  H8  UNL     1      22.148   3.236  48.381  1.00  0.00     0.161 HD
BRANCH  22  24
HETATM   24  C12 UNL     1      22.115   1.813  49.211  1.00  0.00     0.160 C 
BRANCH  24  25
HETATM   25  C13 UNL     1      21.460   1.663  50.555  1.00  0.00    -0.038 A 
HETATM   26  C14 UNL     1      20.924   2.741  51.231  1.00  0.00     0.028 A 
HETATM   27  C15 UNL     1      20.345   2.470  52.469  1.00  0.00     0.116 A 
HETATM   28  N4  UNL     1      20.295   1.221  53.013  1.00  0.00    -0.273 NA
HETATM   29  C16 UNL     1      20.817   0.148  52.362  1.00  0.00     0.116 A 
HETATM   30  C17 UNL     1      21.401   0.394  51.122  1.00  0.00     0.028 A 
ENDBRANCH  24  25
ENDBRANCH  22  24
ENDBRANCH   6  22
TORSDOF 5
ENDMDL
MODEL 3
REMARK VINA RESULT:      -8.6      1.035      1.680
REMARK  5 active torsions:
REMARK  status: ('A' for Active; 'I' for Inactive)
REMARK    1  A    between atoms: C5_5  and  N1_6 
REMARK       I    between atoms: N1_6  and  C6_7 
REMARK    2  A    between atoms: C6_7  and  C7_9 
REMARK    3  A    between atoms: C11_14  and  N3_15 
REMARK    4  A    between atoms: N3_15  and  C12_16 
REMARK    5  A    between atoms: C12_16  and  C13_17 
ROOT
HETATM    1  C7  UNL     1      22.889   0.960  53.114  1.00  0.00     0.077 A 
HETATM    2  C8  UNL     1      21.628   1.000  53.663  1.00  0.00     0.022 A 
HETATM    3  C9  UNL     1      21.240  -0.099  54.382  1.00  0.00     0.020 A 
HETATM    4  C10 UNL     1      21.973  -1.228  54.610  1.00  0.00     0.119 A 
HETATM    5  N2  UNL     1      23.178  -1.212  54.058  1.00  0.00    -0.243 NA
HETATM    6  C11 UNL     1      23.666  -0.177  53.327  1.00  0.00     0.139 A 
ENDROOT
BRANCH   1   7
HETATM    7  C6  UNL     1      23.247   2.146  52.354  1.00  0.00     0.260 C 
HETATM    8  N1  UNL     1      22.491   3.333  52.346  1.00  0.00    -0.323 N 
HETATM    9  H4  UNL     1      21.590   3.442  52.907  1.00  0.00     0.169 HD
HETATM   10  O1  UNL     1      24.189   2.458  51.584  1.00  0.00    -0.267 OA
BRANCH   8  11
HETATM   11  C5  UNL     1      22.916   4.408  51.586  1.00  0.00     0.034 C 
HETATM   12  C4  UNL     1      23.871   5.382  52.245  1.00  0.00     0.059 C 
HETATM   13  C3  UNL     1      24.138   6.328  51.245  1.00  0.00     0.036 C 
HETATM   14  C2  UNL     1      24.894   5.965  50.000  1.00  0.00    -0.027 C 
HETATM   15  N5  UNL     1      23.771   7.766  51.197  1.00  0.00    -0.388 N 
HETATM   16  C1  UNL     1      25.862   5.671  49.138  1.00  0.00     0.022 C 
HETATM   17  C19 UNL     1      23.459   6.012  49.591  1.00  0.00     0.020 C 
HETATM   18  C18 UNL     1      22.800   4.956  50.377  1.00  0.00     0.018 C 
HETATM   19  C20 UNL     1      23.317   5.730  48.101  1.00  0.00     0.027 C 
HETATM   20  C21 UNL     1      23.139   7.465  49.875  1.00  0.00     0.138 C 
HETATM   21  H21 UNL     1      24.078   8.351  52.044  1.00  0.00     0.159 HD
ENDBRANCH   8  11
ENDBRANCH   1   7
BRANCH   6  22
HETATM   22  N3  UNL     1      24.950  -0.104  52.717  1.00  0.00    -0.370 N 
HETATM   23  H8  UNL     1      25.519  -0.293  53.584  1.00  0.00     0.161 HD
BRANCH  22  24
HETATM   24  C12 UNL     1      26.219  -0.032  52.116  1.00  0.00     0.160 C 
BRANCH  24  25
HETATM   25  C13 UNL     1      27.241   0.637  52.992  1.00  0.00    -0.038 A 
HETATM   26  C14 UNL     1      27.629   1.947  52.792  1.00  0.00     0.028 A 
HETATM   27  C15 UNL     1      28.585   2.450  53.672  1.00  0.00     0.116 A 
HETATM   28  N4  UNL     1      29.130   1.717  54.683  1.00  0.00    -0.273 NA
HETATM   29  C16 UNL     1      28.760   0.426  54.895  1.00  0.00     0.116 A 
HETATM   30  C17 UNL     1      27.805  -0.099  54.029  1.00  0.00     0.028 A 
ENDBRANCH  24  25
ENDBRANCH  22  24
ENDBRANCH   6  22
TORSDOF 5
ENDMDL
MODEL 4
REMARK VINA RESULT:      -8.3      2.295      6.294
REMARK  5 active torsions:
REMARK  status: ('A' for Active; 'I' for Inactive)
REMARK    1  A    between atoms: C5_5  and  N1_6 
REMARK       I    between atoms: N1_6  and  C6_7 
REMARK    2  A    between atoms: C6_7  and  C7_9 
REMARK    3  A    between atoms: C11_14  and  N3_15 
REMARK    4  A    between atoms: N3_15  and  C12_16 
REMARK    5  A    between atoms: C12_16  and  C13_17 
ROOT
HETATM    1  C7  UNL     1      25.913   1.737  52.929  1.00  0.00     0.077 A 
HETATM    2  C8  UNL     1      26.384   1.116  54.063  1.00  0.00     0.022 A 
HETATM    3  C9  UNL     1      27.734   1.184  54.280  1.00  0.00     0.020 A 
HETATM    4  C10 UNL     1      28.660   1.803  53.491  1.00  0.00     0.119 A 
HETATM    5  N2  UNL     1      28.151   2.384  52.413  1.00  0.00    -0.243 NA
HETATM    6  C11 UNL     1      26.829   2.379  52.100  1.00  0.00     0.139 A 
ENDROOT
BRANCH   1   7
HETATM    7  C6  UNL     1      24.475   1.627  52.742  1.00  0.00     0.260 C 
HETATM    8  N1  UNL     1      23.775   0.407  52.729  1.00  0.00    -0.323 N 
HETATM    9  H4  UNL     1      24.261  -0.534  52.860  1.00  0.00     0.169 HD
HETATM   10  O1  UNL     1      23.538   2.442  52.560  1.00  0.00    -0.267 OA
BRANCH   8  11
HETATM   11  C5  UNL     1      22.405   0.407  52.540  1.00  0.00     0.034 C 
HETATM   12  C4  UNL     1      21.539   0.563  53.774  1.00  0.00     0.059 C 
HETATM   13  C3  UNL     1      20.229   0.553  53.276  1.00  0.00     0.036 C 
HETATM   14  C2  UNL     1      19.709   1.662  52.407  1.00  0.00    -0.027 C 
HETATM   15  N5  UNL     1      19.159  -0.456  53.479  1.00  0.00    -0.388 N 
HETATM   16  C1  UNL     1      19.223   2.822  51.977  1.00  0.00     0.022 C 
HETATM   17  C19 UNL     1      20.019   0.540  51.472  1.00  0.00     0.020 C 
HETATM   18  C18 UNL     1      21.471   0.328  51.593  1.00  0.00     0.018 C 
HETATM   19  C20 UNL     1      19.656   0.916  50.043  1.00  0.00     0.027 C 
HETATM   20  C21 UNL     1      19.064  -0.518  51.987  1.00  0.00     0.138 C 
HETATM   21  H21 UNL     1      18.934  -0.693  54.501  1.00  0.00     0.159 HD
ENDBRANCH   8  11
ENDBRANCH   1   7
BRANCH   6  22
HETATM   22  N3  UNL     1      26.228   2.989  50.962  1.00  0.00    -0.370 N 
HETATM   23  H8  UNL     1      26.887   2.597  50.239  1.00  0.00     0.161 HD
BRANCH  22  24
HETATM   24  C12 UNL     1      25.636   3.591  49.838  1.00  0.00     0.160 C 
BRANCH  24  25
HETATM   25  C13 UNL     1      26.358   4.833  49.394  1.00  0.00    -0.038 A 
HETATM   26  C14 UNL     1      25.840   6.095  49.607  1.00  0.00     0.028 A 
HETATM   27  C15 UNL     1      26.606   7.164  49.148  1.00  0.00     0.116 A 
HETATM   28  N4  UNL     1      27.804   7.009  48.517  1.00  0.00    -0.273 NA
HETATM   29  C16 UNL     1      28.329   5.774  48.298  1.00  0.00     0.116 A 
HETATM   30  C17 UNL     1      27.582   4.689  48.749  1.00  0.00     0.028 A 
ENDBRANCH  24  25
ENDBRANCH  22  24
ENDBRANCH   6  22
TORSDOF 5
ENDMDL
MODEL 5
REMARK VINA RESULT:      -8.2      2.744      6.037
REMARK  5 active torsions:
REMARK  status: ('A' for Active; 'I' for Inactive)
REMARK    1  A    between atoms: C5_5  and  N1_6 
REMARK       I    between atoms: N1_6  and  C6_7 
REMARK    2  A    between atoms: C6_7  and  C7_9 
REMARK    3  A    between atoms: C11_14  and  N3_15 
REMARK    4  A    between atoms: N3_15  and  C12_16 
REMARK    5  A    between atoms: C12_16  and  C13_17 
ROOT
HETATM    1  C7  UNL     1      19.830  -0.311  52.475  1.00  0.00     0.077 A 
HETATM    2  C8  UNL     1      19.210  -1.098  53.418  1.00  0.00     0.022 A 
HETATM    3  C9  UNL     1      17.843  -1.153  53.363  1.00  0.00     0.020 A 
HETATM    4  C10 UNL     1      17.033  -0.510  52.471  1.00  0.00     0.119 A 
HETATM    5  N2  UNL     1      17.684   0.233  51.586  1.00  0.00    -0.243 NA
HETATM    6  C11 UNL     1      19.036   0.359  51.549  1.00  0.00     0.139 A 
ENDROOT
BRANCH   1   7
HETATM    7  C6  UNL     1      21.280  -0.281  52.584  1.00  0.00     0.260 C 
HETATM    8  N1  UNL     1      21.973   0.097  53.748  1.00  0.00    -0.323 N 
HETATM    9  H4  UNL     1      21.473   0.390  54.644  1.00  0.00     0.169 HD
HETATM   10  O1  UNL     1      22.235  -0.538  51.810  1.00  0.00    -0.267 OA
BRANCH   8  11
HETATM   11  C5  UNL     1      23.357   0.096  53.750  1.00  0.00     0.034 C 
HETATM   12  C4  UNL     1      24.043  -0.858  54.706  1.00  0.00     0.059 C 
HETATM   13  C3  UNL     1      25.410  -0.656  54.468  1.00  0.00     0.036 C 
HETATM   14  C2  UNL     1      26.045  -1.036  53.161  1.00  0.00    -0.027 C 
HETATM   15  N5  UNL     1      26.441  -0.081  55.368  1.00  0.00    -0.388 N 
HETATM   16  C1  UNL     1      26.587  -1.723  52.161  1.00  0.00     0.022 C 
HETATM   17  C19 UNL     1      25.867   0.445  53.098  1.00  0.00     0.020 C 
HETATM   18  C18 UNL     1      24.412   0.660  53.166  1.00  0.00     0.018 C 
HETATM   19  C20 UNL     1      26.425   0.997  51.794  1.00  0.00     0.027 C 
HETATM   20  C21 UNL     1      26.742   0.877  54.258  1.00  0.00     0.138 C 
HETATM   21  H21 UNL     1      26.523  -0.542  56.334  1.00  0.00     0.159 HD
ENDBRANCH   8  11
ENDBRANCH   1   7
BRANCH   6  22
HETATM   22  N3  UNL     1      19.786   1.137  50.621  1.00  0.00    -0.370 N 
HETATM   23  H8  UNL     1      19.590   2.080  51.049  1.00  0.00     0.161 HD
BRANCH  22  24
HETATM   24  C12 UNL     1      20.526   1.906  49.706  1.00  0.00     0.160 C 
BRANCH  24  25
HETATM   25  C13 UNL     1      21.704   2.592  50.340  1.00  0.00    -0.038 A 
HETATM   26  C14 UNL     1      21.604   3.244  51.552  1.00  0.00     0.028 A 
HETATM   27  C15 UNL     1      22.767   3.841  52.032  1.00  0.00     0.116 A 
HETATM   28  N4  UNL     1      23.956   3.803  51.366  1.00  0.00    -0.273 NA
HETATM   29  C16 UNL     1      24.074   3.166  50.172  1.00  0.00     0.116 A 
HETATM   30  C17 UNL     1      22.923   2.561  49.671  1.00  0.00     0.028 A 
ENDBRANCH  24  25
ENDBRANCH  22  24
ENDBRANCH   6  22
TORSDOF 5
ENDMDL
MODEL 6
REMARK VINA RESULT:      -8.1      2.193      6.027
REMARK  5 active torsions:
REMARK  status: ('A' for Active; 'I' for Inactive)
REMARK    1  A    between atoms: C5_5  and  N1_6 
REMARK       I    between atoms: N1_6  and  C6_7 
REMARK    2  A    between atoms: C6_7  and  C7_9 
REMARK    3  A    between atoms: C11_14  and  N3_15 
REMARK    4  A    between atoms: N3_15  and  C12_16 
REMARK    5  A    between atoms: C12_16  and  C13_17 
ROOT
HETATM    1  C7  UNL     1      26.141   1.285  53.256  1.00  0.00     0.077 A 
HETATM    2  C8  UNL     1      26.474   0.703  54.457  1.00  0.00     0.022 A 
HETATM    3  C9  UNL     1      27.810   0.627  54.749  1.00  0.00     0.020 A 
HETATM    4  C10 UNL     1      28.843   1.067  53.973  1.00  0.00     0.119 A 
HETATM    5  N2  UNL     1      28.465   1.619  52.829  1.00  0.00    -0.243 NA
HETATM    6  C11 UNL     1      27.170   1.747  52.438  1.00  0.00     0.139 A 
ENDROOT
BRANCH   1   7
HETATM    7  C6  UNL     1      24.713   1.333  52.991  1.00  0.00     0.260 C 
HETATM    8  N1  UNL     1      23.930   0.203  52.695  1.00  0.00    -0.323 N 
HETATM    9  H4  UNL     1      24.339  -0.782  52.645  1.00  0.00     0.169 HD
HETATM   10  O1  UNL     1      23.847   2.241  52.947  1.00  0.00    -0.267 OA
BRANCH   8  11
HETATM   11  C5  UNL     1      22.575   0.353  52.455  1.00  0.00     0.034 C 
HETATM   12  C4  UNL     1      21.672   0.484  53.664  1.00  0.00     0.059 C 
HETATM   13  C3  UNL     1      20.391   0.645  53.118  1.00  0.00     0.036 C 
HETATM   14  C2  UNL     1      20.018   1.871  52.335  1.00  0.00    -0.027 C 
HETATM   15  N5  UNL     1      19.224  -0.269  53.188  1.00  0.00    -0.388 N 
HETATM   16  C1  UNL     1      19.663   3.105  51.993  1.00  0.00     0.022 C 
HETATM   17  C19 UNL     1      20.264   0.809  51.314  1.00  0.00     0.020 C 
HETATM   18  C18 UNL     1      21.683   0.447  51.470  1.00  0.00     0.018 C 
HETATM   19  C20 UNL     1      20.005   1.342  49.912  1.00  0.00     0.027 C 
HETATM   20  C21 UNL     1      19.192  -0.192  51.694  1.00  0.00     0.138 C 
HETATM   21  H21 UNL     1      18.930  -0.571  54.175  1.00  0.00     0.159 HD
ENDBRANCH   8  11
ENDBRANCH   1   7
BRANCH   6  22
HETATM   22  N3  UNL     1      26.707   2.333  51.227  1.00  0.00    -0.370 N 
HETATM   23  H8  UNL     1      26.102   1.529  50.913  1.00  0.00     0.161 HD
BRANCH  22  24
HETATM   24  C12 UNL     1      26.249   2.911  50.029  1.00  0.00     0.160 C 
BRANCH  24  25
HETATM   25  C13 UNL     1      24.923   3.602  50.186  1.00  0.00    -0.038 A 
HETATM   26  C14 UNL     1      23.758   3.071  49.670  1.00  0.00     0.028 A 
HETATM   27  C15 UNL     1      22.595   3.808  49.882  1.00  0.00     0.116 A 
HETATM   28  N4  UNL     1      22.574   4.993  50.555  1.00  0.00    -0.273 NA
HETATM   29  C16 UNL     1      23.711   5.531  51.069  1.00  0.00     0.116 A 
HETATM   30  C17 UNL     1      24.887   4.812  50.871  1.00  0.00     0.028 A 
ENDBRANCH  24  25
ENDBRANCH  22  24
ENDBRANCH   6  22
TORSDOF 5
ENDMDL
MODEL 7
REMARK VINA RESULT:      -8.0      1.669      2.369
REMARK  5 active torsions:
REMARK  status: ('A' for Active; 'I' for Inactive)
REMARK    1  A    between atoms: C5_5  and  N1_6 
REMARK       I    between atoms: N1_6  and  C6_7 
REMARK    2  A    between atoms: C6_7  and  C7_9 
REMARK    3  A    between atoms: C11_14  and  N3_15 
REMARK    4  A    between atoms: N3_15  and  C12_16 
REMARK    5  A    between atoms: C12_16  and  C13_17 
ROOT
HETATM    1  C7  UNL     1      22.551   0.532  52.863  1.00  0.00     0.077 A 
HETATM    2  C8  UNL     1      21.238   0.148  53.010  1.00  0.00     0.022 A 
HETATM    3  C9  UNL     1      20.995  -0.872  53.890  1.00  0.00     0.020 A 
HETATM    4  C10 UNL     1      21.918  -1.546  54.636  1.00  0.00     0.119 A 
HETATM    5  N2  UNL     1      23.166  -1.136  54.455  1.00  0.00    -0.243 NA
HETATM    6  C11 UNL     1      23.520  -0.134  53.609  1.00  0.00     0.139 A 
ENDROOT
BRANCH   1   7
HETATM    7  C6  UNL     1      22.754   1.611  51.911  1.00  0.00     0.260 C 
HETATM    8  N1  UNL     1      22.913   2.961  52.274  1.00  0.00    -0.323 N 
HETATM    9  H4  UNL     1      22.896   3.287  53.290  1.00  0.00     0.169 HD
HETATM   10  O1  UNL     1      22.841   1.689  50.661  1.00  0.00    -0.267 OA
BRANCH   8  11
HETATM   11  C5  UNL     1      23.099   3.916  51.291  1.00  0.00     0.034 C 
HETATM   12  C4  UNL     1      21.901   4.767  50.921  1.00  0.00     0.059 C 
HETATM   13  C3  UNL     1      22.392   5.641  49.940  1.00  0.00     0.036 C 
HETATM   14  C2  UNL     1      23.414   6.692  50.264  1.00  0.00    -0.027 C 
HETATM   15  N5  UNL     1      22.042   5.720  48.500  1.00  0.00    -0.388 N 
HETATM   16  C1  UNL     1      24.009   7.800  50.692  1.00  0.00     0.022 C 
HETATM   17  C19 UNL     1      24.173   5.595  49.594  1.00  0.00     0.020 C 
HETATM   18  C18 UNL     1      24.023   4.427  50.479  1.00  0.00     0.018 C 
HETATM   19  C20 UNL     1      25.643   5.968  49.454  1.00  0.00     0.027 C 
HETATM   20  C21 UNL     1      23.509   5.591  48.233  1.00  0.00     0.138 C 
HETATM   21  H21 UNL     1      20.996   5.820  48.281  1.00  0.00     0.159 HD
ENDBRANCH   8  11
ENDBRANCH   1   7
BRANCH   6  22
HETATM   22  N3  UNL     1      24.839   0.350  53.379  1.00  0.00    -0.370 N 
HETATM   23  H8  UNL     1      25.316  -0.196  54.144  1.00  0.00     0.161 HD
BRANCH  22  24
HETATM   24  C12 UNL     1      26.142   0.828  53.153  1.00  0.00     0.160 C 
BRANCH  24  25
HETATM   25  C13 UNL     1      27.178  -0.261  53.201  1.00  0.00    -0.038 A 
HETATM   26  C14 UNL     1      28.448  -0.040  53.695  1.00  0.00     0.028 A 
HETATM   27  C15 UNL     1      29.315  -1.130  53.683  1.00  0.00     0.116 A 
HETATM   28  N4  UNL     1      28.962  -2.361  53.216  1.00  0.00    -0.273 NA
HETATM   29  C16 UNL     1      27.716  -2.597  52.726  1.00  0.00     0.116 A 
HETATM   30  C17 UNL     1      26.831  -1.522  52.728  1.00  0.00     0.028 A 
ENDBRANCH  24  25
ENDBRANCH  22  24
ENDBRANCH   6  22
TORSDOF 5
ENDMDL
MODEL 8
REMARK VINA RESULT:      -8.0      1.730      4.585
REMARK  5 active torsions:
REMARK  status: ('A' for Active; 'I' for Inactive)
REMARK    1  A    between atoms: C5_5  and  N1_6 
REMARK       I    between atoms: N1_6  and  C6_7 
REMARK    2  A    between atoms: C6_7  and  C7_9 
REMARK    3  A    between atoms: C11_14  and  N3_15 
REMARK    4  A    between atoms: N3_15  and  C12_16 
REMARK    5  A    between atoms: C12_16  and  C13_17 
ROOT
HETATM    1  C7  UNL     1      26.994   1.452  53.064  1.00  0.00     0.077 A 
HETATM    2  C8  UNL     1      28.074   2.272  53.293  1.00  0.00     0.022 A 
HETATM    3  C9  UNL     1      28.988   1.835  54.215  1.00  0.00     0.020 A 
HETATM    4  C10 UNL     1      28.938   0.671  54.928  1.00  0.00     0.119 A 
HETATM    5  N2  UNL     1      27.877  -0.079  54.667  1.00  0.00    -0.243 NA
HETATM    6  C11 UNL     1      26.910   0.257  53.773  1.00  0.00     0.139 A 
ENDROOT
BRANCH   1   7
HETATM    7  C6  UNL     1      26.051   1.968  52.084  1.00  0.00     0.260 C 
HETATM    8  N1  UNL     1      25.501   3.262  52.128  1.00  0.00    -0.323 N 
HETATM    9  H4  UNL     1      25.745   3.963  52.895  1.00  0.00     0.169 HD
HETATM   10  O1  UNL     1      25.506   1.511  51.050  1.00  0.00    -0.267 OA
BRANCH   8  11
HETATM   11  C5  UNL     1      24.608   3.658  51.148  1.00  0.00     0.034 C 
HETATM   12  C4  UNL     1      25.193   4.116  49.828  1.00  0.00     0.059 C 
HETATM   13  C3  UNL     1      24.070   4.422  49.045  1.00  0.00     0.036 C 
HETATM   14  C2  UNL     1      23.113   3.358  48.593  1.00  0.00    -0.027 C 
HETATM   15  N5  UNL     1      23.621   5.740  48.532  1.00  0.00    -0.388 N 
HETATM   16  C1  UNL     1      22.545   2.350  47.939  1.00  0.00     0.022 C 
HETATM   17  C19 UNL     1      22.437   4.038  49.738  1.00  0.00     0.020 C 
HETATM   18  C18 UNL     1      23.306   3.790  50.900  1.00  0.00     0.018 C 
HETATM   19  C20 UNL     1      21.055   3.444  49.973  1.00  0.00     0.027 C 
HETATM   20  C21 UNL     1      22.308   5.443  49.187  1.00  0.00     0.138 C 
HETATM   21  H21 UNL     1      24.351   6.293  47.971  1.00  0.00     0.159 HD
ENDBRANCH   8  11
ENDBRANCH   1   7
BRANCH   6  22
HETATM   22  N3  UNL     1      25.755  -0.510  53.450  1.00  0.00    -0.370 N 
HETATM   23  H8  UNL     1      25.980  -0.667  52.432  1.00  0.00     0.161 HD
BRANCH  22  24
HETATM   24  C12 UNL     1      24.615  -1.268  53.130  1.00  0.00     0.160 C 
BRANCH  24  25
HETATM   25  C13 UNL     1      23.332  -0.542  53.424  1.00  0.00    -0.038 A 
HETATM   26  C14 UNL     1      22.874   0.486  52.625  1.00  0.00     0.028 A 
HETATM   27  C15 UNL     1      21.672   1.078  53.007  1.00  0.00     0.116 A 
HETATM   28  N4  UNL     1      20.962   0.690  54.103  1.00  0.00    -0.273 NA
HETATM   29  C16 UNL     1      21.397  -0.321  54.901  1.00  0.00     0.116 A 
HETATM   30  C17 UNL     1      22.597  -0.929  54.540  1.00  0.00     0.028 A 
ENDBRANCH  24  25
ENDBRANCH  22  24
ENDBRANCH   6  22
TORSDOF 5
ENDMDL
MODEL 9
REMARK VINA RESULT:      -7.7      1.981      4.690
REMARK  5 active torsions:
REMARK  status: ('A' for Active; 'I' for Inactive)
REMARK    1  A    between atoms: C5_5  and  N1_6 
REMARK       I    between atoms: N1_6  and  C6_7 
REMARK    2  A    between atoms: C6_7  and  C7_9 
REMARK    3  A    between atoms: C11_14  and  N3_15 
REMARK    4  A    between atoms: N3_15  and  C12_16 
REMARK    5  A    between atoms: C12_16  and  C13_17 
ROOT
HETATM    1  C7  UNL     1      25.535   0.982  52.661  1.00  0.00     0.077 A 
HETATM    2  C8  UNL     1      26.858   1.061  52.293  1.00  0.00     0.022 A 
HETATM    3  C9  UNL     1      27.649  -0.005  52.629  1.00  0.00     0.020 A 
HETATM    4  C10 UNL     1      27.261  -1.136  53.289  1.00  0.00     0.119 A 
HETATM    5  N2  UNL     1      25.977  -1.158  53.619  1.00  0.00    -0.243 NA
HETATM    6  C11 UNL     1      25.103  -0.157  53.336  1.00  0.00     0.139 A 
ENDROOT
BRANCH   1   7
HETATM    7  C6  UNL     1      24.742   2.143  52.289  1.00  0.00     0.260 C 
HETATM    8  N1  UNL     1      24.606   2.613  50.969  1.00  0.00    -0.323 N 
HETATM    9  H4  UNL     1      25.083   2.139  50.140  1.00  0.00     0.169 HD
HETATM   10  O1  UNL     1      24.035   2.973  52.911  1.00  0.00    -0.267 OA
BRANCH   8  11
HETATM   11  C5  UNL     1      23.830   3.730  50.718  1.00  0.00     0.034 C 
HETATM   12  C4  UNL     1      24.554   5.053  50.575  1.00  0.00     0.059 C 
HETATM   13  C3  UNL     1      23.531   5.974  50.304  1.00  0.00     0.036 C 
HETATM   14  C2  UNL     1      22.746   5.925  49.026  1.00  0.00    -0.027 C 
HETATM   15  N5  UNL     1      23.044   7.101  51.139  1.00  0.00    -0.388 N 
HETATM   16  C1  UNL     1      22.368   6.047  47.757  1.00  0.00     0.022 C 
HETATM   17  C19 UNL     1      21.856   5.317  50.060  1.00  0.00     0.020 C 
HETATM   18  C18 UNL     1      22.570   4.116  50.523  1.00  0.00     0.018 C 
HETATM   19  C20 UNL     1      20.513   4.935  49.454  1.00  0.00     0.027 C 
HETATM   20  C21 UNL     1      21.683   6.493  50.999  1.00  0.00     0.138 C 
HETATM   21  H21 UNL     1      23.794   7.798  51.460  1.00  0.00     0.159 HD
ENDBRANCH   8  11
ENDBRANCH   1   7
BRANCH   6  22
HETATM   22  N3  UNL     1      23.718  -0.129  53.661  1.00  0.00    -0.370 N 
HETATM   23  H8  UNL     1      23.828  -0.059  54.707  1.00  0.00     0.161 HD
BRANCH  22  24
HETATM   24  C12 UNL     1      22.349  -0.101  53.983  1.00  0.00     0.160 C 
BRANCH  24  25
HETATM   25  C13 UNL     1      21.510   0.532  52.908  1.00  0.00    -0.038 A 
HETATM   26  C14 UNL     1      20.529   1.459  53.197  1.00  0.00     0.028 A 
HETATM   27  C15 UNL     1      19.821   1.971  52.112  1.00  0.00     0.116 A 
HETATM   28  N4  UNL     1      20.057   1.597  50.823  1.00  0.00    -0.273 NA
HETATM   29  C16 UNL     1      21.019   0.686  50.518  1.00  0.00     0.116 A 
HETATM   30  C17 UNL     1      21.741   0.161  51.587  1.00  0.00     0.028 A 
ENDBRANCH  24  25
ENDBRANCH  22  24
ENDBRANCH   6  22
TORSDOF 5
ENDMDL
