MODEL 1
REMARK VINA RESULT:      -9.6      0.000      0.000
REMARK  2 active torsions:
REMARK  status: ('A' for Active; 'I' for Inactive)
REMARK    1  A    between atoms: C5_6  and  C6_7 
REMARK    2  A    between atoms: C13_16  and  C14_17 
ROOT
HETATM    1  C6  UNL     1      22.418   4.060  52.254  1.00  0.00     0.172 C 
HETATM    2  C7  UNL     1      23.378   3.011  51.659  1.00  0.00     0.002 C 
HETATM    3  C8  UNL     1      24.155   2.927  50.580  1.00  0.00     0.012 C 
HETATM    4  C9  UNL     1      23.855   3.506  49.210  1.00  0.00    -0.003 C 
HETATM    5  C10 UNL     1      22.603   3.862  48.758  1.00  0.00    -0.025 C 
HETATM    6  C11 UNL     1      21.203   3.790  49.194  1.00  0.00     0.048 C 
HETATM    7  C12 UNL     1      20.671   3.388  50.456  1.00  0.00     0.149 C 
HETATM    8  N1  UNL     1      21.393   3.133  51.652  1.00  0.00    -0.291 N 
HETATM    9  N2  UNL     1      21.673   2.153  52.696  1.00  0.00    -0.175 NA
HETATM   10  C13 UNL     1      23.011   1.944  52.600  1.00  0.00     0.096 C 
ENDROOT
BRANCH  10  11
HETATM   11  C14 UNL     1      24.074   1.026  52.984  1.00  0.00    -0.002 A 
HETATM   12  C15 UNL     1      24.327  -0.263  53.208  1.00  0.00     0.017 A 
HETATM   13  C16 UNL     1      25.527  -0.708  53.680  1.00  0.00     0.040 A 
HETATM   14  C17 UNL     1      26.579   0.122  53.965  1.00  0.00     0.102 A 
HETATM   15  C18 UNL     1      26.379   1.486  53.750  1.00  0.00     0.103 A 
HETATM   16  O2  UNL     1      27.755  -0.447  54.443  1.00  0.00    -0.346 OA
HETATM   17  C19 UNL     1      25.142   1.910  53.267  1.00  0.00     0.053 A 
HETATM   18  O1  UNL     1      27.502   2.218  54.069  1.00  0.00    -0.346 OA
HETATM   19  C20 UNL     1      28.810   1.711  54.132  1.00  0.00     0.202 C 
HETATM   20  C21 UNL     1      28.929   0.319  54.655  1.00  0.00     0.202 C 
ENDBRANCH  10  11
BRANCH   1  21
HETATM   21  C5  UNL     1      22.537   5.349  51.618  1.00  0.00    -0.028 A 
HETATM   22  C4  UNL     1      23.865   5.800  51.588  1.00  0.00     0.010 A 
HETATM   23  C3  UNL     1      24.187   7.041  51.024  1.00  0.00     0.002 A 
HETATM   24  C2  UNL     1      23.213   7.851  50.485  1.00  0.00     0.024 A 
HETATM   25  C1  UNL     1      21.902   7.439  50.497  1.00  0.00     0.034 A 
HETATM   26 CL1  UNL     1      20.562   8.356  49.852  1.00  0.00    -0.084 Cl
HETATM   27  C22 UNL     1      21.632   6.218  51.060  1.00  0.00     0.033 A 
ENDBRANCH   1  21
TORSDOF 2
ENDMDL
MODEL 2
REMARK VINA RESULT:      -9.3      1.500      1.794
REMARK  2 active torsions:
REMARK  status: ('A' for Active; 'I' for Inactive)
REMARK    1  A    between atoms: C5_6  and  C6_7 
REMARK    2  A    between atoms: C13_16  and  C14_17 
ROOT
HETATM    1  C6  UNL     1      23.885   5.319  51.402  1.00  0.00     0.172 C 
HETATM    2  C7  UNL     1      23.954   3.808  51.101  1.00  0.00     0.002 C 
HETATM    3  C8  UNL     1      24.019   3.053  50.006  1.00  0.00     0.012 C 
HETATM    4  C9  UNL     1      23.351   3.341  48.674  1.00  0.00    -0.003 C 
HETATM    5  C10 UNL     1      22.285   4.193  48.493  1.00  0.00    -0.025 C 
HETATM    6  C11 UNL     1      21.359   5.002  49.296  1.00  0.00     0.048 C 
HETATM    7  C12 UNL     1      21.388   5.281  50.695  1.00  0.00     0.149 C 
HETATM    8  N1  UNL     1      22.431   4.981  51.611  1.00  0.00    -0.291 N 
HETATM    9  N2  UNL     1      22.773   4.301  52.856  1.00  0.00    -0.175 NA
HETATM   10  C13 UNL     1      23.702   3.384  52.485  1.00  0.00     0.096 C 
ENDROOT
BRANCH  10  11
HETATM   11  C14 UNL     1      24.371   2.166  52.919  1.00  0.00    -0.002 A 
HETATM   12  C15 UNL     1      24.160   0.871  53.155  1.00  0.00     0.017 A 
HETATM   13  C16 UNL     1      25.114   0.053  53.684  1.00  0.00     0.040 A 
HETATM   14  C17 UNL     1      26.372   0.480  54.019  1.00  0.00     0.102 A 
HETATM   15  C18 UNL     1      26.659   1.827  53.794  1.00  0.00     0.103 A 
HETATM   16  O2  UNL     1      27.261  -0.447  54.552  1.00  0.00    -0.346 OA
HETATM   17  C19 UNL     1      25.662   2.638  53.253  1.00  0.00     0.053 A 
HETATM   18  O1  UNL     1      27.948   2.138  54.165  1.00  0.00    -0.346 OA
HETATM   19  C20 UNL     1      29.001   1.218  54.290  1.00  0.00     0.202 C 
HETATM   20  C21 UNL     1      28.615  -0.123  54.819  1.00  0.00     0.202 C 
ENDBRANCH  10  11
BRANCH   1  21
HETATM   21  C5  UNL     1      24.172   6.132  50.246  1.00  0.00    -0.028 A 
HETATM   22  C4  UNL     1      25.374   5.758  49.625  1.00  0.00     0.010 A 
HETATM   23  C3  UNL     1      25.836   6.439  48.492  1.00  0.00     0.002 A 
HETATM   24  C2  UNL     1      25.127   7.490  47.956  1.00  0.00     0.024 A 
HETATM   25  C1  UNL     1      23.946   7.881  48.539  1.00  0.00     0.034 A 
HETATM   26 CL1  UNL     1      22.940   9.194  47.972  1.00  0.00    -0.084 Cl
HETATM   27  C22 UNL     1      23.531   7.188  49.646  1.00  0.00     0.033 A 
ENDBRANCH   1  21
TORSDOF 2
ENDMDL
MODEL 3
REMARK VINA RESULT:      -9.2      1.897      2.771
REMARK  2 active torsions:
REMARK  status: ('A' for Active; 'I' for Inactive)
REMARK    1  A    between atoms: C5_6  and  C6_7 
REMARK    2  A    between atoms: C13_16  and  C14_17 
ROOT
HETATM    1  C6  UNL     1      22.677   3.609  50.627  1.00  0.00     0.172 C 
HETATM    2  C7  UNL     1      22.631   2.170  51.179  1.00  0.00     0.002 C 
HETATM    3  C8  UNL     1      22.043   1.028  50.827  1.00  0.00     0.012 C 
HETATM    4  C9  UNL     1      20.675   0.882  50.186  1.00  0.00    -0.003 C 
HETATM    5  C10 UNL     1      19.681   1.834  50.218  1.00  0.00    -0.025 C 
HETATM    6  C11 UNL     1      19.413   3.141  50.833  1.00  0.00     0.048 C 
HETATM    7  C12 UNL     1      20.292   3.982  51.579  1.00  0.00     0.149 C 
HETATM    8  N1  UNL     1      21.693   3.830  51.748  1.00  0.00    -0.291 N 
HETATM    9  N2  UNL     1      22.776   3.696  52.718  1.00  0.00    -0.175 NA
HETATM   10  C13 UNL     1      23.322   2.486  52.437  1.00  0.00     0.096 C 
ENDROOT
BRANCH  10  11
HETATM   11  C14 UNL     1      24.185   1.447  52.979  1.00  0.00    -0.002 A 
HETATM   12  C15 UNL     1      24.184   0.176  53.381  1.00  0.00     0.017 A 
HETATM   13  C16 UNL     1      25.270  -0.417  53.954  1.00  0.00     0.040 A 
HETATM   14  C17 UNL     1      26.458   0.231  54.167  1.00  0.00     0.102 A 
HETATM   15  C18 UNL     1      26.526   1.566  53.766  1.00  0.00     0.103 A 
HETATM   16  O2  UNL     1      27.497  -0.478  54.761  1.00  0.00    -0.346 OA
HETATM   17  C19 UNL     1      25.398   2.144  53.184  1.00  0.00     0.053 A 
HETATM   18  O1  UNL     1      27.764   2.111  54.028  1.00  0.00    -0.346 OA
HETATM   19  C20 UNL     1      28.949   1.380  54.208  1.00  0.00     0.202 C 
HETATM   20  C21 UNL     1      28.793   0.075  54.915  1.00  0.00     0.202 C 
ENDBRANCH  10  11
BRANCH   1  21
HETATM   21  C5  UNL     1      22.133   3.713  49.296  1.00  0.00    -0.028 A 
HETATM   22  C4  UNL     1      22.681   2.757  48.428  1.00  0.00     0.010 A 
HETATM   23  C3  UNL     1      22.292   2.705  47.083  1.00  0.00     0.002 A 
HETATM   24  C2  UNL     1      21.364   3.586  46.577  1.00  0.00     0.024 A 
HETATM   25  C1  UNL     1      20.807   4.535  47.401  1.00  0.00     0.034 A 
HETATM   26 CL1  UNL     1      19.621   5.718  46.902  1.00  0.00    -0.084 Cl
HETATM   27  C22 UNL     1      21.217   4.551  48.708  1.00  0.00     0.033 A 
ENDBRANCH   1  21
TORSDOF 2
ENDMDL
MODEL 4
REMARK VINA RESULT:      -9.2      1.668      2.457
REMARK  2 active torsions:
REMARK  status: ('A' for Active; 'I' for Inactive)
REMARK    1  A    between atoms: C5_6  and  C6_7 
REMARK    2  A    between atoms: C13_16  and  C14_17 
ROOT
HETATM    1  C6  UNL     1      22.356   2.637  52.139  1.00  0.00     0.172 C 
HETATM    2  C7  UNL     1      23.809   2.483  51.647  1.00  0.00     0.002 C 
HETATM    3  C8  UNL     1      24.523   2.931  50.616  1.00  0.00     0.012 C 
HETATM    4  C9  UNL     1      24.014   3.168  49.206  1.00  0.00    -0.003 C 
HETATM    5  C10 UNL     1      22.875   2.609  48.672  1.00  0.00    -0.025 C 
HETATM    6  C11 UNL     1      21.842   1.630  49.035  1.00  0.00     0.048 C 
HETATM    7  C12 UNL     1      21.618   0.978  50.284  1.00  0.00     0.149 C 
HETATM    8  N1  UNL     1      22.241   1.263  51.528  1.00  0.00    -0.291 N 
HETATM    9  N2  UNL     1      23.023   0.713  52.631  1.00  0.00    -0.175 NA
HETATM   10  C13 UNL     1      24.169   1.439  52.616  1.00  0.00     0.096 C 
ENDROOT
BRANCH  10  11
HETATM   11  C14 UNL     1      25.542   1.452  53.100  1.00  0.00    -0.002 A 
HETATM   12  C15 UNL     1      26.462   2.246  53.648  1.00  0.00     0.017 A 
HETATM   13  C16 UNL     1      27.748   1.845  53.863  1.00  0.00     0.040 A 
HETATM   14  C17 UNL     1      28.212   0.597  53.541  1.00  0.00     0.102 A 
HETATM   15  C18 UNL     1      27.298  -0.284  52.965  1.00  0.00     0.103 A 
HETATM   16  O2  UNL     1      29.545   0.303  53.808  1.00  0.00    -0.346 OA
HETATM   17  C19 UNL     1      25.991   0.155  52.757  1.00  0.00     0.053 A 
HETATM   18  O1  UNL     1      27.876  -1.503  52.687  1.00  0.00    -0.346 OA
HETATM   19  C20 UNL     1      29.034  -2.009  53.298  1.00  0.00     0.202 C 
HETATM   20  C21 UNL     1      30.082  -0.994  53.616  1.00  0.00     0.202 C 
ENDBRANCH  10  11
BRANCH   1  21
HETATM   21  C5  UNL     1      21.642   3.683  51.450  1.00  0.00    -0.028 A 
HETATM   22  C4  UNL     1      22.336   4.902  51.481  1.00  0.00     0.010 A 
HETATM   23  C3  UNL     1      21.798   6.046  50.879  1.00  0.00     0.002 A 
HETATM   24  C2  UNL     1      20.579   6.009  50.241  1.00  0.00     0.024 A 
HETATM   25  C1  UNL     1      19.874   4.831  50.192  1.00  0.00     0.034 A 
HETATM   26 CL1  UNL     1      18.318   4.630  49.420  1.00  0.00    -0.084 Cl
HETATM   27  C22 UNL     1      20.436   3.736  50.795  1.00  0.00     0.033 A 
ENDBRANCH   1  21
TORSDOF 2
ENDMDL
MODEL 5
REMARK VINA RESULT:      -9.0      3.902      5.373
REMARK  2 active torsions:
REMARK  status: ('A' for Active; 'I' for Inactive)
REMARK    1  A    between atoms: C5_6  and  C6_7 
REMARK    2  A    between atoms: C13_16  and  C14_17 
ROOT
HETATM    1  C6  UNL     1      23.385   4.001  51.501  1.00  0.00     0.172 C 
HETATM    2  C7  UNL     1      22.658   2.681  51.172  1.00  0.00     0.002 C 
HETATM    3  C8  UNL     1      22.658   1.815  50.160  1.00  0.00     0.012 C 
HETATM    4  C9  UNL     1      22.825   2.151  48.690  1.00  0.00    -0.003 C 
HETATM    5  C10 UNL     1      22.617   3.394  48.134  1.00  0.00    -0.025 C 
HETATM    6  C11 UNL     1      22.130   4.721  48.530  1.00  0.00     0.048 C 
HETATM    7  C12 UNL     1      21.808   5.211  49.832  1.00  0.00     0.149 C 
HETATM    8  N1  UNL     1      22.057   4.575  51.077  1.00  0.00    -0.291 N 
HETATM    9  N2  UNL     1      21.455   4.085  52.313  1.00  0.00    -0.175 NA
HETATM   10  C13 UNL     1      21.726   2.755  52.305  1.00  0.00     0.096 C 
ENDROOT
BRANCH  10  11
HETATM   11  C14 UNL     1      21.339   1.487  52.908  1.00  0.00    -0.002 A 
HETATM   12  C15 UNL     1      21.808   0.484  53.650  1.00  0.00     0.017 A 
HETATM   13  C16 UNL     1      21.078  -0.636  53.920  1.00  0.00     0.040 A 
HETATM   14  C17 UNL     1      19.804  -0.835  53.458  1.00  0.00     0.102 A 
HETATM   15  C18 UNL     1      19.254   0.180  52.675  1.00  0.00     0.103 A 
HETATM   16  O2  UNL     1      19.159  -2.020  53.798  1.00  0.00    -0.346 OA
HETATM   17  C19 UNL     1      20.025   1.313  52.416  1.00  0.00     0.053 A 
HETATM   18  O1  UNL     1      17.974  -0.130  52.271  1.00  0.00    -0.346 OA
HETATM   19  C20 UNL     1      17.126  -1.054  52.902  1.00  0.00     0.202 C 
HETATM   20  C21 UNL     1      17.803  -2.261  53.462  1.00  0.00     0.202 C 
ENDBRANCH  10  11
BRANCH   1  21
HETATM   21  C5  UNL     1      24.487   4.267  50.610  1.00  0.00    -0.028 A 
HETATM   22  C4  UNL     1      25.360   3.172  50.513  1.00  0.00     0.010 A 
HETATM   23  C3  UNL     1      26.504   3.240  49.707  1.00  0.00     0.002 A 
HETATM   24  C2  UNL     1      26.803   4.376  48.990  1.00  0.00     0.024 A 
HETATM   25  C1  UNL     1      25.969   5.465  49.063  1.00  0.00     0.034 A 
HETATM   26 CL1  UNL     1      26.218   6.972  48.213  1.00  0.00    -0.084 Cl
HETATM   27  C22 UNL     1      24.862   5.357  49.864  1.00  0.00     0.033 A 
ENDBRANCH   1  21
TORSDOF 2
ENDMDL
MODEL 6
REMARK VINA RESULT:      -8.8      8.474     10.820
REMARK  2 active torsions:
REMARK  status: ('A' for Active; 'I' for Inactive)
REMARK    1  A    between atoms: C5_6  and  C6_7 
REMARK    2  A    between atoms: C13_16  and  C14_17 
ROOT
HETATM    1  C6  UNL     1      31.821   4.752  47.481  1.00  0.00     0.172 C 
HETATM    2  C7  UNL     1      31.078   6.074  47.200  1.00  0.00     0.002 C 
HETATM    3  C8  UNL     1      31.276   7.137  46.422  1.00  0.00     0.012 C 
HETATM    4  C9  UNL     1      32.616   7.754  46.068  1.00  0.00    -0.003 C 
HETATM    5  C10 UNL     1      33.782   7.572  46.777  1.00  0.00    -0.025 C 
HETATM    6  C11 UNL     1      34.240   6.937  48.019  1.00  0.00     0.048 C 
HETATM    7  C12 UNL     1      33.523   6.088  48.914  1.00  0.00     0.149 C 
HETATM    8  N1  UNL     1      32.241   5.512  48.713  1.00  0.00    -0.291 N 
HETATM    9  N2  UNL     1      30.890   5.379  49.249  1.00  0.00    -0.175 NA
HETATM   10  C13 UNL     1      30.099   5.910  48.283  1.00  0.00     0.096 C 
ENDROOT
BRANCH  10  11
HETATM   11  C14 UNL     1      28.764   6.435  48.033  1.00  0.00    -0.002 A 
HETATM   12  C15 UNL     1      28.120   7.480  47.515  1.00  0.00     0.017 A 
HETATM   13  C16 UNL     1      26.764   7.617  47.580  1.00  0.00     0.040 A 
HETATM   14  C17 UNL     1      25.942   6.699  48.177  1.00  0.00     0.102 A 
HETATM   15  C18 UNL     1      26.554   5.578  48.738  1.00  0.00     0.103 A 
HETATM   16  O2  UNL     1      24.573   6.947  48.182  1.00  0.00    -0.346 OA
HETATM   17  C19 UNL     1      27.942   5.467  48.656  1.00  0.00     0.053 A 
HETATM   18  O1  UNL     1      25.631   4.728  49.306  1.00  0.00    -0.346 OA
HETATM   19  C20 UNL     1      24.265   4.682  48.984  1.00  0.00     0.202 C 
HETATM   20  C21 UNL     1      23.639   6.001  48.674  1.00  0.00     0.202 C 
ENDBRANCH  10  11
BRANCH   1  21
HETATM   21  C5  UNL     1      32.871   4.490  46.527  1.00  0.00    -0.028 A 
HETATM   22  C4  UNL     1      33.934   3.776  47.099  1.00  0.00     0.010 A 
HETATM   23  C3  UNL     1      35.060   3.437  46.337  1.00  0.00     0.002 A 
HETATM   24  C2  UNL     1      35.155   3.793  45.011  1.00  0.00     0.024 A 
HETATM   25  C1  UNL     1      34.130   4.493  44.420  1.00  0.00     0.034 A 
HETATM   26 CL1  UNL     1      34.109   5.013  42.752  1.00  0.00    -0.084 Cl
HETATM   27  C22 UNL     1      33.049   4.805  45.202  1.00  0.00     0.033 A 
ENDBRANCH   1  21
TORSDOF 2
ENDMDL
MODEL 7
REMARK VINA RESULT:      -8.7      8.174     10.060
REMARK  2 active torsions:
REMARK  status: ('A' for Active; 'I' for Inactive)
REMARK    1  A    between atoms: C5_6  and  C6_7 
REMARK    2  A    between atoms: C13_16  and  C14_17 
ROOT
HETATM    1  C6  UNL     1      31.179   7.774  47.749  1.00  0.00     0.172 C 
HETATM    2  C7  UNL     1      30.552   6.365  47.754  1.00  0.00     0.002 C 
HETATM    3  C8  UNL     1      31.006   5.115  47.689  1.00  0.00     0.012 C 
HETATM    4  C9  UNL     1      32.205   4.635  46.892  1.00  0.00    -0.003 C 
HETATM    5  C10 UNL     1      32.770   5.307  45.831  1.00  0.00    -0.025 C 
HETATM    6  C11 UNL     1      32.521   6.500  45.011  1.00  0.00     0.048 C 
HETATM    7  C12 UNL     1      31.549   7.530  45.192  1.00  0.00     0.149 C 
HETATM    8  N1  UNL     1      30.708   7.732  46.317  1.00  0.00    -0.291 N 
HETATM    9  N2  UNL     1      29.328   7.867  46.773  1.00  0.00    -0.175 NA
HETATM   10  C13 UNL     1      29.165   6.836  47.639  1.00  0.00     0.096 C 
ENDROOT
BRANCH  10  11
HETATM   11  C14 UNL     1      28.154   6.042  48.324  1.00  0.00    -0.002 A 
HETATM   12  C15 UNL     1      27.788   4.784  48.572  1.00  0.00     0.017 A 
HETATM   13  C16 UNL     1      26.632   4.468  49.224  1.00  0.00     0.040 A 
HETATM   14  C17 UNL     1      25.745   5.406  49.683  1.00  0.00     0.102 A 
HETATM   15  C18 UNL     1      26.071   6.743  49.456  1.00  0.00     0.103 A 
HETATM   16  O2  UNL     1      24.599   4.963  50.334  1.00  0.00    -0.346 OA
HETATM   17  C19 UNL     1      27.259   7.034  48.787  1.00  0.00     0.053 A 
HETATM   18  O1  UNL     1      25.110   7.591  49.962  1.00  0.00    -0.346 OA
HETATM   19  C20 UNL     1      24.190   7.264  50.971  1.00  0.00     0.202 C 
HETATM   20  C21 UNL     1      23.685   5.860  50.942  1.00  0.00     0.202 C 
ENDBRANCH  10  11
BRANCH   1  21
HETATM   21  C5  UNL     1      32.609   7.748  47.931  1.00  0.00    -0.028 A 
HETATM   22  C4  UNL     1      33.233   8.869  47.363  1.00  0.00     0.010 A 
HETATM   23  C3  UNL     1      34.624   9.020  47.421  1.00  0.00     0.002 A 
HETATM   24  C2  UNL     1      35.417   8.077  48.034  1.00  0.00     0.024 A 
HETATM   25  C1  UNL     1      34.838   6.967  48.601  1.00  0.00     0.034 A 
HETATM   26 CL1  UNL     1      35.713   5.689  49.412  1.00  0.00    -0.084 Cl
HETATM   27  C22 UNL     1      33.474   6.859  48.521  1.00  0.00     0.033 A 
ENDBRANCH   1  21
TORSDOF 2
ENDMDL
MODEL 8
REMARK VINA RESULT:      -8.6      4.192      6.858
REMARK  2 active torsions:
REMARK  status: ('A' for Active; 'I' for Inactive)
REMARK    1  A    between atoms: C5_6  and  C6_7 
REMARK    2  A    between atoms: C13_16  and  C14_17 
ROOT
HETATM    1  C6  UNL     1      23.333   4.742  50.038  1.00  0.00     0.172 C 
HETATM    2  C7  UNL     1      24.864   4.592  49.937  1.00  0.00     0.002 C 
HETATM    3  C8  UNL     1      25.728   3.579  49.917  1.00  0.00     0.012 C 
HETATM    4  C9  UNL     1      25.598   2.272  50.677  1.00  0.00    -0.003 C 
HETATM    5  C10 UNL     1      24.798   2.075  51.781  1.00  0.00    -0.025 C 
HETATM    6  C11 UNL     1      23.935   2.851  52.680  1.00  0.00     0.048 C 
HETATM    7  C12 UNL     1      23.512   4.210  52.572  1.00  0.00     0.149 C 
HETATM    8  N1  UNL     1      23.686   5.081  51.464  1.00  0.00    -0.291 N 
HETATM    9  N2  UNL     1      24.224   6.363  51.021  1.00  0.00    -0.175 NA
HETATM   10  C13 UNL     1      25.149   6.026  50.087  1.00  0.00     0.096 C 
ENDROOT
BRANCH  10  11
HETATM   11  C14 UNL     1      26.297   6.537  49.351  1.00  0.00    -0.002 A 
HETATM   12  C15 UNL     1      27.265   6.166  48.514  1.00  0.00     0.017 A 
HETATM   13  C16 UNL     1      28.263   7.009  48.121  1.00  0.00     0.040 A 
HETATM   14  C17 UNL     1      28.363   8.308  48.545  1.00  0.00     0.102 A 
HETATM   15  C18 UNL     1      27.378   8.760  49.423  1.00  0.00     0.103 A 
HETATM   16  O2  UNL     1      29.426   9.073  48.077  1.00  0.00    -0.346 OA
HETATM   17  C19 UNL     1      26.371   7.874  49.807  1.00  0.00     0.053 A 
HETATM   18  O1  UNL     1      27.580  10.075  49.778  1.00  0.00    -0.346 OA
HETATM   19  C20 UNL     1      28.334  11.006  49.045  1.00  0.00     0.202 C 
HETATM   20  C21 UNL     1      29.545  10.454  48.370  1.00  0.00     0.202 C 
ENDBRANCH  10  11
BRANCH   1  21
HETATM   21  C5  UNL     1      22.638   3.492  49.852  1.00  0.00    -0.028 A 
HETATM   22  C4  UNL     1      22.884   2.936  48.588  1.00  0.00     0.010 A 
HETATM   23  C3  UNL     1      22.285   1.728  48.209  1.00  0.00     0.002 A 
HETATM   24  C2  UNL     1      21.443   1.053  49.062  1.00  0.00     0.024 A 
HETATM   25  C1  UNL     1      21.180   1.570  50.309  1.00  0.00     0.034 A 
HETATM   26 CL1  UNL     1      20.135   0.829  51.497  1.00  0.00    -0.084 Cl
HETATM   27  C22 UNL     1      21.786   2.754  50.638  1.00  0.00     0.033 A 
ENDBRANCH   1  21
TORSDOF 2
ENDMDL
MODEL 9
REMARK VINA RESULT:      -8.2      1.983      3.318
REMARK  2 active torsions:
REMARK  status: ('A' for Active; 'I' for Inactive)
REMARK    1  A    between atoms: C5_6  and  C6_7 
REMARK    2  A    between atoms: C13_16  and  C14_17 
ROOT
HETATM    1  C6  UNL     1      23.916   4.112  48.932  1.00  0.00     0.172 C 
HETATM    2  C7  UNL     1      23.836   3.731  50.424  1.00  0.00     0.002 C 
HETATM    3  C8  UNL     1      22.950   3.886  51.407  1.00  0.00     0.012 C 
HETATM    4  C9  UNL     1      22.032   5.078  51.608  1.00  0.00    -0.003 C 
HETATM    5  C10 UNL     1      22.226   6.327  51.062  1.00  0.00    -0.025 C 
HETATM    6  C11 UNL     1      23.233   7.052  50.276  1.00  0.00     0.048 C 
HETATM    7  C12 UNL     1      24.415   6.555  49.649  1.00  0.00     0.149 C 
HETATM    8  N1  UNL     1      24.800   5.198  49.489  1.00  0.00    -0.291 N 
HETATM    9  N2  UNL     1      25.843   4.211  49.746  1.00  0.00    -0.175 NA
HETATM   10  C13 UNL     1      25.232   3.281  50.522  1.00  0.00     0.096 C 
ENDROOT
BRANCH  10  11
HETATM   11  C14 UNL     1      25.491   2.171  51.429  1.00  0.00    -0.002 A 
HETATM   12  C15 UNL     1      24.898   1.149  52.044  1.00  0.00     0.017 A 
HETATM   13  C16 UNL     1      25.542   0.359  52.951  1.00  0.00     0.040 A 
HETATM   14  C17 UNL     1      26.852   0.540  53.311  1.00  0.00     0.102 A 
HETATM   15  C18 UNL     1      27.531   1.594  52.701  1.00  0.00     0.103 A 
HETATM   16  O2  UNL     1      27.401  -0.329  54.248  1.00  0.00    -0.346 OA
HETATM   17  C19 UNL     1      26.845   2.384  51.779  1.00  0.00     0.053 A 
HETATM   18  O1  UNL     1      28.835   1.676  53.139  1.00  0.00    -0.346 OA
HETATM   19  C20 UNL     1      29.564   0.625  53.718  1.00  0.00     0.202 C 
HETATM   20  C21 UNL     1      28.775  -0.290  54.594  1.00  0.00     0.202 C 
ENDBRANCH  10  11
BRANCH   1  21
HETATM   21  C5  UNL     1      22.649   4.554  48.403  1.00  0.00    -0.028 A 
HETATM   22  C4  UNL     1      21.621   3.636  48.661  1.00  0.00     0.010 A 
HETATM   23  C3  UNL     1      20.317   3.878  48.213  1.00  0.00     0.002 A 
HETATM   24  C2  UNL     1      20.006   5.019  47.508  1.00  0.00     0.024 A 
HETATM   25  C1  UNL     1      20.991   5.939  47.238  1.00  0.00     0.034 A 
HETATM   26 CL1  UNL     1      20.749   7.429  46.357  1.00  0.00    -0.084 Cl
HETATM   27  C22 UNL     1      22.253   5.662  47.695  1.00  0.00     0.033 A 
ENDBRANCH   1  21
TORSDOF 2
ENDMDL
