MODEL 1
REMARK VINA RESULT:      -8.6      0.000      0.000
REMARK  4 active torsions:
REMARK  status: ('A' for Active; 'I' for Inactive)
REMARK    1  A    between atoms: C9_11  and  N1_12 
REMARK    2  A    between atoms: C9_11  and  N3_15 
REMARK    3  A    between atoms: C10_13  and  N2_14 
REMARK    4  A    between atoms: N3_15  and  C11_16 
ROOT
HETATM    1  C1  UNL     1      19.706   1.349  49.668  1.00  0.00     0.051 C 
HETATM    2  C2  UNL     1      20.351   0.907  50.925  1.00  0.00    -0.025 A 
HETATM    3  C3  UNL     1      19.722   0.342  52.011  1.00  0.00     0.051 A 
HETATM    4  C4  UNL     1      20.402  -0.045  53.148  1.00  0.00     0.117 A 
HETATM    5  F1  UNL     1      19.743  -0.598  54.196  1.00  0.00    -0.206 F 
HETATM    6  C5  UNL     1      21.766   0.161  53.159  1.00  0.00     0.052 A 
HETATM    7  C6  UNL     1      22.436   0.734  52.070  1.00  0.00    -0.017 A 
HETATM    8  C7  UNL     1      21.723   1.107  50.953  1.00  0.00     0.081 A 
HETATM    9  O1  UNL     1      22.568   1.649  50.000  1.00  0.00    -0.346 OA
HETATM   10  C8  UNL     1      23.589   2.566  50.397  1.00  0.00     0.231 C 
HETATM   11  C9  UNL     1      24.334   2.159  51.618  1.00  0.00     0.152 C 
HETATM   12  C17 UNL     1      23.902   0.873  52.253  1.00  0.00     0.099 C 
ENDROOT
BRANCH  11  13
HETATM   13  N1  UNL     1      24.235   3.188  52.668  1.00  0.00    -0.251 NA
HETATM   14  C10 UNL     1      23.767   4.329  52.259  1.00  0.00     0.197 C 
BRANCH  14  15
HETATM   15  N2  UNL     1      23.742   5.202  53.406  1.00  0.00    -0.394 N 
HETATM   16  H9  UNL     1      23.869   6.041  54.045  1.00  0.00     0.156 HD
HETATM   17  H10 UNL     1      23.482   5.364  54.409  1.00  0.00     0.156 HD
ENDBRANCH  14  15
ENDBRANCH  11  13
BRANCH  11  18
HETATM   18  N3  UNL     1      25.779   2.054  51.365  1.00  0.00    -0.360 N 
HETATM   19  H11 UNL     1      26.213   2.560  50.548  1.00  0.00     0.162 HD
BRANCH  18  20
HETATM   20  C11 UNL     1      26.729   1.317  52.121  1.00  0.00     0.031 A 
HETATM   21  C12 UNL     1      26.818  -0.079  52.128  1.00  0.00     0.032 A 
HETATM   22  C13 UNL     1      27.778  -0.693  52.902  1.00  0.00     0.046 A 
HETATM   23  C14 UNL     1      28.678  -0.024  53.688  1.00  0.00     0.138 A 
HETATM   24  F2  UNL     1      29.552  -0.781  54.383  1.00  0.00    -0.204 F 
HETATM   25  C15 UNL     1      28.589   1.365  53.681  1.00  0.00     0.074 A 
HETATM   26 CL1  UNL     1      29.749   2.208  54.694  1.00  0.00    -0.081 Cl
HETATM   27  C16 UNL     1      27.634   1.996  52.912  1.00  0.00     0.056 A 
ENDBRANCH  18  20
ENDBRANCH  11  18
TORSDOF 4
ENDMDL
MODEL 2
REMARK VINA RESULT:      -8.4      3.673      4.731
REMARK  4 active torsions:
REMARK  status: ('A' for Active; 'I' for Inactive)
REMARK    1  A    between atoms: C9_11  and  N1_12 
REMARK    2  A    between atoms: C9_11  and  N3_15 
REMARK    3  A    between atoms: C10_13  and  N2_14 
REMARK    4  A    between atoms: N3_15  and  C11_16 
ROOT
HETATM    1  C1  UNL     1      20.391  -0.261  53.754  1.00  0.00     0.051 C 
HETATM    2  C2  UNL     1      21.866  -0.175  53.653  1.00  0.00    -0.025 A 
HETATM    3  C3  UNL     1      22.778  -0.792  54.479  1.00  0.00     0.051 A 
HETATM    4  C4  UNL     1      24.142  -0.659  54.312  1.00  0.00     0.117 A 
HETATM    5  F1  UNL     1      25.006  -1.283  55.149  1.00  0.00    -0.206 F 
HETATM    6  C5  UNL     1      24.568   0.130  53.264  1.00  0.00     0.052 A 
HETATM    7  C6  UNL     1      23.665   0.770  52.406  1.00  0.00    -0.017 A 
HETATM    8  C7  UNL     1      22.312   0.615  52.604  1.00  0.00     0.081 A 
HETATM    9  O1  UNL     1      21.600   1.326  51.653  1.00  0.00    -0.346 OA
HETATM   10  C8  UNL     1      22.010   2.650  51.305  1.00  0.00     0.231 C 
HETATM   11  C9  UNL     1      23.476   2.805  51.117  1.00  0.00     0.152 C 
HETATM   12  C17 UNL     1      24.300   1.573  51.332  1.00  0.00     0.099 C 
ENDROOT
BRANCH  11  13
HETATM   13  N1  UNL     1      24.023   3.827  52.026  1.00  0.00    -0.251 NA
HETATM   14  C10 UNL     1      23.124   4.534  52.643  1.00  0.00     0.197 C 
BRANCH  14  15
HETATM   15  N2  UNL     1      23.832   5.471  53.477  1.00  0.00    -0.394 N 
HETATM   16  H9  UNL     1      24.294   6.354  53.845  1.00  0.00     0.156 HD
HETATM   17  H10 UNL     1      24.340   5.675  54.372  1.00  0.00     0.156 HD
ENDBRANCH  14  15
ENDBRANCH  11  13
BRANCH  11  18
HETATM   18  N3  UNL     1      23.802   3.317  49.777  1.00  0.00    -0.360 N 
HETATM   19  H11 UNL     1      23.150   3.138  48.967  1.00  0.00     0.162 HD
BRANCH  18  20
HETATM   20  C11 UNL     1      24.949   4.067  49.403  1.00  0.00     0.031 A 
HETATM   21  C12 UNL     1      26.254   3.564  49.402  1.00  0.00     0.032 A 
HETATM   22  C13 UNL     1      27.296   4.381  49.023  1.00  0.00     0.046 A 
HETATM   23  C14 UNL     1      27.150   5.686  48.634  1.00  0.00     0.138 A 
HETATM   24  F2  UNL     1      28.276   6.345  48.294  1.00  0.00    -0.204 F 
HETATM   25  C15 UNL     1      25.851   6.187  48.636  1.00  0.00     0.074 A 
HETATM   26 CL1  UNL     1      25.680   7.861  48.136  1.00  0.00    -0.081 Cl
HETATM   27  C16 UNL     1      24.796   5.382  49.012  1.00  0.00     0.056 A 
ENDBRANCH  18  20
ENDBRANCH  11  18
TORSDOF 4
ENDMDL
MODEL 3
REMARK VINA RESULT:      -8.4      3.720      5.454
REMARK  4 active torsions:
REMARK  status: ('A' for Active; 'I' for Inactive)
REMARK    1  A    between atoms: C9_11  and  N1_12 
REMARK    2  A    between atoms: C9_11  and  N3_15 
REMARK    3  A    between atoms: C10_13  and  N2_14 
REMARK    4  A    between atoms: N3_15  and  C11_16 
ROOT
HETATM    1  C1  UNL     1      22.693  -0.988  53.964  1.00  0.00     0.051 C 
HETATM    2  C2  UNL     1      24.034  -0.379  53.819  1.00  0.00    -0.025 A 
HETATM    3  C3  UNL     1      25.107  -0.555  54.663  1.00  0.00     0.051 A 
HETATM    4  C4  UNL     1      26.329   0.052  54.452  1.00  0.00     0.117 A 
HETATM    5  F1  UNL     1      27.360  -0.148  55.308  1.00  0.00    -0.206 F 
HETATM    6  C5  UNL     1      26.439   0.861  53.339  1.00  0.00     0.052 A 
HETATM    7  C6  UNL     1      25.366   1.060  52.461  1.00  0.00    -0.017 A 
HETATM    8  C7  UNL     1      24.163   0.437  52.705  1.00  0.00     0.081 A 
HETATM    9  O1  UNL     1      23.242   0.765  51.725  1.00  0.00    -0.346 OA
HETATM   10  C8  UNL     1      23.140   2.116  51.272  1.00  0.00     0.231 C 
HETATM   11  C9  UNL     1      24.448   2.781  51.034  1.00  0.00     0.152 C 
HETATM   12  C17 UNL     1      25.665   1.954  51.315  1.00  0.00     0.099 C 
ENDROOT
BRANCH  11  13
HETATM   13  N1  UNL     1      24.582   3.998  51.853  1.00  0.00    -0.251 NA
HETATM   14  C10 UNL     1      23.535   4.281  52.570  1.00  0.00     0.197 C 
BRANCH  14  15
HETATM   15  N2  UNL     1      23.843   5.488  53.295  1.00  0.00    -0.394 N 
HETATM   16  H9  UNL     1      23.906   6.225  54.057  1.00  0.00     0.156 HD
HETATM   17  H10 UNL     1      24.294   6.435  53.318  1.00  0.00     0.156 HD
ENDBRANCH  14  15
ENDBRANCH  11  13
BRANCH  11  18
HETATM   18  N3  UNL     1      24.567   3.272  49.653  1.00  0.00    -0.360 N 
HETATM   19  H11 UNL     1      24.122   2.739  48.860  1.00  0.00     0.162 HD
BRANCH  18  20
HETATM   20  C11 UNL     1      25.243   4.443  49.216  1.00  0.00     0.031 A 
HETATM   21  C12 UNL     1      24.612   5.664  48.950  1.00  0.00     0.032 A 
HETATM   22  C13 UNL     1      25.365   6.738  48.528  1.00  0.00     0.046 A 
HETATM   23  C14 UNL     1      26.721   6.703  48.342  1.00  0.00     0.138 A 
HETATM   24  F2  UNL     1      27.303   7.845  47.924  1.00  0.00    -0.204 F 
HETATM   25  C15 UNL     1      27.348   5.488  48.605  1.00  0.00     0.074 A 
HETATM   26 CL1  UNL     1      29.086   5.459  48.362  1.00  0.00    -0.081 Cl
HETATM   27  C16 UNL     1      26.610   4.403  49.030  1.00  0.00     0.056 A 
ENDBRANCH  18  20
ENDBRANCH  11  18
TORSDOF 4
ENDMDL
MODEL 4
REMARK VINA RESULT:      -7.9      3.724      5.800
REMARK  4 active torsions:
REMARK  status: ('A' for Active; 'I' for Inactive)
REMARK    1  A    between atoms: C9_11  and  N1_12 
REMARK    2  A    between atoms: C9_11  and  N3_15 
REMARK    3  A    between atoms: C10_13  and  N2_14 
REMARK    4  A    between atoms: N3_15  and  C11_16 
ROOT
HETATM    1  C1  UNL     1      24.370   8.126  50.431  1.00  0.00     0.051 C 
HETATM    2  C2  UNL     1      25.246   7.069  49.878  1.00  0.00    -0.025 A 
HETATM    3  C3  UNL     1      26.248   7.241  48.950  1.00  0.00     0.051 A 
HETATM    4  C4  UNL     1      27.022   6.196  48.487  1.00  0.00     0.117 A 
HETATM    5  F1  UNL     1      28.000   6.409  47.573  1.00  0.00    -0.206 F 
HETATM    6  C5  UNL     1      26.750   4.944  48.999  1.00  0.00     0.052 A 
HETATM    7  C6  UNL     1      25.737   4.736  49.944  1.00  0.00    -0.017 A 
HETATM    8  C7  UNL     1      24.985   5.804  50.381  1.00  0.00     0.081 A 
HETATM    9  O1  UNL     1      24.045   5.384  51.306  1.00  0.00    -0.346 OA
HETATM   10  C8  UNL     1      23.307   4.184  51.073  1.00  0.00     0.231 C 
HETATM   11  C9  UNL     1      24.129   3.048  50.580  1.00  0.00     0.152 C 
HETATM   12  C17 UNL     1      25.588   3.328  50.388  1.00  0.00     0.099 C 
ENDROOT
BRANCH  11  13
HETATM   13  N1  UNL     1      23.632   2.556  49.282  1.00  0.00    -0.251 NA
HETATM   14  C10 UNL     1      22.403   2.136  49.303  1.00  0.00     0.197 C 
BRANCH  14  15
HETATM   15  N2  UNL     1      22.092   1.697  47.966  1.00  0.00    -0.394 N 
HETATM   16  H9  UNL     1      21.925   1.680  46.917  1.00  0.00     0.156 HD
HETATM   17  H10 UNL     1      21.808   0.925  47.314  1.00  0.00     0.156 HD
ENDBRANCH  14  15
ENDBRANCH  11  13
BRANCH  11  18
HETATM   18  N3  UNL     1      24.025   1.876  51.462  1.00  0.00    -0.360 N 
HETATM   19  H11 UNL     1      23.147   1.292  51.468  1.00  0.00     0.162 HD
BRANCH  18  20
HETATM   20  C11 UNL     1      25.010   1.393  52.364  1.00  0.00     0.031 A 
HETATM   21  C12 UNL     1      25.483   2.107  53.471  1.00  0.00     0.032 A 
HETATM   22  C13 UNL     1      26.444   1.544  54.281  1.00  0.00     0.046 A 
HETATM   23  C14 UNL     1      26.991   0.304  54.081  1.00  0.00     0.138 A 
HETATM   24  F2  UNL     1      27.923  -0.096  54.969  1.00  0.00    -0.204 F 
HETATM   25  C15 UNL     1      26.522  -0.405  52.978  1.00  0.00     0.074 A 
HETATM   26 CL1  UNL     1      27.232  -1.992  52.735  1.00  0.00    -0.081 Cl
HETATM   27  C16 UNL     1      25.558   0.143  52.158  1.00  0.00     0.056 A 
ENDBRANCH  18  20
ENDBRANCH  11  18
TORSDOF 4
ENDMDL
MODEL 5
REMARK VINA RESULT:      -7.9      3.782      5.688
REMARK  4 active torsions:
REMARK  status: ('A' for Active; 'I' for Inactive)
REMARK    1  A    between atoms: C9_11  and  N1_12 
REMARK    2  A    between atoms: C9_11  and  N3_15 
REMARK    3  A    between atoms: C10_13  and  N2_14 
REMARK    4  A    between atoms: N3_15  and  C11_16 
ROOT
HETATM    1  C1  UNL     1      19.646  -0.351  53.502  1.00  0.00     0.051 C 
HETATM    2  C2  UNL     1      21.114  -0.383  53.684  1.00  0.00    -0.025 A 
HETATM    3  C3  UNL     1      21.802  -1.079  54.653  1.00  0.00     0.051 A 
HETATM    4  C4  UNL     1      23.179  -1.056  54.751  1.00  0.00     0.117 A 
HETATM    5  F1  UNL     1      23.816  -1.756  55.720  1.00  0.00    -0.206 F 
HETATM    6  C5  UNL     1      23.857  -0.292  53.823  1.00  0.00     0.052 A 
HETATM    7  C6  UNL     1      23.186   0.427  52.825  1.00  0.00    -0.017 A 
HETATM    8  C7  UNL     1      21.812   0.379  52.760  1.00  0.00     0.081 A 
HETATM    9  O1  UNL     1      21.352   1.155  51.710  1.00  0.00    -0.346 OA
HETATM   10  C8  UNL     1      21.921   2.444  51.479  1.00  0.00     0.231 C 
HETATM   11  C9  UNL     1      23.404   2.483  51.575  1.00  0.00     0.152 C 
HETATM   12  C17 UNL     1      24.075   1.186  51.911  1.00  0.00     0.099 C 
ENDROOT
BRANCH  11  13
HETATM   13  N1  UNL     1      23.845   3.449  52.597  1.00  0.00    -0.251 NA
HETATM   14  C10 UNL     1      23.280   4.616  52.512  1.00  0.00     0.197 C 
BRANCH  14  15
HETATM   15  N2  UNL     1      23.826   5.420  53.576  1.00  0.00    -0.394 N 
HETATM   16  H9  UNL     1      24.203   5.737  54.517  1.00  0.00     0.156 HD
HETATM   17  H10 UNL     1      24.178   6.349  53.913  1.00  0.00     0.156 HD
ENDBRANCH  14  15
ENDBRANCH  11  13
BRANCH  11  18
HETATM   18  N3  UNL     1      24.019   2.980  50.335  1.00  0.00    -0.360 N 
HETATM   19  H11 UNL     1      25.062   3.122  50.280  1.00  0.00     0.162 HD
BRANCH  18  20
HETATM   20  C11 UNL     1      23.355   3.314  49.125  1.00  0.00     0.031 A 
HETATM   21  C12 UNL     1      22.745   2.383  48.277  1.00  0.00     0.032 A 
HETATM   22  C13 UNL     1      22.130   2.816  47.123  1.00  0.00     0.046 A 
HETATM   23  C14 UNL     1      22.067   4.127  46.729  1.00  0.00     0.138 A 
HETATM   24  F2  UNL     1      21.425   4.378  45.570  1.00  0.00    -0.204 F 
HETATM   25  C15 UNL     1      22.674   5.053  47.572  1.00  0.00     0.074 A 
HETATM   26 CL1  UNL     1      22.585   6.728  47.053  1.00  0.00    -0.081 Cl
HETATM   27  C16 UNL     1      23.294   4.636  48.732  1.00  0.00     0.056 A 
ENDBRANCH  18  20
ENDBRANCH  11  18
TORSDOF 4
ENDMDL
MODEL 6
REMARK VINA RESULT:      -7.8      2.788      4.055
REMARK  4 active torsions:
REMARK  status: ('A' for Active; 'I' for Inactive)
REMARK    1  A    between atoms: C9_11  and  N1_12 
REMARK    2  A    between atoms: C9_11  and  N3_15 
REMARK    3  A    between atoms: C10_13  and  N2_14 
REMARK    4  A    between atoms: N3_15  and  C11_16 
ROOT
HETATM    1  C1  UNL     1      23.657   6.522  49.804  1.00  0.00     0.051 C 
HETATM    2  C2  UNL     1      23.339   5.139  49.381  1.00  0.00    -0.025 A 
HETATM    3  C3  UNL     1      22.841   4.755  48.156  1.00  0.00     0.051 A 
HETATM    4  C4  UNL     1      22.572   3.438  47.842  1.00  0.00     0.117 A 
HETATM    5  F1  UNL     1      22.083   3.102  46.624  1.00  0.00    -0.206 F 
HETATM    6  C5  UNL     1      22.825   2.499  48.821  1.00  0.00     0.052 A 
HETATM    7  C6  UNL     1      23.331   2.859  50.077  1.00  0.00    -0.017 A 
HETATM    8  C7  UNL     1      23.587   4.183  50.353  1.00  0.00     0.081 A 
HETATM    9  O1  UNL     1      24.078   4.321  51.640  1.00  0.00    -0.346 OA
HETATM   10  C8  UNL     1      23.479   3.587  52.710  1.00  0.00     0.231 C 
HETATM   11  C9  UNL     1      23.189   2.165  52.387  1.00  0.00     0.152 C 
HETATM   12  C17 UNL     1      23.547   1.719  51.003  1.00  0.00     0.099 C 
ENDROOT
BRANCH  11  13
HETATM   13  N1  UNL     1      21.757   1.863  52.557  1.00  0.00    -0.251 NA
HETATM   14  C10 UNL     1      21.466   0.597  52.511  1.00  0.00     0.197 C 
BRANCH  14  15
HETATM   15  N2  UNL     1      20.040   0.492  52.692  1.00  0.00    -0.394 N 
HETATM   16  H9  UNL     1      18.999   0.391  52.507  1.00  0.00     0.156 HD
HETATM   17  H10 UNL     1      19.213   0.474  53.336  1.00  0.00     0.156 HD
ENDBRANCH  14  15
ENDBRANCH  11  13
BRANCH  11  18
HETATM   18  N3  UNL     1      23.854   1.247  53.324  1.00  0.00    -0.360 N 
HETATM   19  H11 UNL     1      23.326   0.855  54.148  1.00  0.00     0.162 HD
BRANCH  18  20
HETATM   20  C11 UNL     1      25.197   0.787  53.264  1.00  0.00     0.031 A 
HETATM   21  C12 UNL     1      25.567  -0.523  52.939  1.00  0.00     0.032 A 
HETATM   22  C13 UNL     1      26.902  -0.863  52.913  1.00  0.00     0.046 A 
HETATM   23  C14 UNL     1      27.925   0.006  53.188  1.00  0.00     0.138 A 
HETATM   24  F2  UNL     1      29.176  -0.492  53.116  1.00  0.00    -0.204 F 
HETATM   25  C15 UNL     1      27.556   1.308  53.512  1.00  0.00     0.074 A 
HETATM   26 CL1  UNL     1      28.878   2.410  53.862  1.00  0.00    -0.081 Cl
HETATM   27  C16 UNL     1      26.224   1.666  53.542  1.00  0.00     0.056 A 
ENDBRANCH  18  20
ENDBRANCH  11  18
TORSDOF 4
ENDMDL
MODEL 7
REMARK VINA RESULT:      -7.6      1.919      2.218
REMARK  4 active torsions:
REMARK  status: ('A' for Active; 'I' for Inactive)
REMARK    1  A    between atoms: C9_11  and  N1_12 
REMARK    2  A    between atoms: C9_11  and  N3_15 
REMARK    3  A    between atoms: C10_13  and  N2_14 
REMARK    4  A    between atoms: N3_15  and  C11_16 
ROOT
HETATM    1  C1  UNL     1      21.094   2.117  48.155  1.00  0.00     0.051 C 
HETATM    2  C2  UNL     1      20.763   2.424  49.565  1.00  0.00    -0.025 A 
HETATM    3  C3  UNL     1      19.506   2.658  50.077  1.00  0.00     0.051 A 
HETATM    4  C4  UNL     1      19.286   2.937  51.411  1.00  0.00     0.117 A 
HETATM    5  F1  UNL     1      18.032   3.161  51.874  1.00  0.00    -0.206 F 
HETATM    6  C5  UNL     1      20.394   2.975  52.232  1.00  0.00     0.052 A 
HETATM    7  C6  UNL     1      21.685   2.741  51.741  1.00  0.00    -0.017 A 
HETATM    8  C7  UNL     1      21.866   2.466  50.405  1.00  0.00     0.081 A 
HETATM    9  O1  UNL     1      23.208   2.270  50.130  1.00  0.00    -0.346 OA
HETATM   10  C8  UNL     1      24.184   3.141  50.702  1.00  0.00     0.231 C 
HETATM   11  C9  UNL     1      23.962   3.446  52.140  1.00  0.00     0.152 C 
HETATM   12  C17 UNL     1      22.756   2.816  52.766  1.00  0.00     0.099 C 
ENDROOT
BRANCH  11  13
HETATM   13  N1  UNL     1      23.827   4.896  52.362  1.00  0.00    -0.251 NA
HETATM   14  C10 UNL     1      24.089   5.625  51.318  1.00  0.00     0.197 C 
BRANCH  14  15
HETATM   15  N2  UNL     1      23.909   6.999  51.716  1.00  0.00    -0.394 N 
HETATM   16  H9  UNL     1      23.901   7.899  52.280  1.00  0.00     0.156 HD
HETATM   17  H10 UNL     1      23.595   7.971  51.479  1.00  0.00     0.156 HD
ENDBRANCH  14  15
ENDBRANCH  11  13
BRANCH  11  18
HETATM   18  N3  UNL     1      25.123   3.071  52.963  1.00  0.00    -0.360 N 
HETATM   19  H11 UNL     1      25.521   3.754  53.660  1.00  0.00     0.162 HD
BRANCH  18  20
HETATM   20  C11 UNL     1      25.822   1.836  52.944  1.00  0.00     0.031 A 
HETATM   21  C12 UNL     1      25.235   0.602  52.642  1.00  0.00     0.032 A 
HETATM   22  C13 UNL     1      26.008  -0.539  52.656  1.00  0.00     0.046 A 
HETATM   23  C14 UNL     1      27.346  -0.560  52.950  1.00  0.00     0.138 A 
HETATM   24  F2  UNL     1      27.952  -1.764  52.917  1.00  0.00    -0.204 F 
HETATM   25  C15 UNL     1      27.929   0.668  53.251  1.00  0.00     0.074 A 
HETATM   26 CL1  UNL     1      29.644   0.624  53.626  1.00  0.00    -0.081 Cl
HETATM   27  C16 UNL     1      27.170   1.819  53.241  1.00  0.00     0.056 A 
ENDBRANCH  18  20
ENDBRANCH  11  18
TORSDOF 4
ENDMDL
MODEL 8
REMARK VINA RESULT:      -7.4      4.109      5.298
REMARK  4 active torsions:
REMARK  status: ('A' for Active; 'I' for Inactive)
REMARK    1  A    between atoms: C9_11  and  N1_12 
REMARK    2  A    between atoms: C9_11  and  N3_15 
REMARK    3  A    between atoms: C10_13  and  N2_14 
REMARK    4  A    between atoms: N3_15  and  C11_16 
ROOT
HETATM    1  C1  UNL     1      21.929   3.626  46.111  1.00  0.00     0.051 C 
HETATM    2  C2  UNL     1      22.134   4.792  47.000  1.00  0.00    -0.025 A 
HETATM    3  C3  UNL     1      21.763   6.092  46.739  1.00  0.00     0.051 A 
HETATM    4  C4  UNL     1      21.991   7.124  47.628  1.00  0.00     0.117 A 
HETATM    5  F1  UNL     1      21.610   8.390  47.333  1.00  0.00    -0.206 F 
HETATM    6  C5  UNL     1      22.618   6.798  48.813  1.00  0.00     0.052 A 
HETATM    7  C6  UNL     1      23.007   5.485  49.108  1.00  0.00    -0.017 A 
HETATM    8  C7  UNL     1      22.763   4.483  48.196  1.00  0.00     0.081 A 
HETATM    9  O1  UNL     1      23.223   3.270  48.678  1.00  0.00    -0.346 OA
HETATM   10  C8  UNL     1      24.496   3.200  49.323  1.00  0.00     0.231 C 
HETATM   11  C9  UNL     1      24.753   4.301  50.287  1.00  0.00     0.152 C 
HETATM   12  C17 UNL     1      23.662   5.318  50.429  1.00  0.00     0.099 C 
ENDROOT
BRANCH  11  13
HETATM   13  N1  UNL     1      25.967   5.053  49.925  1.00  0.00    -0.251 NA
HETATM   14  C10 UNL     1      26.789   4.405  49.153  1.00  0.00     0.197 C 
BRANCH  14  15
HETATM   15  N2  UNL     1      27.905   5.283  48.907  1.00  0.00    -0.394 N 
HETATM   16  H9  UNL     1      28.886   5.688  48.860  1.00  0.00     0.156 HD
HETATM   17  H10 UNL     1      28.270   6.194  48.537  1.00  0.00     0.156 HD
ENDBRANCH  14  15
ENDBRANCH  11  13
BRANCH  11  18
HETATM   18  N3  UNL     1      25.046   3.789  51.635  1.00  0.00    -0.360 N 
HETATM   19  H11 UNL     1      25.040   4.442  52.463  1.00  0.00     0.162 HD
BRANCH  18  20
HETATM   20  C11 UNL     1      25.354   2.450  51.993  1.00  0.00     0.031 A 
HETATM   21  C12 UNL     1      26.588   1.835  51.756  1.00  0.00     0.032 A 
HETATM   22  C13 UNL     1      26.780   0.527  52.143  1.00  0.00     0.046 A 
HETATM   23  C14 UNL     1      25.828  -0.241  52.761  1.00  0.00     0.138 A 
HETATM   24  F2  UNL     1      26.181  -1.505  53.073  1.00  0.00    -0.204 F 
HETATM   25  C15 UNL     1      24.600   0.371  52.996  1.00  0.00     0.074 A 
HETATM   26 CL1  UNL     1      23.391  -0.627  53.787  1.00  0.00    -0.081 Cl
HETATM   27  C16 UNL     1      24.392   1.680  52.615  1.00  0.00     0.056 A 
ENDBRANCH  18  20
ENDBRANCH  11  18
TORSDOF 4
ENDMDL
MODEL 9
REMARK VINA RESULT:      -7.3      3.575      5.067
REMARK  4 active torsions:
REMARK  status: ('A' for Active; 'I' for Inactive)
REMARK    1  A    between atoms: C9_11  and  N1_12 
REMARK    2  A    between atoms: C9_11  and  N3_15 
REMARK    3  A    between atoms: C10_13  and  N2_14 
REMARK    4  A    between atoms: N3_15  and  C11_16 
ROOT
HETATM    1  C1  UNL     1      18.866  -0.531  52.689  1.00  0.00     0.051 C 
HETATM    2  C2  UNL     1      20.285  -0.450  53.102  1.00  0.00    -0.025 A 
HETATM    3  C3  UNL     1      20.831  -0.968  54.255  1.00  0.00     0.051 A 
HETATM    4  C4  UNL     1      22.171  -0.848  54.563  1.00  0.00     0.117 A 
HETATM    5  F1  UNL     1      22.668  -1.373  55.710  1.00  0.00    -0.206 F 
HETATM    6  C5  UNL     1      22.963  -0.176  53.655  1.00  0.00     0.052 A 
HETATM    7  C6  UNL     1      22.437   0.362  52.473  1.00  0.00    -0.017 A 
HETATM    8  C7  UNL     1      21.095   0.223  52.200  1.00  0.00     0.081 A 
HETATM    9  O1  UNL     1      20.784   0.823  50.991  1.00  0.00    -0.346 OA
HETATM   10  C8  UNL     1      21.334   2.102  50.673  1.00  0.00     0.231 C 
HETATM   11  C9  UNL     1      22.778   2.243  50.994  1.00  0.00     0.152 C 
HETATM   12  C17 UNL     1      23.434   1.045  51.611  1.00  0.00     0.099 C 
ENDROOT
BRANCH  11  13
HETATM   13  N1  UNL     1      23.009   3.361  51.926  1.00  0.00    -0.251 NA
HETATM   14  C10 UNL     1      24.110   3.270  52.611  1.00  0.00     0.197 C 
BRANCH  14  15
HETATM   15  N2  UNL     1      24.168   4.434  53.459  1.00  0.00    -0.394 N 
HETATM   16  H9  UNL     1      23.938   5.356  53.933  1.00  0.00     0.156 HD
HETATM   17  H10 UNL     1      24.668   4.986  54.198  1.00  0.00     0.156 HD
ENDBRANCH  14  15
ENDBRANCH  11  13
BRANCH  11  18
HETATM   18  N3  UNL     1      23.568   2.606  49.808  1.00  0.00    -0.360 N 
HETATM   19  H11 UNL     1      24.078   1.862  49.261  1.00  0.00     0.162 HD
BRANCH  18  20
HETATM   20  C11 UNL     1      23.748   3.906  49.264  1.00  0.00     0.031 A 
HETATM   21  C12 UNL     1      22.733   4.653  48.657  1.00  0.00     0.032 A 
HETATM   22  C13 UNL     1      23.018   5.906  48.159  1.00  0.00     0.046 A 
HETATM   23  C14 UNL     1      24.254   6.494  48.214  1.00  0.00     0.138 A 
HETATM   24  F2  UNL     1      24.360   7.727  47.678  1.00  0.00    -0.204 F 
HETATM   25  C15 UNL     1      25.264   5.749  48.817  1.00  0.00     0.074 A 
HETATM   26 CL1  UNL     1      26.842   6.516  48.878  1.00  0.00    -0.081 Cl
HETATM   27  C16 UNL     1      24.996   4.494  49.321  1.00  0.00     0.056 A 
ENDBRANCH  18  20
ENDBRANCH  11  18
TORSDOF 4
ENDMDL
