MODEL 1
REMARK VINA RESULT:      -9.0      0.000      0.000
REMARK  0 active torsions:
REMARK  status: ('A' for Active; 'I' for Inactive)
ROOT
HETATM    1  F1  UNL     1      19.489   1.491  52.752  1.00  0.00    -0.209 F 
HETATM    2  C1  UNL     1      20.784   1.441  52.387  1.00  0.00     0.121 C 
HETATM    3  C2  UNL     1      21.695   0.703  52.990  1.00  0.00     0.039 C 
HETATM    4  C3  UNL     1      21.347  -0.128  54.123  1.00  0.00     0.004 C 
HETATM    5  C4  UNL     1      22.195  -0.895  54.783  1.00  0.00     0.019 C 
HETATM    6  C5  UNL     1      23.604  -1.055  54.513  1.00  0.00     0.117 C 
HETATM    7  N1  UNL     1      24.342  -0.531  53.626  1.00  0.00    -0.261 NA
HETATM    8  C6  UNL     1      25.721  -0.730  53.413  1.00  0.00     0.062 A 
HETATM    9  C7  UNL     1      25.992  -1.971  52.877  1.00  0.00     0.032 A 
HETATM   10  C8  UNL     1      27.265  -2.416  52.570  1.00  0.00     0.002 A 
HETATM   11  C9  UNL     1      28.335  -1.563  52.816  1.00  0.00     0.001 A 
HETATM   12  C10 UNL     1      28.035  -0.317  53.356  1.00  0.00     0.009 A 
HETATM   13  C11 UNL     1      26.767   0.130  53.663  1.00  0.00    -0.029 A 
HETATM   14  C12 UNL     1      26.692   1.475  54.226  1.00  0.00     0.047 C 
HETATM   15  C13 UNL     1      27.430   2.536  53.452  1.00  0.00     0.061 C 
HETATM   16  C14 UNL     1      26.855   2.614  52.129  1.00  0.00     0.003 C 
HETATM   17  C15 UNL     1      25.801   1.882  51.699  1.00  0.00     0.011 C 
HETATM   18  C16 UNL     1      25.125   2.870  50.906  1.00  0.00     0.088 A 
HETATM   19  C17 UNL     1      25.026   3.109  49.594  1.00  0.00     0.042 A 
HETATM   20  N2  UNL     1      23.896   3.225  49.217  1.00  0.00    -0.266 NA
HETATM   21  C18 UNL     1      22.605   3.191  49.727  1.00  0.00     0.418 C 
HETATM   22  N3  UNL     1      22.327   2.333  50.828  1.00  0.00     0.108 NA
HETATM   23  C19 UNL     1      20.931   2.345  51.245  1.00  0.00     0.341 C 
HETATM   24  C20 UNL     1      26.318   2.996  49.913  1.00  0.00     0.143 A 
HETATM   25  N4  UNL     1      27.161   3.405  50.956  1.00  0.00    -0.383 N 
HETATM   26  H17 UNL     1      22.856   2.620  51.699  1.00  0.00     0.318 HD
HETATM   27  H21 UNL     1      27.779   4.173  50.590  1.00  0.00     0.160 HD
ENDROOT
TORSDOF 0
ENDMDL
MODEL 2
REMARK VINA RESULT:      -9.0      1.752      2.557
REMARK  0 active torsions:
REMARK  status: ('A' for Active; 'I' for Inactive)
ROOT
HETATM    1  F1  UNL     1      18.127  -0.878  52.964  1.00  0.00    -0.209 F 
HETATM    2  C1  UNL     1      19.259  -0.387  52.424  1.00  0.00     0.121 C 
HETATM    3  C2  UNL     1      20.445  -0.461  52.996  1.00  0.00     0.039 C 
HETATM    4  C3  UNL     1      20.609  -1.098  54.285  1.00  0.00     0.004 C 
HETATM    5  C4  UNL     1      21.758  -1.215  54.926  1.00  0.00     0.019 C 
HETATM    6  C5  UNL     1      23.047  -0.744  54.479  1.00  0.00     0.117 C 
HETATM    7  N1  UNL     1      23.385  -0.135  53.421  1.00  0.00    -0.261 NA
HETATM    8  C6  UNL     1      24.670   0.301  53.041  1.00  0.00     0.062 A 
HETATM    9  C7  UNL     1      25.489  -0.747  52.675  1.00  0.00     0.032 A 
HETATM   10  C8  UNL     1      26.799  -0.592  52.258  1.00  0.00     0.002 A 
HETATM   11  C9  UNL     1      27.321   0.695  52.204  1.00  0.00     0.001 A 
HETATM   12  C10 UNL     1      26.476   1.734  52.577  1.00  0.00     0.009 A 
HETATM   13  C11 UNL     1      25.170   1.583  52.994  1.00  0.00    -0.029 A 
HETATM   14  C12 UNL     1      24.473   2.818  53.341  1.00  0.00     0.047 C 
HETATM   15  C13 UNL     1      24.552   3.911  52.307  1.00  0.00     0.061 C 
HETATM   16  C14 UNL     1      23.945   3.428  51.088  1.00  0.00     0.003 C 
HETATM   17  C15 UNL     1      23.367   2.214  50.941  1.00  0.00     0.011 C 
HETATM   18  C16 UNL     1      22.253   2.573  50.110  1.00  0.00     0.088 A 
HETATM   19  C17 UNL     1      21.981   2.454  48.806  1.00  0.00     0.042 A 
HETATM   20  N2  UNL     1      20.922   1.940  48.587  1.00  0.00    -0.266 NA
HETATM   21  C18 UNL     1      19.844   1.410  49.280  1.00  0.00     0.418 C 
HETATM   22  N3  UNL     1      20.081   0.776  50.533  1.00  0.00     0.108 NA
HETATM   23  C19 UNL     1      18.883   0.216  51.144  1.00  0.00     0.341 C 
HETATM   24  C20 UNL     1      23.177   3.034  48.944  1.00  0.00     0.143 A 
HETATM   25  N4  UNL     1      23.762   4.002  49.773  1.00  0.00    -0.383 N 
HETATM   26  H17 UNL     1      20.445   1.455  51.259  1.00  0.00     0.318 HD
HETATM   27  H21 UNL     1      23.903   4.874  49.202  1.00  0.00     0.160 HD
ENDROOT
TORSDOF 0
ENDMDL
MODEL 3
REMARK VINA RESULT:      -8.4      2.889      5.556
REMARK  0 active torsions:
REMARK  status: ('A' for Active; 'I' for Inactive)
ROOT
HETATM    1  F1  UNL     1      20.996  -0.098  51.503  1.00  0.00    -0.209 F 
HETATM    2  C1  UNL     1      21.499   0.902  50.754  1.00  0.00     0.121 C 
HETATM    3  C2  UNL     1      22.658   1.488  50.983  1.00  0.00     0.039 C 
HETATM    4  C3  UNL     1      23.491   1.078  52.093  1.00  0.00     0.004 C 
HETATM    5  C4  UNL     1      24.661   1.610  52.393  1.00  0.00     0.019 C 
HETATM    6  C5  UNL     1      25.328   2.681  51.690  1.00  0.00     0.117 C 
HETATM    7  N1  UNL     1      24.980   3.342  50.666  1.00  0.00    -0.261 NA
HETATM    8  C6  UNL     1      25.681   4.382  50.023  1.00  0.00     0.062 A 
HETATM    9  C7  UNL     1      26.778   3.919  49.327  1.00  0.00     0.032 A 
HETATM   10  C8  UNL     1      27.633   4.733  48.606  1.00  0.00     0.002 A 
HETATM   11  C9  UNL     1      27.373   6.099  48.583  1.00  0.00     0.001 A 
HETATM   12  C10 UNL     1      26.262   6.540  49.292  1.00  0.00     0.009 A 
HETATM   13  C11 UNL     1      25.407   5.732  50.011  1.00  0.00    -0.029 A 
HETATM   14  C12 UNL     1      24.306   6.416  50.682  1.00  0.00     0.047 C 
HETATM   15  C13 UNL     1      23.506   7.351  49.811  1.00  0.00     0.061 C 
HETATM   16  C14 UNL     1      22.917   6.580  48.741  1.00  0.00     0.003 C 
HETATM   17  C15 UNL     1      23.037   5.240  48.596  1.00  0.00     0.011 C 
HETATM   18  C16 UNL     1      21.714   4.924  48.136  1.00  0.00     0.088 A 
HETATM   19  C17 UNL     1      21.181   4.637  46.944  1.00  0.00     0.042 A 
HETATM   20  N2  UNL     1      20.530   3.633  46.944  1.00  0.00    -0.266 NA
HETATM   21  C18 UNL     1      20.135   2.632  47.821  1.00  0.00     0.418 C 
HETATM   22  N3  UNL     1      21.015   2.262  48.878  1.00  0.00     0.108 NA
HETATM   23  C19 UNL     1      20.516   1.171  49.704  1.00  0.00     0.341 C 
HETATM   24  C20 UNL     1      21.884   5.769  46.838  1.00  0.00     0.143 A 
HETATM   25  N4  UNL     1      22.093   6.926  47.603  1.00  0.00    -0.383 N 
HETATM   26  H17 UNL     1      21.166   3.054  49.565  1.00  0.00     0.318 HD
HETATM   27  H21 UNL     1      21.591   7.720  47.131  1.00  0.00     0.160 HD
ENDROOT
TORSDOF 0
ENDMDL
MODEL 4
REMARK VINA RESULT:      -8.4      2.346      5.164
REMARK  0 active torsions:
REMARK  status: ('A' for Active; 'I' for Inactive)
ROOT
HETATM    1  F1  UNL     1      22.657  -2.175  55.344  1.00  0.00    -0.209 F 
HETATM    2  C1  UNL     1      22.498  -1.216  54.412  1.00  0.00     0.121 C 
HETATM    3  C2  UNL     1      23.456  -0.400  54.018  1.00  0.00     0.039 C 
HETATM    4  C3  UNL     1      24.785  -0.487  54.585  1.00  0.00     0.004 C 
HETATM    5  C4  UNL     1      25.799   0.289  54.249  1.00  0.00     0.019 C 
HETATM    6  C5  UNL     1      25.786   1.352  53.272  1.00  0.00     0.117 C 
HETATM    7  N1  UNL     1      24.852   1.785  52.532  1.00  0.00    -0.261 NA
HETATM    8  C6  UNL     1      24.904   2.834  51.592  1.00  0.00     0.062 A 
HETATM    9  C7  UNL     1      25.612   2.486  50.461  1.00  0.00     0.032 A 
HETATM   10  C8  UNL     1      25.809   3.333  49.385  1.00  0.00     0.002 A 
HETATM   11  C9  UNL     1      25.262   4.610  49.447  1.00  0.00     0.001 A 
HETATM   12  C10 UNL     1      24.553   4.936  50.597  1.00  0.00     0.009 A 
HETATM   13  C11 UNL     1      24.353   4.094  51.672  1.00  0.00    -0.029 A 
HETATM   14  C12 UNL     1      23.578   4.653  52.775  1.00  0.00     0.047 C 
HETATM   15  C13 UNL     1      22.271   5.290  52.382  1.00  0.00     0.061 C 
HETATM   16  C14 UNL     1      21.440   4.280  51.769  1.00  0.00     0.003 C 
HETATM   17  C15 UNL     1      21.782   2.978  51.630  1.00  0.00     0.011 C 
HETATM   18  C16 UNL     1      20.512   2.362  51.894  1.00  0.00     0.088 A 
HETATM   19  C17 UNL     1      19.561   1.814  51.131  1.00  0.00     0.042 A 
HETATM   20  N2  UNL     1      19.239   0.718  51.487  1.00  0.00    -0.266 NA
HETATM   21  C18 UNL     1      19.550  -0.203  52.478  1.00  0.00     0.418 C 
HETATM   22  N3  UNL     1      20.884  -0.250  52.974  1.00  0.00     0.108 NA
HETATM   23  C19 UNL     1      21.103  -1.285  53.975  1.00  0.00     0.341 C 
HETATM   24  C20 UNL     1      19.847   3.029  50.654  1.00  0.00     0.143 A 
HETATM   25  N4  UNL     1      20.121   4.302  51.176  1.00  0.00    -0.383 N 
HETATM   26  H17 UNL     1      21.156   0.646  53.469  1.00  0.00     0.318 HD
HETATM   27  H21 UNL     1      19.287   4.915  50.987  1.00  0.00     0.160 HD
ENDROOT
TORSDOF 0
ENDMDL
MODEL 5
REMARK VINA RESULT:      -8.4      1.816      5.290
REMARK  0 active torsions:
REMARK  status: ('A' for Active; 'I' for Inactive)
ROOT
HETATM    1  F1  UNL     1      21.226  -1.971  53.673  1.00  0.00    -0.209 F 
HETATM    2  C1  UNL     1      22.085  -0.944  53.528  1.00  0.00     0.121 C 
HETATM    3  C2  UNL     1      21.856   0.112  52.772  1.00  0.00     0.039 C 
HETATM    4  C3  UNL     1      20.623   0.236  52.024  1.00  0.00     0.004 C 
HETATM    5  C4  UNL     1      20.314   1.256  51.245  1.00  0.00     0.019 C 
HETATM    6  C5  UNL     1      21.124   2.424  50.991  1.00  0.00     0.117 C 
HETATM    7  N1  UNL     1      22.270   2.748  51.425  1.00  0.00    -0.261 NA
HETATM    8  C6  UNL     1      23.012   3.911  51.137  1.00  0.00     0.062 A 
HETATM    9  C7  UNL     1      22.487   5.029  51.748  1.00  0.00     0.032 A 
HETATM   10  C8  UNL     1      23.027   6.297  51.629  1.00  0.00     0.002 A 
HETATM   11  C9  UNL     1      24.167   6.453  50.850  1.00  0.00     0.001 A 
HETATM   12  C10 UNL     1      24.678   5.310  50.245  1.00  0.00     0.009 A 
HETATM   13  C11 UNL     1      24.142   4.045  50.360  1.00  0.00    -0.029 A 
HETATM   14  C12 UNL     1      24.845   2.993  49.632  1.00  0.00     0.047 C 
HETATM   15  C13 UNL     1      26.333   2.936  49.866  1.00  0.00     0.061 C 
HETATM   16  C14 UNL     1      26.562   2.685  51.271  1.00  0.00     0.003 C 
HETATM   17  C15 UNL     1      25.588   2.488  52.189  1.00  0.00     0.011 C 
HETATM   18  C16 UNL     1      26.206   1.465  52.985  1.00  0.00     0.088 A 
HETATM   19  C17 UNL     1      26.823   1.446  54.171  1.00  0.00     0.042 A 
HETATM   20  N2  UNL     1      26.393   0.615  54.917  1.00  0.00    -0.266 NA
HETATM   21  C18 UNL     1      25.421  -0.376  54.944  1.00  0.00     0.418 C 
HETATM   22  N3  UNL     1      24.221  -0.178  54.204  1.00  0.00     0.108 NA
HETATM   23  C19 UNL     1      23.257  -1.260  54.346  1.00  0.00     0.341 C 
HETATM   24  C20 UNL     1      27.373   2.402  53.417  1.00  0.00     0.143 A 
HETATM   25  N4  UNL     1      27.756   2.564  52.078  1.00  0.00    -0.383 N 
HETATM   26  H17 UNL     1      24.401  -0.131  53.161  1.00  0.00     0.318 HD
HETATM   27  H21 UNL     1      28.808   2.552  52.038  1.00  0.00     0.160 HD
ENDROOT
TORSDOF 0
ENDMDL
MODEL 6
REMARK VINA RESULT:      -8.3      2.325      6.078
REMARK  0 active torsions:
REMARK  status: ('A' for Active; 'I' for Inactive)
ROOT
HETATM    1  F1  UNL     1      22.638  -2.117  55.222  1.00  0.00    -0.209 F 
HETATM    2  C1  UNL     1      22.624  -1.053  54.396  1.00  0.00     0.121 C 
HETATM    3  C2  UNL     1      21.556  -0.639  53.741  1.00  0.00     0.039 C 
HETATM    4  C3  UNL     1      20.290  -1.326  53.875  1.00  0.00     0.004 C 
HETATM    5  C4  UNL     1      19.176  -0.979  53.257  1.00  0.00     0.019 C 
HETATM    6  C5  UNL     1      19.002   0.130  52.348  1.00  0.00     0.117 C 
HETATM    7  N1  UNL     1      19.826   1.000  51.937  1.00  0.00    -0.261 NA
HETATM    8  C6  UNL     1      19.593   2.065  51.044  1.00  0.00     0.062 A 
HETATM    9  C7  UNL     1      18.845   3.072  51.617  1.00  0.00     0.032 A 
HETATM   10  C8  UNL     1      18.479   4.231  50.956  1.00  0.00     0.002 A 
HETATM   11  C9  UNL     1      18.887   4.390  49.637  1.00  0.00     0.001 A 
HETATM   12  C10 UNL     1      19.640   3.361  49.083  1.00  0.00     0.009 A 
HETATM   13  C11 UNL     1      20.007   2.205  49.738  1.00  0.00    -0.029 A 
HETATM   14  C12 UNL     1      20.796   1.259  48.954  1.00  0.00     0.047 C 
HETATM   15  C13 UNL     1      21.995   1.848  48.256  1.00  0.00     0.061 C 
HETATM   16  C14 UNL     1      22.883   2.389  49.259  1.00  0.00     0.003 C 
HETATM   17  C15 UNL     1      22.675   2.321  50.594  1.00  0.00     0.011 C 
HETATM   18  C16 UNL     1      24.020   2.089  51.040  1.00  0.00     0.088 A 
HETATM   19  C17 UNL     1      24.966   2.852  51.596  1.00  0.00     0.042 A 
HETATM   20  N2  UNL     1      25.430   2.381  52.594  1.00  0.00    -0.266 NA
HETATM   21  C18 UNL     1      25.294   1.251  53.389  1.00  0.00     0.418 C 
HETATM   22  N3  UNL     1      24.014   0.638  53.493  1.00  0.00     0.108 NA
HETATM   23  C19 UNL     1      23.983  -0.509  54.391  1.00  0.00     0.341 C 
HETATM   24  C20 UNL     1      24.515   3.461  50.496  1.00  0.00     0.143 A 
HETATM   25  N4  UNL     1      24.145   3.094  49.194  1.00  0.00    -0.383 N 
HETATM   26  H17 UNL     1      23.684   0.246  52.567  1.00  0.00     0.318 HD
HETATM   27  H21 UNL     1      24.891   3.437  48.536  1.00  0.00     0.160 HD
ENDROOT
TORSDOF 0
ENDMDL
MODEL 7
REMARK VINA RESULT:      -7.9      3.818      6.879
REMARK  0 active torsions:
REMARK  status: ('A' for Active; 'I' for Inactive)
ROOT
HETATM    1  F1  UNL     1      26.297   7.854  47.964  1.00  0.00    -0.209 F 
HETATM    2  C1  UNL     1      25.266   7.162  48.487  1.00  0.00     0.121 C 
HETATM    3  C2  UNL     1      25.358   5.927  48.939  1.00  0.00     0.039 C 
HETATM    4  C3  UNL     1      26.617   5.213  48.900  1.00  0.00     0.004 C 
HETATM    5  C4  UNL     1      26.796   3.978  49.331  1.00  0.00     0.019 C 
HETATM    6  C5  UNL     1      25.796   3.114  49.913  1.00  0.00     0.117 C 
HETATM    7  N1  UNL     1      24.566   3.310  50.146  1.00  0.00    -0.261 NA
HETATM    8  C6  UNL     1      23.637   2.420  50.722  1.00  0.00     0.062 A 
HETATM    9  C7  UNL     1      23.846   2.251  52.074  1.00  0.00     0.032 A 
HETATM   10  C8  UNL     1      23.072   1.432  52.877  1.00  0.00     0.002 A 
HETATM   11  C9  UNL     1      22.022   0.738  52.286  1.00  0.00     0.001 A 
HETATM   12  C10 UNL     1      21.833   0.926  50.922  1.00  0.00     0.009 A 
HETATM   13  C11 UNL     1      22.602   1.741  50.118  1.00  0.00    -0.029 A 
HETATM   14  C12 UNL     1      22.220   1.780  48.710  1.00  0.00     0.047 C 
HETATM   15  C13 UNL     1      20.760   2.044  48.449  1.00  0.00     0.061 C 
HETATM   16  C14 UNL     1      20.427   3.338  48.999  1.00  0.00     0.003 C 
HETATM   17  C15 UNL     1      21.308   4.173  49.598  1.00  0.00     0.011 C 
HETATM   18  C16 UNL     1      20.827   5.432  49.101  1.00  0.00     0.088 A 
HETATM   19  C17 UNL     1      20.095   6.424  49.619  1.00  0.00     0.042 A 
HETATM   20  N2  UNL     1      20.599   7.502  49.492  1.00  0.00    -0.266 NA
HETATM   21  C18 UNL     1      21.745   8.074  48.957  1.00  0.00     0.418 C 
HETATM   22  N3  UNL     1      22.955   7.324  48.973  1.00  0.00     0.108 NA
HETATM   23  C19 UNL     1      24.099   8.043  48.429  1.00  0.00     0.341 C 
HETATM   24  C20 UNL     1      19.450   5.269  49.811  1.00  0.00     0.143 A 
HETATM   25  N4  UNL     1      19.198   4.098  49.083  1.00  0.00    -0.383 N 
HETATM   26  H17 UNL     1      22.891   6.455  48.371  1.00  0.00     0.318 HD
HETATM   27  H21 UNL     1      18.184   4.101  48.804  1.00  0.00     0.160 HD
ENDROOT
TORSDOF 0
ENDMDL
MODEL 8
REMARK VINA RESULT:      -7.8      2.214      5.861
REMARK  0 active torsions:
REMARK  status: ('A' for Active; 'I' for Inactive)
ROOT
HETATM    1  F1  UNL     1      26.242  -0.854  54.005  1.00  0.00    -0.209 F 
HETATM    2  C1  UNL     1      25.548   0.036  53.271  1.00  0.00     0.121 C 
HETATM    3  C2  UNL     1      24.235   0.026  53.143  1.00  0.00     0.039 C 
HETATM    4  C3  UNL     1      23.432  -0.979  53.804  1.00  0.00     0.004 C 
HETATM    5  C4  UNL     1      22.116  -1.062  53.729  1.00  0.00     0.019 C 
HETATM    6  C5  UNL     1      21.238  -0.186  52.989  1.00  0.00     0.117 C 
HETATM    7  N1  UNL     1      21.491   0.824  52.268  1.00  0.00    -0.261 NA
HETATM    8  C6  UNL     1      20.582   1.643  51.568  1.00  0.00     0.062 A 
HETATM    9  C7  UNL     1      19.853   2.453  52.413  1.00  0.00     0.032 A 
HETATM   10  C8  UNL     1      18.895   3.352  51.980  1.00  0.00     0.002 A 
HETATM   11  C9  UNL     1      18.653   3.446  50.615  1.00  0.00     0.001 A 
HETATM   12  C10 UNL     1      19.401   2.619  49.784  1.00  0.00     0.009 A 
HETATM   13  C11 UNL     1      20.357   1.721  50.211  1.00  0.00    -0.029 A 
HETATM   14  C12 UNL     1      21.015   0.953  49.159  1.00  0.00     0.047 C 
HETATM   15  C13 UNL     1      21.562   1.769  48.016  1.00  0.00     0.061 C 
HETATM   16  C14 UNL     1      22.555   2.678  48.542  1.00  0.00     0.003 C 
HETATM   17  C15 UNL     1      22.945   2.732  49.836  1.00  0.00     0.011 C 
HETATM   18  C16 UNL     1      24.350   2.968  49.659  1.00  0.00     0.088 A 
HETATM   19  C17 UNL     1      25.138   4.043  49.757  1.00  0.00     0.042 A 
HETATM   20  N2  UNL     1      26.094   3.868  50.456  1.00  0.00    -0.266 NA
HETATM   21  C18 UNL     1      26.669   2.867  51.225  1.00  0.00     0.418 C 
HETATM   22  N3  UNL     1      25.818   1.924  51.868  1.00  0.00     0.108 NA
HETATM   23  C19 UNL     1      26.529   0.950  52.685  1.00  0.00     0.341 C 
HETATM   24  C20 UNL     1      24.106   4.339  48.961  1.00  0.00     0.143 A 
HETATM   25  N4  UNL     1      23.377   3.707  47.944  1.00  0.00    -0.383 N 
HETATM   26  H17 UNL     1      25.284   1.331  51.171  1.00  0.00     0.318 HD
HETATM   27  H21 UNL     1      23.634   4.162  47.031  1.00  0.00     0.160 HD
ENDROOT
TORSDOF 0
ENDMDL
MODEL 9
REMARK VINA RESULT:      -7.7      3.891      6.419
REMARK  0 active torsions:
REMARK  status: ('A' for Active; 'I' for Inactive)
ROOT
HETATM    1  F1  UNL     1      23.057   9.712  48.580  1.00  0.00    -0.209 F 
HETATM    2  C1  UNL     1      23.378   8.416  48.758  1.00  0.00     0.121 C 
HETATM    3  C2  UNL     1      22.517   7.483  49.115  1.00  0.00     0.039 C 
HETATM    4  C3  UNL     1      21.126   7.806  49.348  1.00  0.00     0.004 C 
HETATM    5  C4  UNL     1      20.201   6.935  49.707  1.00  0.00     0.019 C 
HETATM    6  C5  UNL     1      20.388   5.521  49.934  1.00  0.00     0.117 C 
HETATM    7  N1  UNL     1      21.427   4.800  49.850  1.00  0.00    -0.261 NA
HETATM    8  C6  UNL     1      21.544   3.415  50.086  1.00  0.00     0.062 A 
HETATM    9  C7  UNL     1      20.965   2.665  49.084  1.00  0.00     0.032 A 
HETATM   10  C8  UNL     1      20.945   1.282  49.071  1.00  0.00     0.002 A 
HETATM   11  C9  UNL     1      21.543   0.608  50.130  1.00  0.00     0.001 A 
HETATM   12  C10 UNL     1      22.119   1.387  51.127  1.00  0.00     0.009 A 
HETATM   13  C11 UNL     1      22.142   2.766  51.143  1.00  0.00    -0.029 A 
HETATM   14  C12 UNL     1      22.800   3.372  52.296  1.00  0.00     0.047 C 
HETATM   15  C13 UNL     1      24.177   2.840  52.601  1.00  0.00     0.061 C 
HETATM   16  C14 UNL     1      25.026   3.099  51.461  1.00  0.00     0.003 C 
HETATM   17  C15 UNL     1      24.640   3.754  50.342  1.00  0.00     0.011 C 
HETATM   18  C16 UNL     1      25.835   4.503  50.073  1.00  0.00     0.088 A 
HETATM   19  C17 UNL     1      26.846   4.374  49.208  1.00  0.00     0.042 A 
HETATM   20  N2  UNL     1      27.066   5.370  48.582  1.00  0.00    -0.266 NA
HETATM   21  C18 UNL     1      26.589   6.668  48.465  1.00  0.00     0.418 C 
HETATM   22  N3  UNL     1      25.204   6.911  48.684  1.00  0.00     0.108 NA
HETATM   23  C19 UNL     1      24.812   8.300  48.487  1.00  0.00     0.341 C 
HETATM   24  C20 UNL     1      26.681   3.215  49.852  1.00  0.00     0.143 A 
HETATM   25  N4  UNL     1      26.408   2.794  51.161  1.00  0.00    -0.383 N 
HETATM   26  H17 UNL     1      24.917   6.704  49.683  1.00  0.00     0.318 HD
HETATM   27  H21 UNL     1      27.288   2.374  51.557  1.00  0.00     0.160 HD
ENDROOT
TORSDOF 0
ENDMDL
