MODEL 1
REMARK VINA RESULT:      -7.0      0.000      0.000
REMARK  9 active torsions:
REMARK  status: ('A' for Active; 'I' for Inactive)
REMARK    1  A    between atoms: O1_1  and  C1_2 
REMARK    2  A    between atoms: C1_2  and  C2_3 
REMARK    3  A    between atoms: N1_6  and  C5_7 
REMARK    4  A    between atoms: C5_7  and  C6_8 
REMARK    5  A    between atoms: C6_8  and  C7_9 
REMARK    6  A    between atoms: C7_9  and  O2_10 
REMARK    7  A    between atoms: O2_10  and  C8_11 
REMARK    8  A    between atoms: C9_12  and  C10_13 
REMARK    9  A    between atoms: C14_19  and  C15_20 
ROOT
HETATM    1  C7  UNL     1      23.366   3.700  51.646  1.00  0.00     0.171 C 
ENDROOT
BRANCH   1   2
HETATM    2  C6  UNL     1      22.423   2.633  51.091  1.00  0.00     0.056 C 
BRANCH   2   3
HETATM    3  C5  UNL     1      21.450   2.265  52.164  1.00  0.00     0.274 C 
BRANCH   3   4
HETATM    4  N1  UNL     1      21.150   0.883  52.246  1.00  0.00     0.088 N 
HETATM    5  C4  UNL     1      22.222  -0.036  52.150  1.00  0.00     0.273 C 
HETATM    6  C3  UNL     1      21.911  -1.247  53.008  1.00  0.00     0.037 C 
HETATM    7  C2  UNL     1      21.699  -0.941  54.451  1.00  0.00     0.012 C 
HETATM    8  C17 UNL     1      20.990   0.383  54.585  1.00  0.00     0.037 C 
HETATM    9  C16 UNL     1      20.225   0.646  53.326  1.00  0.00     0.273 C 
BRANCH   7  10
HETATM   10  C1  UNL     1      22.973  -0.977  55.277  1.00  0.00     0.168 C 
BRANCH  10  11
HETATM   11  O1  UNL     1      23.021  -2.160  55.973  1.00  0.00    -0.400 OA
HETATM   12  H1  UNL     1      22.286  -2.161  56.626  1.00  0.00     0.209 HD
ENDBRANCH  10  11
ENDBRANCH   7  10
ENDBRANCH   3   4
ENDBRANCH   2   3
ENDBRANCH   1   2
BRANCH   1  13
HETATM   13  O2  UNL     1      24.704   3.248  51.322  1.00  0.00    -0.371 OA
BRANCH  13  14
HETATM   14  C8  UNL     1      25.011   2.031  51.818  1.00  0.00     0.131 A 
HETATM   15  C9  UNL     1      25.700   1.178  52.007  1.00  0.00    -0.025 A 
HETATM   16  C15 UNL     1      26.500   2.086  51.285  1.00  0.00     0.097 A 
BRANCH  15  17
HETATM   17  C10 UNL     1      26.350   0.400  52.171  1.00  0.00    -0.023 A 
HETATM   18  C11 UNL     1      27.074  -0.443  52.370  1.00  0.00     0.071 A 
HETATM   19  C12 UNL     1      28.029  -1.051  53.059  1.00  0.00     0.110 A 
HETATM   20  C14 UNL     1      26.979   0.840  53.335  1.00  0.00     0.108 A 
HETATM   21  N2  UNL     1      28.803  -0.903  54.158  1.00  0.00    -0.257 NA
HETATM   22  C13 UNL     1      28.656   0.200  54.903  1.00  0.00     0.227 A 
HETATM   23  N3  UNL     1      27.758   1.121  54.551  1.00  0.00    -0.265 NA
ENDBRANCH  15  17
ENDBRANCH  13  14
ENDBRANCH   1  13
TORSDOF 9
ENDMDL
MODEL 2
REMARK VINA RESULT:      -6.9      4.117      5.710
REMARK  9 active torsions:
REMARK  status: ('A' for Active; 'I' for Inactive)
REMARK    1  A    between atoms: O1_1  and  C1_2 
REMARK    2  A    between atoms: C1_2  and  C2_3 
REMARK    3  A    between atoms: N1_6  and  C5_7 
REMARK    4  A    between atoms: C5_7  and  C6_8 
REMARK    5  A    between atoms: C6_8  and  C7_9 
REMARK    6  A    between atoms: C7_9  and  O2_10 
REMARK    7  A    between atoms: O2_10  and  C8_11 
REMARK    8  A    between atoms: C9_12  and  C10_13 
REMARK    9  A    between atoms: C14_19  and  C15_20 
ROOT
HETATM    1  C7  UNL     1      23.304   3.683  50.965  1.00  0.00     0.171 C 
ENDROOT
BRANCH   1   2
HETATM    2  C6  UNL     1      23.233   2.902  52.276  1.00  0.00     0.056 C 
BRANCH   2   3
HETATM    3  C5  UNL     1      23.900   1.580  52.071  1.00  0.00     0.274 C 
BRANCH   3   4
HETATM    4  N1  UNL     1      24.651   1.115  53.177  1.00  0.00     0.088 N 
HETATM    5  C4  UNL     1      24.424  -0.208  53.625  1.00  0.00     0.273 C 
HETATM    6  C3  UNL     1      25.723  -0.775  54.165  1.00  0.00     0.037 C 
HETATM    7  C2  UNL     1      26.838  -0.811  53.176  1.00  0.00     0.012 C 
HETATM    8  C17 UNL     1      26.761   0.405  52.288  1.00  0.00     0.037 C 
HETATM    9  C16 UNL     1      26.035   1.489  53.022  1.00  0.00     0.273 C 
BRANCH   7  10
HETATM   10  C1  UNL     1      26.891  -2.092  52.363  1.00  0.00     0.168 C 
BRANCH  10  11
HETATM   11  O1  UNL     1      27.799  -2.949  52.936  1.00  0.00    -0.400 OA
HETATM   12  H1  UNL     1      28.444  -2.413  53.449  1.00  0.00     0.209 HD
ENDBRANCH  10  11
ENDBRANCH   7  10
ENDBRANCH   3   4
ENDBRANCH   2   3
ENDBRANCH   1   2
BRANCH   1  13
HETATM   13  O2  UNL     1      24.420   3.120  50.232  1.00  0.00    -0.371 OA
BRANCH  13  14
HETATM   14  C8  UNL     1      25.231   4.040  49.669  1.00  0.00     0.131 A 
HETATM   15  C9  UNL     1      26.205   4.393  49.263  1.00  0.00    -0.025 A 
HETATM   16  C15 UNL     1      26.481   3.070  49.661  1.00  0.00     0.097 A 
BRANCH  15  17
HETATM   17  C10 UNL     1      27.112   4.700  48.892  1.00  0.00    -0.023 A 
HETATM   18  C11 UNL     1      28.103   5.060  48.486  1.00  0.00     0.071 A 
HETATM   19  C12 UNL     1      28.969   5.996  48.126  1.00  0.00     0.110 A 
HETATM   20  C14 UNL     1      26.951   6.084  48.946  1.00  0.00     0.108 A 
HETATM   21  N2  UNL     1      29.113   7.339  48.056  1.00  0.00    -0.257 NA
HETATM   22  C13 UNL     1      28.099   8.115  48.461  1.00  0.00     0.227 A 
HETATM   23  N3  UNL     1      26.980   7.555  48.921  1.00  0.00    -0.265 NA
ENDBRANCH  15  17
ENDBRANCH  13  14
ENDBRANCH   1  13
TORSDOF 9
ENDMDL
MODEL 3
REMARK VINA RESULT:      -6.9      1.992      4.548
REMARK  9 active torsions:
REMARK  status: ('A' for Active; 'I' for Inactive)
REMARK    1  A    between atoms: O1_1  and  C1_2 
REMARK    2  A    between atoms: C1_2  and  C2_3 
REMARK    3  A    between atoms: N1_6  and  C5_7 
REMARK    4  A    between atoms: C5_7  and  C6_8 
REMARK    5  A    between atoms: C6_8  and  C7_9 
REMARK    6  A    between atoms: C7_9  and  O2_10 
REMARK    7  A    between atoms: O2_10  and  C8_11 
REMARK    8  A    between atoms: C9_12  and  C10_13 
REMARK    9  A    between atoms: C14_19  and  C15_20 
ROOT
HETATM    1  C7  UNL     1      22.291   0.251  52.410  1.00  0.00     0.171 C 
ENDROOT
BRANCH   1   2
HETATM    2  C6  UNL     1      22.695   1.714  52.584  1.00  0.00     0.056 C 
BRANCH   2   3
HETATM    3  C5  UNL     1      21.910   2.536  51.614  1.00  0.00     0.274 C 
BRANCH   3   4
HETATM    4  N1  UNL     1      22.557   3.716  51.174  1.00  0.00     0.088 N 
HETATM    5  C4  UNL     1      23.779   4.074  51.791  1.00  0.00     0.273 C 
HETATM    6  C3  UNL     1      24.662   4.765  50.771  1.00  0.00     0.037 C 
HETATM    7  C2  UNL     1      24.980   3.941  49.571  1.00  0.00     0.012 C 
HETATM    8  C17 UNL     1      23.781   3.101  49.207  1.00  0.00     0.037 C 
HETATM    9  C16 UNL     1      22.550   3.770  49.733  1.00  0.00     0.273 C 
BRANCH   7  10
HETATM   10  C1  UNL     1      26.229   3.091  49.727  1.00  0.00     0.168 C 
BRANCH  10  11
HETATM   11  O1  UNL     1      27.072   3.696  50.627  1.00  0.00    -0.400 OA
HETATM   12  H1  UNL     1      27.955   3.788  50.206  1.00  0.00     0.209 HD
ENDBRANCH  10  11
ENDBRANCH   7  10
ENDBRANCH   3   4
ENDBRANCH   2   3
ENDBRANCH   1   2
BRANCH   1  13
HETATM   13  O2  UNL     1      23.108  -0.495  53.345  1.00  0.00    -0.371 OA
BRANCH  13  14
HETATM   14  C8  UNL     1      24.398  -0.101  53.387  1.00  0.00     0.131 A 
HETATM   15  C9  UNL     1      25.414  -0.065  53.841  1.00  0.00    -0.025 A 
HETATM   16  C15 UNL     1      24.689  -0.881  54.733  1.00  0.00     0.097 A 
BRANCH  15  17
HETATM   17  C10 UNL     1      26.344  -0.045  54.275  1.00  0.00    -0.023 A 
HETATM   18  C11 UNL     1      27.372  -0.002  54.741  1.00  0.00     0.071 A 
HETATM   19  C12 UNL     1      28.567   0.538  54.935  1.00  0.00     0.110 A 
HETATM   20  C14 UNL     1      26.861   1.118  53.705  1.00  0.00     0.108 A 
HETATM   21  N2  UNL     1      29.329   1.590  54.559  1.00  0.00    -0.257 NA
HETATM   22  C13 UNL     1      28.821   2.474  53.691  1.00  0.00     0.227 A 
HETATM   23  N3  UNL     1      27.586   2.302  53.218  1.00  0.00    -0.265 NA
ENDBRANCH  15  17
ENDBRANCH  13  14
ENDBRANCH   1  13
TORSDOF 9
ENDMDL
MODEL 4
REMARK VINA RESULT:      -6.8      2.981      5.248
REMARK  9 active torsions:
REMARK  status: ('A' for Active; 'I' for Inactive)
REMARK    1  A    between atoms: O1_1  and  C1_2 
REMARK    2  A    between atoms: C1_2  and  C2_3 
REMARK    3  A    between atoms: N1_6  and  C5_7 
REMARK    4  A    between atoms: C5_7  and  C6_8 
REMARK    5  A    between atoms: C6_8  and  C7_9 
REMARK    6  A    between atoms: C7_9  and  O2_10 
REMARK    7  A    between atoms: O2_10  and  C8_11 
REMARK    8  A    between atoms: C9_12  and  C10_13 
REMARK    9  A    between atoms: C14_19  and  C15_20 
ROOT
HETATM    1  C7  UNL     1      22.958   3.145  51.693  1.00  0.00     0.171 C 
ENDROOT
BRANCH   1   2
HETATM    2  C6  UNL     1      22.956   4.576  52.226  1.00  0.00     0.056 C 
BRANCH   2   3
HETATM    3  C5  UNL     1      22.369   5.466  51.179  1.00  0.00     0.274 C 
BRANCH   3   4
HETATM    4  N1  UNL     1      23.289   6.352  50.568  1.00  0.00     0.088 N 
HETATM    5  C4  UNL     1      24.581   6.465  51.135  1.00  0.00     0.273 C 
HETATM    6  C3  UNL     1      25.582   6.735  50.030  1.00  0.00     0.037 C 
HETATM    7  C2  UNL     1      25.635   5.682  48.975  1.00  0.00     0.012 C 
HETATM    8  C17 UNL     1      24.247   5.143  48.733  1.00  0.00     0.037 C 
HETATM    9  C16 UNL     1      23.252   6.186  49.136  1.00  0.00     0.273 C 
BRANCH   7  10
HETATM   10  C1  UNL     1      26.621   4.568  49.274  1.00  0.00     0.168 C 
BRANCH  10  11
HETATM   11  O1  UNL     1      27.888   5.095  49.332  1.00  0.00    -0.400 OA
HETATM   12  H1  UNL     1      28.312   4.784  50.163  1.00  0.00     0.209 HD
ENDBRANCH  10  11
ENDBRANCH   7  10
ENDBRANCH   3   4
ENDBRANCH   2   3
ENDBRANCH   1   2
BRANCH   1  13
HETATM   13  O2  UNL     1      24.346   2.828  51.425  1.00  0.00    -0.371 OA
BRANCH  13  14
HETATM   14  C8  UNL     1      24.744   1.635  51.914  1.00  0.00     0.131 A 
HETATM   15  C9  UNL     1      25.499   0.840  52.107  1.00  0.00    -0.025 A 
HETATM   16  C15 UNL     1      26.234   1.821  51.412  1.00  0.00     0.097 A 
BRANCH  15  17
HETATM   17  C10 UNL     1      26.209   0.118  52.276  1.00  0.00    -0.023 A 
HETATM   18  C11 UNL     1      26.999  -0.663  52.479  1.00  0.00     0.071 A 
HETATM   19  C12 UNL     1      28.028  -1.166  53.145  1.00  0.00     0.110 A 
HETATM   20  C14 UNL     1      26.866   0.664  53.378  1.00  0.00     0.108 A 
HETATM   21  N2  UNL     1      28.846  -0.905  54.190  1.00  0.00    -0.257 NA
HETATM   22  C13 UNL     1      28.662   0.227  54.883  1.00  0.00     0.227 A 
HETATM   23  N3  UNL     1      27.685   1.064  54.532  1.00  0.00    -0.265 NA
ENDBRANCH  15  17
ENDBRANCH  13  14
ENDBRANCH   1  13
TORSDOF 9
ENDMDL
MODEL 5
REMARK VINA RESULT:      -6.7      3.466      5.721
REMARK  9 active torsions:
REMARK  status: ('A' for Active; 'I' for Inactive)
REMARK    1  A    between atoms: O1_1  and  C1_2 
REMARK    2  A    between atoms: C1_2  and  C2_3 
REMARK    3  A    between atoms: N1_6  and  C5_7 
REMARK    4  A    between atoms: C5_7  and  C6_8 
REMARK    5  A    between atoms: C6_8  and  C7_9 
REMARK    6  A    between atoms: C7_9  and  O2_10 
REMARK    7  A    between atoms: O2_10  and  C8_11 
REMARK    8  A    between atoms: C9_12  and  C10_13 
REMARK    9  A    between atoms: C14_19  and  C15_20 
ROOT
HETATM    1  C7  UNL     1      22.765   1.599  51.781  1.00  0.00     0.171 C 
ENDROOT
BRANCH   1   2
HETATM    2  C6  UNL     1      24.066   1.517  52.577  1.00  0.00     0.056 C 
BRANCH   2   3
HETATM    3  C5  UNL     1      24.058   0.243  53.358  1.00  0.00     0.274 C 
BRANCH   3   4
HETATM    4  N1  UNL     1      25.272  -0.485  53.321  1.00  0.00     0.088 N 
HETATM    5  C4  UNL     1      26.205  -0.170  52.304  1.00  0.00     0.273 C 
HETATM    6  C3  UNL     1      27.608  -0.380  52.840  1.00  0.00     0.037 C 
HETATM    7  C2  UNL     1      27.941   0.443  54.037  1.00  0.00     0.012 C 
HETATM    8  C17 UNL     1      26.720   0.570  54.915  1.00  0.00     0.037 C 
HETATM    9  C16 UNL     1      25.818  -0.595  54.651  1.00  0.00     0.273 C 
BRANCH   7  10
HETATM   10  C1  UNL     1      28.527   1.802  53.700  1.00  0.00     0.168 C 
BRANCH  10  11
HETATM   11  O1  UNL     1      27.656   2.780  54.112  1.00  0.00    -0.400 OA
HETATM   12  H1  UNL     1      28.170   3.605  54.261  1.00  0.00     0.209 HD
ENDBRANCH  10  11
ENDBRANCH   7  10
ENDBRANCH   3   4
ENDBRANCH   2   3
ENDBRANCH   1   2
BRANCH   1  13
HETATM   13  O2  UNL     1      23.138   2.085  50.468  1.00  0.00    -0.371 OA
BRANCH  13  14
HETATM   14  C8  UNL     1      24.292   2.784  50.446  1.00  0.00     0.131 A 
HETATM   15  C9  UNL     1      25.036   3.464  49.973  1.00  0.00    -0.025 A 
HETATM   16  C15 UNL     1      24.031   3.351  48.992  1.00  0.00     0.097 A 
BRANCH  15  17
HETATM   17  C10 UNL     1      25.710   4.092  49.519  1.00  0.00    -0.023 A 
HETATM   18  C11 UNL     1      26.441   4.801  49.032  1.00  0.00     0.071 A 
HETATM   19  C12 UNL     1      26.970   5.996  48.812  1.00  0.00     0.110 A 
HETATM   20  C14 UNL     1      25.334   5.311  50.081  1.00  0.00     0.108 A 
HETATM   21  N2  UNL     1      26.847   7.294  49.173  1.00  0.00    -0.257 NA
HETATM   22  C13 UNL     1      25.895   7.628  50.054  1.00  0.00     0.227 A 
HETATM   23  N3  UNL     1      25.097   6.684  50.554  1.00  0.00    -0.265 NA
ENDBRANCH  15  17
ENDBRANCH  13  14
ENDBRANCH   1  13
TORSDOF 9
ENDMDL
MODEL 6
REMARK VINA RESULT:      -6.6      1.681      2.260
REMARK  9 active torsions:
REMARK  status: ('A' for Active; 'I' for Inactive)
REMARK    1  A    between atoms: O1_1  and  C1_2 
REMARK    2  A    between atoms: C1_2  and  C2_3 
REMARK    3  A    between atoms: N1_6  and  C5_7 
REMARK    4  A    between atoms: C5_7  and  C6_8 
REMARK    5  A    between atoms: C6_8  and  C7_9 
REMARK    6  A    between atoms: C7_9  and  O2_10 
REMARK    7  A    between atoms: O2_10  and  C8_11 
REMARK    8  A    between atoms: C9_12  and  C10_13 
REMARK    9  A    between atoms: C14_19  and  C15_20 
ROOT
HETATM    1  C7  UNL     1      23.107   4.003  52.245  1.00  0.00     0.171 C 
ENDROOT
BRANCH   1   2
HETATM    2  C6  UNL     1      22.046   3.278  51.419  1.00  0.00     0.056 C 
BRANCH   2   3
HETATM    3  C5  UNL     1      21.031   2.708  52.356  1.00  0.00     0.274 C 
BRANCH   3   4
HETATM    4  N1  UNL     1      21.150   1.316  52.586  1.00  0.00     0.088 N 
HETATM    5  C4  UNL     1      20.565   0.784  53.760  1.00  0.00     0.273 C 
HETATM    6  C3  UNL     1      20.080  -0.624  53.475  1.00  0.00     0.037 C 
HETATM    7  C2  UNL     1      19.074  -0.719  52.379  1.00  0.00     0.012 C 
HETATM    8  C17 UNL     1      19.406   0.286  51.304  1.00  0.00     0.037 C 
HETATM    9  C16 UNL     1      20.869   0.593  51.371  1.00  0.00     0.273 C 
BRANCH   7  10
HETATM   10  C1  UNL     1      17.639  -0.574  52.853  1.00  0.00     0.168 C 
BRANCH  10  11
HETATM   11  O1  UNL     1      17.478  -1.287  54.016  1.00  0.00    -0.400 OA
HETATM   12  H1  UNL     1      16.992  -0.723  54.657  1.00  0.00     0.209 HD
ENDBRANCH  10  11
ENDBRANCH   7  10
ENDBRANCH   3   4
ENDBRANCH   2   3
ENDBRANCH   1   2
BRANCH   1  13
HETATM   13  O2  UNL     1      24.383   3.527  51.749  1.00  0.00    -0.371 OA
BRANCH  13  14
HETATM   14  C8  UNL     1      24.668   2.254  52.092  1.00  0.00     0.131 A 
HETATM   15  C9  UNL     1      25.342   1.372  52.175  1.00  0.00    -0.025 A 
HETATM   16  C15 UNL     1      26.159   2.349  51.572  1.00  0.00     0.097 A 
BRANCH  15  17
HETATM   17  C10 UNL     1      25.979   0.570  52.242  1.00  0.00    -0.023 A 
HETATM   18  C11 UNL     1      26.690  -0.303  52.336  1.00  0.00     0.071 A 
HETATM   19  C12 UNL     1      27.663  -0.985  52.924  1.00  0.00     0.110 A 
HETATM   20  C14 UNL     1      26.678   0.901  53.403  1.00  0.00     0.108 A 
HETATM   21  N2  UNL     1      28.495  -0.943  53.989  1.00  0.00    -0.257 NA
HETATM   22  C13 UNL     1      28.414   0.100  54.826  1.00  0.00     0.227 A 
HETATM   23  N3  UNL     1      27.525   1.066  54.595  1.00  0.00    -0.265 NA
ENDBRANCH  15  17
ENDBRANCH  13  14
ENDBRANCH   1  13
TORSDOF 9
ENDMDL
MODEL 7
REMARK VINA RESULT:      -6.6      2.323      5.248
REMARK  9 active torsions:
REMARK  status: ('A' for Active; 'I' for Inactive)
REMARK    1  A    between atoms: O1_1  and  C1_2 
REMARK    2  A    between atoms: C1_2  and  C2_3 
REMARK    3  A    between atoms: N1_6  and  C5_7 
REMARK    4  A    between atoms: C5_7  and  C6_8 
REMARK    5  A    between atoms: C6_8  and  C7_9 
REMARK    6  A    between atoms: C7_9  and  O2_10 
REMARK    7  A    between atoms: O2_10  and  C8_11 
REMARK    8  A    between atoms: C9_12  and  C10_13 
REMARK    9  A    between atoms: C14_19  and  C15_20 
ROOT
HETATM    1  C7  UNL     1      24.479   3.003  49.959  1.00  0.00     0.171 C 
ENDROOT
BRANCH   1   2
HETATM    2  C6  UNL     1      25.315   3.383  51.180  1.00  0.00     0.056 C 
BRANCH   2   3
HETATM    3  C5  UNL     1      26.455   2.423  51.286  1.00  0.00     0.274 C 
BRANCH   3   4
HETATM    4  N1  UNL     1      26.287   1.405  52.255  1.00  0.00     0.088 N 
HETATM    5  C4  UNL     1      26.792   0.116  51.959  1.00  0.00     0.273 C 
HETATM    6  C3  UNL     1      27.255  -0.539  53.246  1.00  0.00     0.037 C 
HETATM    7  C2  UNL     1      28.318   0.213  53.972  1.00  0.00     0.012 C 
HETATM    8  C17 UNL     1      28.073   1.694  53.829  1.00  0.00     0.037 C 
HETATM    9  C16 UNL     1      26.616   1.915  53.563  1.00  0.00     0.273 C 
BRANCH   7  10
HETATM   10  C1  UNL     1      29.727  -0.162  53.550  1.00  0.00     0.168 C 
BRANCH  10  11
HETATM   11  O1  UNL     1      29.842  -1.530  53.540  1.00  0.00    -0.400 OA
HETATM   12  H1  UNL     1      29.164  -1.890  52.927  1.00  0.00     0.209 HD
ENDBRANCH  10  11
ENDBRANCH   7  10
ENDBRANCH   3   4
ENDBRANCH   2   3
ENDBRANCH   1   2
BRANCH   1  13
HETATM   13  O2  UNL     1      23.142   2.754  50.460  1.00  0.00    -0.371 OA
BRANCH  13  14
HETATM   14  C8  UNL     1      23.036   1.644  51.220  1.00  0.00     0.131 A 
HETATM   15  C9  UNL     1      22.506   0.972  51.931  1.00  0.00    -0.025 A 
HETATM   16  C15 UNL     1      21.597   2.034  51.752  1.00  0.00     0.097 A 
BRANCH  15  17
HETATM   17  C10 UNL     1      22.001   0.365  52.588  1.00  0.00    -0.023 A 
HETATM   18  C11 UNL     1      21.466  -0.307  53.321  1.00  0.00     0.071 A 
HETATM   19  C12 UNL     1      21.410  -1.112  54.373  1.00  0.00     0.110 A 
HETATM   20  C14 UNL     1      23.046  -0.027  53.423  1.00  0.00     0.108 A 
HETATM   21  N2  UNL     1      22.190  -1.659  55.333  1.00  0.00    -0.257 NA
HETATM   22  C13 UNL     1      23.498  -1.370  55.339  1.00  0.00     0.227 A 
HETATM   23  N3  UNL     1      24.000  -0.556  54.410  1.00  0.00    -0.265 NA
ENDBRANCH  15  17
ENDBRANCH  13  14
ENDBRANCH   1  13
TORSDOF 9
ENDMDL
MODEL 8
REMARK VINA RESULT:      -6.4      2.822      5.530
REMARK  9 active torsions:
REMARK  status: ('A' for Active; 'I' for Inactive)
REMARK    1  A    between atoms: O1_1  and  C1_2 
REMARK    2  A    between atoms: C1_2  and  C2_3 
REMARK    3  A    between atoms: N1_6  and  C5_7 
REMARK    4  A    between atoms: C5_7  and  C6_8 
REMARK    5  A    between atoms: C6_8  and  C7_9 
REMARK    6  A    between atoms: C7_9  and  O2_10 
REMARK    7  A    between atoms: O2_10  and  C8_11 
REMARK    8  A    between atoms: C9_12  and  C10_13 
REMARK    9  A    between atoms: C14_19  and  C15_20 
ROOT
HETATM    1  C7  UNL     1      22.438   3.113  51.928  1.00  0.00     0.171 C 
ENDROOT
BRANCH   1   2
HETATM    2  C6  UNL     1      22.418   3.336  50.417  1.00  0.00     0.056 C 
BRANCH   2   3
HETATM    3  C5  UNL     1      22.574   4.799  50.156  1.00  0.00     0.274 C 
BRANCH   3   4
HETATM    4  N1  UNL     1      23.336   5.120  49.007  1.00  0.00     0.088 N 
HETATM    5  C4  UNL     1      23.396   6.477  48.607  1.00  0.00     0.273 C 
HETATM    6  C3  UNL     1      24.751   6.747  47.984  1.00  0.00     0.037 C 
HETATM    7  C2  UNL     1      25.908   6.485  48.887  1.00  0.00     0.012 C 
HETATM    8  C17 UNL     1      25.609   5.285  49.751  1.00  0.00     0.037 C 
HETATM    9  C16 UNL     1      24.601   4.430  49.050  1.00  0.00     0.273 C 
BRANCH   7  10
HETATM   10  C1  UNL     1      26.315   7.686  49.722  1.00  0.00     0.168 C 
BRANCH  10  11
HETATM   11  O1  UNL     1      26.090   7.405  51.048  1.00  0.00    -0.400 OA
HETATM   12  H1  UNL     1      25.218   7.784  51.297  1.00  0.00     0.209 HD
ENDBRANCH  10  11
ENDBRANCH   7  10
ENDBRANCH   3   4
ENDBRANCH   2   3
ENDBRANCH   1   2
BRANCH   1  13
HETATM   13  O2  UNL     1      23.837   3.108  52.306  1.00  0.00    -0.371 OA
BRANCH  13  14
HETATM   14  C8  UNL     1      24.329   1.883  52.583  1.00  0.00     0.131 A 
HETATM   15  C9  UNL     1      25.115   1.095  52.552  1.00  0.00    -0.025 A 
HETATM   16  C15 UNL     1      25.704   2.167  51.853  1.00  0.00     0.097 A 
BRANCH  15  17
HETATM   17  C10 UNL     1      25.852   0.382  52.513  1.00  0.00    -0.023 A 
HETATM   18  C11 UNL     1      26.673  -0.394  52.489  1.00  0.00     0.071 A 
HETATM   19  C12 UNL     1      27.765  -0.982  52.956  1.00  0.00     0.110 A 
HETATM   20  C14 UNL     1      26.587   0.717  53.649  1.00  0.00     0.108 A 
HETATM   21  N2  UNL     1      28.662  -0.907  53.966  1.00  0.00    -0.257 NA
HETATM   22  C13 UNL     1      28.511   0.052  54.888  1.00  0.00     0.227 A 
HETATM   23  N3  UNL     1      27.492   0.905  54.794  1.00  0.00    -0.265 NA
ENDBRANCH  15  17
ENDBRANCH  13  14
ENDBRANCH   1  13
TORSDOF 9
ENDMDL
MODEL 9
REMARK VINA RESULT:      -6.4      2.231      3.174
REMARK  9 active torsions:
REMARK  status: ('A' for Active; 'I' for Inactive)
REMARK    1  A    between atoms: O1_1  and  C1_2 
REMARK    2  A    between atoms: C1_2  and  C2_3 
REMARK    3  A    between atoms: N1_6  and  C5_7 
REMARK    4  A    between atoms: C5_7  and  C6_8 
REMARK    5  A    between atoms: C6_8  and  C7_9 
REMARK    6  A    between atoms: C7_9  and  O2_10 
REMARK    7  A    between atoms: O2_10  and  C8_11 
REMARK    8  A    between atoms: C9_12  and  C10_13 
REMARK    9  A    between atoms: C14_19  and  C15_20 
ROOT
HETATM    1  C7  UNL     1      24.550   3.455  51.576  1.00  0.00     0.171 C 
ENDROOT
BRANCH   1   2
HETATM    2  C6  UNL     1      23.073   3.348  51.201  1.00  0.00     0.056 C 
BRANCH   2   3
HETATM    3  C5  UNL     1      22.960   2.489  49.983  1.00  0.00     0.274 C 
BRANCH   3   4
HETATM    4  N1  UNL     1      22.213   1.299  50.161  1.00  0.00     0.088 N 
HETATM    5  C4  UNL     1      21.810   0.957  51.474  1.00  0.00     0.273 C 
HETATM    6  C3  UNL     1      20.475   0.242  51.410  1.00  0.00     0.037 C 
HETATM    7  C2  UNL     1      19.379   1.038  50.787  1.00  0.00     0.012 C 
HETATM    8  C17 UNL     1      19.939   1.868  49.659  1.00  0.00     0.037 C 
HETATM    9  C16 UNL     1      21.185   1.210  49.154  1.00  0.00     0.273 C 
BRANCH   7  10
HETATM   10  C1  UNL     1      18.607   1.892  51.777  1.00  0.00     0.168 C 
BRANCH  10  11
HETATM   11  O1  UNL     1      19.300   3.057  51.997  1.00  0.00    -0.400 OA
HETATM   12  H1  UNL     1      20.246   2.895  51.787  1.00  0.00     0.209 HD
ENDBRANCH  10  11
ENDBRANCH   7  10
ENDBRANCH   3   4
ENDBRANCH   2   3
ENDBRANCH   1   2
BRANCH   1  13
HETATM   13  O2  UNL     1      24.767   2.456  52.604  1.00  0.00    -0.371 OA
BRANCH  13  14
HETATM   14  C8  UNL     1      25.569   1.440  52.224  1.00  0.00     0.131 A 
HETATM   15  C9  UNL     1      25.971   0.405  52.305  1.00  0.00    -0.025 A 
HETATM   16  C15 UNL     1      25.026   0.468  53.348  1.00  0.00     0.097 A 
BRANCH  15  17
HETATM   17  C10 UNL     1      26.329  -0.553  52.397  1.00  0.00    -0.023 A 
HETATM   18  C11 UNL     1      26.744  -1.597  52.505  1.00  0.00     0.071 A 
HETATM   19  C12 UNL     1      27.685  -2.475  52.823  1.00  0.00     0.110 A 
HETATM   20  C14 UNL     1      27.605  -0.297  52.898  1.00  0.00     0.108 A 
HETATM   21  N2  UNL     1      28.948  -2.550  53.302  1.00  0.00    -0.257 NA
HETATM   22  C13 UNL     1      29.589  -1.413  53.603  1.00  0.00     0.227 A 
HETATM   23  N3  UNL     1      28.977  -0.243  53.426  1.00  0.00    -0.265 NA
ENDBRANCH  15  17
ENDBRANCH  13  14
ENDBRANCH   1  13
TORSDOF 9
ENDMDL
