MODEL 1
REMARK VINA RESULT:      -8.3      0.000      0.000
REMARK  5 active torsions:
REMARK  status: ('A' for Active; 'I' for Inactive)
REMARK    1  A    between atoms: C2_2  and  C3_3 
REMARK       I    between atoms: C3_3  and  N1_5 
REMARK    2  A    between atoms: C10_15  and  C11_16 
REMARK    3  A    between atoms: C11_16  and  C12_17 
REMARK    4  A    between atoms: C11_16  and  C13_19 
REMARK    5  A    between atoms: C12_17  and  N4_18 
ROOT
HETATM    1  C3  UNL     1      28.580   0.969  53.605  1.00  0.00     0.242 C 
HETATM    2  O1  UNL     1      28.996   2.154  53.636  1.00  0.00    -0.268 OA
HETATM    3  N1  UNL     1      27.265   0.893  53.084  1.00  0.00    -0.344 N 
HETATM    4  C4  UNL     1      26.638   2.147  52.688  1.00  0.00     0.131 C 
HETATM    5  C5  UNL     1      25.579   1.872  51.594  1.00  0.00     0.060 C 
HETATM    6  C6  UNL     1      24.420   1.303  52.302  1.00  0.00    -0.027 A 
HETATM    7  C7  UNL     1      24.959   0.165  52.932  1.00  0.00     0.010 A 
HETATM    8  S1  UNL     1      23.576  -0.566  53.782  1.00  0.00    -0.072 SA
HETATM    9  C8  UNL     1      22.402   0.636  53.274  1.00  0.00     0.112 A 
HETATM   10  N2  UNL     1      21.096   0.685  53.577  1.00  0.00    -0.234 NA
HETATM   11  C9  UNL     1      20.347   1.688  53.092  1.00  0.00     0.234 A 
HETATM   12  N3  UNL     1      21.014   2.533  52.351  1.00  0.00    -0.245 NA
HETATM   13  C10 UNL     1      22.311   2.572  51.993  1.00  0.00     0.059 A 
HETATM   14  C19 UNL     1      23.096   1.519  52.499  1.00  0.00     0.033 A 
HETATM   15  C20 UNL     1      26.396  -0.277  52.873  1.00  0.00     0.172 C 
ENDROOT
BRANCH  13  16
HETATM   16  C11 UNL     1      22.804   3.685  51.148  1.00  0.00     0.099 C 
BRANCH  16  17
HETATM   17  C12 UNL     1      22.812   5.044  51.760  1.00  0.00     0.282 C 
BRANCH  17  18
HETATM   18  N4  UNL     1      23.706   5.080  52.949  1.00  0.00     0.079 N 
HETATM   19  H12 UNL     1      23.634   6.082  53.273  1.00  0.00     0.312 HD
HETATM   20  H13 UNL     1      23.284   4.412  53.628  1.00  0.00     0.312 HD
ENDBRANCH  17  18
ENDBRANCH  16  17
BRANCH  16  21
HETATM   21  C13 UNL     1      22.596   3.556  49.708  1.00  0.00    -0.046 A 
HETATM   22  C14 UNL     1      22.468   2.488  48.814  1.00  0.00     0.008 A 
HETATM   23  C15 UNL     1      22.282   2.666  47.466  1.00  0.00     0.001 A 
HETATM   24  C16 UNL     1      22.210   3.928  46.920  1.00  0.00     0.000 A 
HETATM   25  C17 UNL     1      22.329   5.009  47.766  1.00  0.00     0.001 A 
HETATM   26  C18 UNL     1      22.519   4.834  49.129  1.00  0.00     0.008 A 
ENDBRANCH  16  21
ENDBRANCH  13  16
BRANCH   1  27
HETATM   27  C2  UNL     1      29.389  -0.140  54.058  1.00  0.00     0.064 C 
HETATM   28  C1  UNL     1      29.791  -1.225  53.421  1.00  0.00     0.017 C 
ENDBRANCH   1  27
TORSDOF 5
ENDMDL
MODEL 2
REMARK VINA RESULT:      -7.9      2.874      5.558
REMARK  5 active torsions:
REMARK  status: ('A' for Active; 'I' for Inactive)
REMARK    1  A    between atoms: C2_2  and  C3_3 
REMARK       I    between atoms: C3_3  and  N1_5 
REMARK    2  A    between atoms: C10_15  and  C11_16 
REMARK    3  A    between atoms: C11_16  and  C12_17 
REMARK    4  A    between atoms: C11_16  and  C13_19 
REMARK    5  A    between atoms: C12_17  and  N4_18 
ROOT
HETATM    1  C3  UNL     1      18.309  -0.503  52.437  1.00  0.00     0.242 C 
HETATM    2  O1  UNL     1      17.879  -0.125  51.319  1.00  0.00    -0.268 OA
HETATM    3  N1  UNL     1      19.559   0.092  52.740  1.00  0.00    -0.344 N 
HETATM    4  C4  UNL     1      20.115   1.004  51.749  1.00  0.00     0.131 C 
HETATM    5  C5  UNL     1      21.050   2.020  52.449  1.00  0.00     0.060 C 
HETATM    6  C6  UNL     1      22.291   1.280  52.736  1.00  0.00    -0.027 A 
HETATM    7  C7  UNL     1      21.845   0.209  53.533  1.00  0.00     0.010 A 
HETATM    8  S1  UNL     1      23.327  -0.697  53.922  1.00  0.00    -0.072 SA
HETATM    9  C8  UNL     1      24.416   0.357  53.037  1.00  0.00     0.112 A 
HETATM   10  N2  UNL     1      25.747   0.241  52.911  1.00  0.00    -0.234 NA
HETATM   11  C9  UNL     1      26.419   1.152  52.189  1.00  0.00     0.234 A 
HETATM   12  N3  UNL     1      25.658   2.081  51.671  1.00  0.00    -0.245 NA
HETATM   13  C10 UNL     1      24.329   2.281  51.737  1.00  0.00     0.059 A 
HETATM   14  C19 UNL     1      23.624   1.328  52.497  1.00  0.00     0.033 A 
HETATM   15  C20 UNL     1      20.419  -0.064  53.925  1.00  0.00     0.172 C 
ENDROOT
BRANCH  13  16
HETATM   16  C11 UNL     1      23.725   3.427  51.017  1.00  0.00     0.099 C 
BRANCH  16  17
HETATM   17  C12 UNL     1      23.183   4.538  51.850  1.00  0.00     0.282 C 
BRANCH  17  18
HETATM   18  N4  UNL     1      24.029   4.751  53.055  1.00  0.00     0.079 N 
HETATM   19  H12 UNL     1      24.489   5.682  52.865  1.00  0.00     0.312 HD
HETATM   20  H13 UNL     1      23.362   4.794  53.854  1.00  0.00     0.312 HD
ENDBRANCH  17  18
ENDBRANCH  16  17
BRANCH  16  21
HETATM   21  C13 UNL     1      23.099   3.134  49.730  1.00  0.00    -0.046 A 
HETATM   22  C14 UNL     1      22.584   1.990  49.113  1.00  0.00     0.008 A 
HETATM   23  C15 UNL     1      22.044   2.006  47.850  1.00  0.00     0.001 A 
HETATM   24  C16 UNL     1      21.984   3.171  47.119  1.00  0.00     0.000 A 
HETATM   25  C17 UNL     1      22.480   4.322  47.691  1.00  0.00     0.001 A 
HETATM   26  C18 UNL     1      23.026   4.311  48.966  1.00  0.00     0.008 A 
ENDBRANCH  16  21
ENDBRANCH  13  16
BRANCH   1  27
HETATM   27  C2  UNL     1      17.575  -1.430  53.268  1.00  0.00     0.064 C 
HETATM   28  C1  UNL     1      17.866  -2.664  53.639  1.00  0.00     0.017 C 
ENDBRANCH   1  27
TORSDOF 5
ENDMDL
MODEL 3
REMARK VINA RESULT:      -7.7      1.522      2.504
REMARK  5 active torsions:
REMARK  status: ('A' for Active; 'I' for Inactive)
REMARK    1  A    between atoms: C2_2  and  C3_3 
REMARK       I    between atoms: C3_3  and  N1_5 
REMARK    2  A    between atoms: C10_15  and  C11_16 
REMARK    3  A    between atoms: C11_16  and  C12_17 
REMARK    4  A    between atoms: C11_16  and  C13_19 
REMARK    5  A    between atoms: C12_17  and  N4_18 
ROOT
HETATM    1  C3  UNL     1      28.252   1.405  53.324  1.00  0.00     0.242 C 
HETATM    2  O1  UNL     1      28.707   2.539  53.034  1.00  0.00    -0.268 OA
HETATM    3  N1  UNL     1      26.961   1.207  52.772  1.00  0.00    -0.344 N 
HETATM    4  C4  UNL     1      26.401   2.303  51.993  1.00  0.00     0.131 C 
HETATM    5  C5  UNL     1      25.387   1.741  50.967  1.00  0.00     0.060 C 
HETATM    6  C6  UNL     1      24.175   1.427  51.742  1.00  0.00    -0.027 A 
HETATM    7  C7  UNL     1      24.641   0.512  52.705  1.00  0.00     0.010 A 
HETATM    8  S1  UNL     1      23.193   0.089  53.650  1.00  0.00    -0.072 SA
HETATM    9  C8  UNL     1      22.089   1.113  52.748  1.00  0.00     0.112 A 
HETATM   10  N2  UNL     1      20.772   1.274  52.948  1.00  0.00    -0.234 NA
HETATM   11  C9  UNL     1      20.085   2.107  52.150  1.00  0.00     0.234 A 
HETATM   12  N3  UNL     1      20.817   2.686  51.235  1.00  0.00    -0.245 NA
HETATM   13  C10 UNL     1      22.131   2.592  50.956  1.00  0.00     0.059 A 
HETATM   14  C19 UNL     1      22.852   1.717  51.791  1.00  0.00     0.033 A 
HETATM   15  C20 UNL     1      26.062   0.044  52.860  1.00  0.00     0.172 C 
ENDROOT
BRANCH  13  16
HETATM   16  C11 UNL     1      22.705   3.400  49.854  1.00  0.00     0.099 C 
BRANCH  16  17
HETATM   17  C12 UNL     1      23.068   2.675  48.604  1.00  0.00     0.282 C 
BRANCH  17  18
HETATM   18  N4  UNL     1      22.004   1.703  48.232  1.00  0.00     0.079 N 
HETATM   19  H12 UNL     1      22.286   0.828  48.751  1.00  0.00     0.312 HD
HETATM   20  H13 UNL     1      21.119   2.113  48.597  1.00  0.00     0.312 HD
ENDBRANCH  17  18
ENDBRANCH  16  17
BRANCH  16  21
HETATM   21  C13 UNL     1      23.474   4.580  50.240  1.00  0.00    -0.046 A 
HETATM   22  C14 UNL     1      23.465   5.462  51.325  1.00  0.00     0.008 A 
HETATM   23  C15 UNL     1      24.327   6.526  51.426  1.00  0.00     0.001 A 
HETATM   24  C16 UNL     1      25.259   6.779  50.445  1.00  0.00     0.000 A 
HETATM   25  C17 UNL     1      25.303   5.934  49.358  1.00  0.00     0.001 A 
HETATM   26  C18 UNL     1      24.434   4.858  49.251  1.00  0.00     0.008 A 
ENDBRANCH  16  21
ENDBRANCH  13  16
BRANCH   1  27
HETATM   27  C2  UNL     1      28.997   0.461  54.125  1.00  0.00     0.064 C 
HETATM   28  C1  UNL     1      29.642  -0.637  53.778  1.00  0.00     0.017 C 
ENDBRANCH   1  27
TORSDOF 5
ENDMDL
MODEL 4
REMARK VINA RESULT:      -7.4      3.266      6.043
REMARK  5 active torsions:
REMARK  status: ('A' for Active; 'I' for Inactive)
REMARK    1  A    between atoms: C2_2  and  C3_3 
REMARK       I    between atoms: C3_3  and  N1_5 
REMARK    2  A    between atoms: C10_15  and  C11_16 
REMARK    3  A    between atoms: C11_16  and  C12_17 
REMARK    4  A    between atoms: C11_16  and  C13_19 
REMARK    5  A    between atoms: C12_17  and  N4_18 
ROOT
HETATM    1  C3  UNL     1      18.407  -0.515  52.208  1.00  0.00     0.242 C 
HETATM    2  O1  UNL     1      17.987  -0.330  51.039  1.00  0.00    -0.268 OA
HETATM    3  N1  UNL     1      19.642   0.146  52.427  1.00  0.00    -0.344 N 
HETATM    4  C4  UNL     1      20.196   0.897  51.309  1.00  0.00     0.131 C 
HETATM    5  C5  UNL     1      21.102   2.031  51.847  1.00  0.00     0.060 C 
HETATM    6  C6  UNL     1      22.352   1.372  52.264  1.00  0.00    -0.027 A 
HETATM    7  C7  UNL     1      21.914   0.433  53.218  1.00  0.00     0.010 A 
HETATM    8  S1  UNL     1      23.406  -0.369  53.765  1.00  0.00    -0.072 SA
HETATM    9  C8  UNL     1      24.489   0.551  52.734  1.00  0.00     0.112 A 
HETATM   10  N2  UNL     1      25.823   0.444  52.644  1.00  0.00    -0.234 NA
HETATM   11  C9  UNL     1      26.489   1.239  51.793  1.00  0.00     0.234 A 
HETATM   12  N3  UNL     1      25.720   2.058  51.125  1.00  0.00    -0.245 NA
HETATM   13  C10 UNL     1      24.386   2.240  51.142  1.00  0.00     0.059 A 
HETATM   14  C19 UNL     1      23.688   1.407  52.036  1.00  0.00     0.033 A 
HETATM   15  C20 UNL     1      20.487   0.199  53.632  1.00  0.00     0.172 C 
ENDROOT
BRANCH  13  16
HETATM   16  C11 UNL     1      23.773   3.243  50.240  1.00  0.00     0.099 C 
BRANCH  16  17
HETATM   17  C12 UNL     1      23.286   2.754  48.919  1.00  0.00     0.282 C 
BRANCH  17  18
HETATM   18  N4  UNL     1      21.970   3.364  48.585  1.00  0.00     0.079 N 
HETATM   19  H12 UNL     1      21.538   2.659  47.928  1.00  0.00     0.312 HD
HETATM   20  H13 UNL     1      21.459   3.426  49.491  1.00  0.00     0.312 HD
ENDBRANCH  17  18
ENDBRANCH  16  17
BRANCH  16  21
HETATM   21  C13 UNL     1      24.266   4.613  50.351  1.00  0.00    -0.046 A 
HETATM   22  C14 UNL     1      23.968   5.714  51.159  1.00  0.00     0.008 A 
HETATM   23  C15 UNL     1      24.607   6.923  51.035  1.00  0.00     0.001 A 
HETATM   24  C16 UNL     1      25.591   7.111  50.091  1.00  0.00     0.000 A 
HETATM   25  C17 UNL     1      25.918   6.051  49.273  1.00  0.00     0.001 A 
HETATM   26  C18 UNL     1      25.274   4.828  49.395  1.00  0.00     0.008 A 
ENDBRANCH  16  21
ENDBRANCH  13  16
BRANCH   1  27
HETATM   27  C2  UNL     1      17.678  -1.312  53.168  1.00  0.00     0.064 C 
HETATM   28  C1  UNL     1      17.911  -2.528  53.627  1.00  0.00     0.017 C 
ENDBRANCH   1  27
TORSDOF 5
ENDMDL
MODEL 5
REMARK VINA RESULT:      -7.4      2.571      4.474
REMARK  5 active torsions:
REMARK  status: ('A' for Active; 'I' for Inactive)
REMARK    1  A    between atoms: C2_2  and  C3_3 
REMARK       I    between atoms: C3_3  and  N1_5 
REMARK    2  A    between atoms: C10_15  and  C11_16 
REMARK    3  A    between atoms: C11_16  and  C12_17 
REMARK    4  A    between atoms: C11_16  and  C13_19 
REMARK    5  A    between atoms: C12_17  and  N4_18 
ROOT
HETATM    1  C3  UNL     1      27.125   1.059  52.953  1.00  0.00     0.242 C 
HETATM    2  O1  UNL     1      27.347   0.206  52.059  1.00  0.00    -0.268 OA
HETATM    3  N1  UNL     1      25.781   1.506  52.922  1.00  0.00    -0.344 N 
HETATM    4  C4  UNL     1      24.915   0.928  51.903  1.00  0.00     0.131 C 
HETATM    5  C5  UNL     1      23.445   0.980  52.385  1.00  0.00     0.060 C 
HETATM    6  C6  UNL     1      23.023   2.380  52.211  1.00  0.00    -0.027 A 
HETATM    7  C7  UNL     1      23.950   3.091  52.997  1.00  0.00     0.010 A 
HETATM    8  S1  UNL     1      23.455   4.793  52.832  1.00  0.00    -0.072 SA
HETATM    9  C8  UNL     1      22.096   4.478  51.766  1.00  0.00     0.112 A 
HETATM   10  N2  UNL     1      21.247   5.371  51.235  1.00  0.00    -0.234 NA
HETATM   11  C9  UNL     1      20.258   4.941  50.436  1.00  0.00     0.234 A 
HETATM   12  N3  UNL     1      20.243   3.645  50.265  1.00  0.00    -0.245 NA
HETATM   13  C10 UNL     1      21.043   2.675  50.747  1.00  0.00     0.059 A 
HETATM   14  C19 UNL     1      22.079   3.126  51.587  1.00  0.00     0.033 A 
HETATM   15  C20 UNL     1      25.091   2.492  53.772  1.00  0.00     0.172 C 
ENDROOT
BRANCH  13  16
HETATM   16  C11 UNL     1      20.800   1.266  50.357  1.00  0.00     0.099 C 
BRANCH  16  17
HETATM   17  C12 UNL     1      21.332   0.831  49.035  1.00  0.00     0.282 C 
BRANCH  17  18
HETATM   18  N4  UNL     1      21.169   1.910  48.022  1.00  0.00     0.079 N 
HETATM   19  H12 UNL     1      20.307   2.421  48.352  1.00  0.00     0.312 HD
HETATM   20  H13 UNL     1      22.030   2.491  48.101  1.00  0.00     0.312 HD
ENDBRANCH  17  18
ENDBRANCH  16  17
BRANCH  16  21
HETATM   21  C13 UNL     1      19.584   0.644  50.873  1.00  0.00    -0.046 A 
HETATM   22  C14 UNL     1      18.274   0.486  50.408  1.00  0.00     0.008 A 
HETATM   23  C15 UNL     1      17.301  -0.157  51.131  1.00  0.00     0.001 A 
HETATM   24  C16 UNL     1      17.573  -0.688  52.372  1.00  0.00     0.000 A 
HETATM   25  C17 UNL     1      18.852  -0.555  52.868  1.00  0.00     0.001 A 
HETATM   26  C18 UNL     1      19.839   0.095  52.141  1.00  0.00     0.008 A 
ENDBRANCH  16  21
ENDBRANCH  13  16
BRANCH   1  27
HETATM   27  C2  UNL     1      28.154   1.493  53.872  1.00  0.00     0.064 C 
HETATM   28  C1  UNL     1      29.039   2.468  53.771  1.00  0.00     0.017 C 
ENDBRANCH   1  27
TORSDOF 5
ENDMDL
MODEL 6
REMARK VINA RESULT:      -7.3      4.267      6.610
REMARK  5 active torsions:
REMARK  status: ('A' for Active; 'I' for Inactive)
REMARK    1  A    between atoms: C2_2  and  C3_3 
REMARK       I    between atoms: C3_3  and  N1_5 
REMARK    2  A    between atoms: C10_15  and  C11_16 
REMARK    3  A    between atoms: C11_16  and  C12_17 
REMARK    4  A    between atoms: C11_16  and  C13_19 
REMARK    5  A    between atoms: C12_17  and  N4_18 
ROOT
HETATM    1  C3  UNL     1      21.765   1.329  51.776  1.00  0.00     0.242 C 
HETATM    2  O1  UNL     1      22.059   1.787  52.909  1.00  0.00    -0.268 OA
HETATM    3  N1  UNL     1      22.355   2.091  50.738  1.00  0.00    -0.344 N 
HETATM    4  C4  UNL     1      23.171   3.231  51.138  1.00  0.00     0.131 C 
HETATM    5  C5  UNL     1      24.221   3.525  50.039  1.00  0.00     0.060 C 
HETATM    6  C6  UNL     1      23.481   4.198  48.957  1.00  0.00    -0.027 A 
HETATM    7  C7  UNL     1      22.488   3.258  48.619  1.00  0.00     0.010 A 
HETATM    8  S1  UNL     1      21.585   4.029  47.292  1.00  0.00    -0.072 SA
HETATM    9  C8  UNL     1      22.540   5.502  47.262  1.00  0.00     0.112 A 
HETATM   10  N2  UNL     1      22.386   6.561  46.453  1.00  0.00    -0.234 NA
HETATM   11  C9  UNL     1      23.220   7.606  46.576  1.00  0.00     0.234 A 
HETATM   12  N3  UNL     1      24.119   7.457  47.512  1.00  0.00    -0.245 NA
HETATM   13  C10 UNL     1      24.353   6.444  48.368  1.00  0.00     0.059 A 
HETATM   14  C19 UNL     1      23.481   5.347  48.238  1.00  0.00     0.033 A 
HETATM   15  C20 UNL     1      22.279   1.922  49.277  1.00  0.00     0.172 C 
ENDROOT
BRANCH  13  16
HETATM   16  C11 UNL     1      25.448   6.561  49.360  1.00  0.00     0.099 C 
BRANCH  16  17
HETATM   17  C12 UNL     1      25.257   7.545  50.463  1.00  0.00     0.282 C 
BRANCH  17  18
HETATM   18  N4  UNL     1      24.557   6.913  51.615  1.00  0.00     0.079 N 
HETATM   19  H12 UNL     1      23.540   7.114  51.417  1.00  0.00     0.312 HD
HETATM   20  H13 UNL     1      24.781   5.898  51.549  1.00  0.00     0.312 HD
ENDBRANCH  17  18
ENDBRANCH  16  17
BRANCH  16  21
HETATM   21  C13 UNL     1      26.799   6.289  48.877  1.00  0.00    -0.046 A 
HETATM   22  C14 UNL     1      27.558   5.138  48.641  1.00  0.00     0.008 A 
HETATM   23  C15 UNL     1      28.850   5.181  48.178  1.00  0.00     0.001 A 
HETATM   24  C16 UNL     1      29.471   6.382  47.921  1.00  0.00     0.000 A 
HETATM   25  C17 UNL     1      28.760   7.541  48.140  1.00  0.00     0.001 A 
HETATM   26  C18 UNL     1      27.454   7.503  48.607  1.00  0.00     0.008 A 
ENDBRANCH  16  21
ENDBRANCH  13  16
BRANCH   1  27
HETATM   27  C2  UNL     1      20.924   0.164  51.614  1.00  0.00     0.064 C 
HETATM   28  C1  UNL     1      19.621   0.018  51.775  1.00  0.00     0.017 C 
ENDBRANCH   1  27
TORSDOF 5
ENDMDL
MODEL 7
REMARK VINA RESULT:      -7.3      3.146      4.856
REMARK  5 active torsions:
REMARK  status: ('A' for Active; 'I' for Inactive)
REMARK    1  A    between atoms: C2_2  and  C3_3 
REMARK       I    between atoms: C3_3  and  N1_5 
REMARK    2  A    between atoms: C10_15  and  C11_16 
REMARK    3  A    between atoms: C11_16  and  C12_17 
REMARK    4  A    between atoms: C11_16  and  C13_19 
REMARK    5  A    between atoms: C12_17  and  N4_18 
ROOT
HETATM    1  C3  UNL     1      21.810  -0.081  52.844  1.00  0.00     0.242 C 
HETATM    2  O1  UNL     1      20.714   0.054  52.246  1.00  0.00    -0.268 OA
HETATM    3  N1  UNL     1      22.678   1.010  52.590  1.00  0.00    -0.344 N 
HETATM    4  C4  UNL     1      22.178   2.063  51.716  1.00  0.00     0.131 C 
HETATM    5  C5  UNL     1      22.888   3.396  52.054  1.00  0.00     0.060 C 
HETATM    6  C6  UNL     1      24.232   3.287  51.461  1.00  0.00    -0.027 A 
HETATM    7  C7  UNL     1      24.761   2.138  52.080  1.00  0.00     0.010 A 
HETATM    8  S1  UNL     1      26.401   1.988  51.403  1.00  0.00    -0.072 SA
HETATM    9  C8  UNL     1      26.297   3.406  50.374  1.00  0.00     0.112 A 
HETATM   10  N2  UNL     1      27.239   3.892  49.552  1.00  0.00    -0.234 NA
HETATM   11  C9  UNL     1      26.978   4.998  48.837  1.00  0.00     0.234 A 
HETATM   12  N3  UNL     1      25.783   5.488  49.039  1.00  0.00    -0.245 NA
HETATM   13  C10 UNL     1      24.776   5.078  49.833  1.00  0.00     0.059 A 
HETATM   14  C19 UNL     1      25.050   3.919  50.584  1.00  0.00     0.033 A 
HETATM   15  C20 UNL     1      24.046   1.265  53.074  1.00  0.00     0.172 C 
ENDROOT
BRANCH  13  16
HETATM   16  C11 UNL     1      23.498   5.828  49.841  1.00  0.00     0.099 C 
BRANCH  16  17
HETATM   17  C12 UNL     1      23.299   6.809  50.945  1.00  0.00     0.282 C 
BRANCH  17  18
HETATM   18  N4  UNL     1      24.545   6.960  51.745  1.00  0.00     0.079 N 
HETATM   19  H12 UNL     1      25.265   7.227  51.021  1.00  0.00     0.312 HD
HETATM   20  H13 UNL     1      24.349   7.735  52.413  1.00  0.00     0.312 HD
ENDBRANCH  17  18
ENDBRANCH  16  17
BRANCH  16  21
HETATM   21  C13 UNL     1      22.336   5.147  49.279  1.00  0.00    -0.046 A 
HETATM   22  C14 UNL     1      22.135   4.160  48.308  1.00  0.00     0.008 A 
HETATM   23  C15 UNL     1      20.889   3.698  47.963  1.00  0.00     0.001 A 
HETATM   24  C16 UNL     1      19.756   4.195  48.569  1.00  0.00     0.000 A 
HETATM   25  C17 UNL     1      19.909   5.168  49.532  1.00  0.00     0.001 A 
HETATM   26  C18 UNL     1      21.166   5.638  49.883  1.00  0.00     0.008 A 
ENDBRANCH  16  21
ENDBRANCH  13  16
BRANCH   1  27
HETATM   27  C2  UNL     1      22.095  -1.229  53.675  1.00  0.00     0.064 C 
HETATM   28  C1  UNL     1      22.273  -1.320  54.981  1.00  0.00     0.017 C 
ENDBRANCH   1  27
TORSDOF 5
ENDMDL
MODEL 8
REMARK VINA RESULT:      -6.9      7.581      9.701
REMARK  5 active torsions:
REMARK  status: ('A' for Active; 'I' for Inactive)
REMARK    1  A    between atoms: C2_2  and  C3_3 
REMARK       I    between atoms: C3_3  and  N1_5 
REMARK    2  A    between atoms: C10_15  and  C11_16 
REMARK    3  A    between atoms: C11_16  and  C12_17 
REMARK    4  A    between atoms: C11_16  and  C13_19 
REMARK    5  A    between atoms: C12_17  and  N4_18 
ROOT
HETATM    1  C3  UNL     1      25.188   4.050  49.547  1.00  0.00     0.242 C 
HETATM    2  O1  UNL     1      25.782   3.048  50.017  1.00  0.00    -0.268 OA
HETATM    3  N1  UNL     1      26.101   5.000  49.028  1.00  0.00    -0.344 N 
HETATM    4  C4  UNL     1      27.518   4.674  49.121  1.00  0.00     0.131 C 
HETATM    5  C5  UNL     1      28.291   5.405  47.997  1.00  0.00     0.060 C 
HETATM    6  C6  UNL     1      28.395   6.806  48.438  1.00  0.00    -0.027 A 
HETATM    7  C7  UNL     1      27.050   7.189  48.604  1.00  0.00     0.010 A 
HETATM    8  S1  UNL     1      27.136   8.892  49.115  1.00  0.00    -0.072 SA
HETATM    9  C8  UNL     1      28.887   8.998  49.082  1.00  0.00     0.112 A 
HETATM   10  N2  UNL     1      29.649  10.063  49.375  1.00  0.00    -0.234 NA
HETATM   11  C9  UNL     1      30.985   9.957  49.292  1.00  0.00     0.234 A 
HETATM   12  N3  UNL     1      31.398   8.773  48.921  1.00  0.00    -0.245 NA
HETATM   13  C10 UNL     1      30.721   7.652  48.609  1.00  0.00     0.059 A 
HETATM   14  C19 UNL     1      29.320   7.764  48.694  1.00  0.00     0.033 A 
HETATM   15  C20 UNL     1      25.851   6.305  48.393  1.00  0.00     0.172 C 
ENDROOT
BRANCH  13  16
HETATM   16  C11 UNL     1      31.467   6.426  48.240  1.00  0.00     0.099 C 
BRANCH  16  17
HETATM   17  C12 UNL     1      32.296   5.794  49.305  1.00  0.00     0.282 C 
BRANCH  17  18
HETATM   18  N4  UNL     1      31.560   5.769  50.599  1.00  0.00     0.079 N 
HETATM   19  H12 UNL     1      31.672   6.755  50.958  1.00  0.00     0.312 HD
HETATM   20  H13 UNL     1      30.574   5.546  50.349  1.00  0.00     0.312 HD
ENDBRANCH  17  18
ENDBRANCH  16  17
BRANCH  16  21
HETATM   21  C13 UNL     1      31.893   6.313  46.848  1.00  0.00    -0.046 A 
HETATM   22  C14 UNL     1      31.855   7.147  45.726  1.00  0.00     0.008 A 
HETATM   23  C15 UNL     1      32.338   6.765  44.499  1.00  0.00     0.001 A 
HETATM   24  C16 UNL     1      32.894   5.520  44.312  1.00  0.00     0.000 A 
HETATM   25  C17 UNL     1      32.952   4.666  45.392  1.00  0.00     0.001 A 
HETATM   26  C18 UNL     1      32.465   5.047  46.634  1.00  0.00     0.008 A 
ENDBRANCH  16  21
ENDBRANCH  13  16
BRANCH   1  27
HETATM   27  C2  UNL     1      23.746   4.162  49.561  1.00  0.00     0.064 C 
HETATM   28  C1  UNL     1      22.831   3.543  48.838  1.00  0.00     0.017 C 
ENDBRANCH   1  27
TORSDOF 5
ENDMDL
MODEL 9
REMARK VINA RESULT:      -6.8      2.109      2.680
REMARK  5 active torsions:
REMARK  status: ('A' for Active; 'I' for Inactive)
REMARK    1  A    between atoms: C2_2  and  C3_3 
REMARK       I    between atoms: C3_3  and  N1_5 
REMARK    2  A    between atoms: C10_15  and  C11_16 
REMARK    3  A    between atoms: C11_16  and  C12_17 
REMARK    4  A    between atoms: C11_16  and  C13_19 
REMARK    5  A    between atoms: C12_17  and  N4_18 
ROOT
HETATM    1  C3  UNL     1      25.783   0.875  54.119  1.00  0.00     0.242 C 
HETATM    2  O1  UNL     1      26.595   1.833  54.112  1.00  0.00    -0.268 OA
HETATM    3  N1  UNL     1      24.683   1.119  53.260  1.00  0.00    -0.344 N 
HETATM    4  C4  UNL     1      24.675   2.386  52.541  1.00  0.00     0.131 C 
HETATM    5  C5  UNL     1      23.856   2.234  51.236  1.00  0.00     0.060 C 
HETATM    6  C6  UNL     1      22.444   2.250  51.654  1.00  0.00    -0.027 A 
HETATM    7  C7  UNL     1      22.366   1.170  52.554  1.00  0.00     0.010 A 
HETATM    8  S1  UNL     1      20.661   1.143  53.063  1.00  0.00    -0.072 SA
HETATM    9  C8  UNL     1      20.164   2.516  52.090  1.00  0.00     0.112 A 
HETATM   10  N2  UNL     1      18.939   3.056  51.999  1.00  0.00    -0.234 NA
HETATM   11  C9  UNL     1      18.746   4.113  51.195  1.00  0.00     0.234 A 
HETATM   12  N3  UNL     1      19.825   4.505  50.570  1.00  0.00    -0.245 NA
HETATM   13  C10 UNL     1      21.087   4.036  50.594  1.00  0.00     0.059 A 
HETATM   14  C19 UNL     1      21.289   2.926  51.436  1.00  0.00     0.033 A 
HETATM   15  C20 UNL     1      23.508   0.282  52.965  1.00  0.00     0.172 C 
ENDROOT
BRANCH  13  16
HETATM   16  C11 UNL     1      22.133   4.707  49.786  1.00  0.00     0.099 C 
BRANCH  16  17
HETATM   17  C12 UNL     1      22.699   5.972  50.332  1.00  0.00     0.282 C 
BRANCH  17  18
HETATM   18  N4  UNL     1      21.929   6.420  51.525  1.00  0.00     0.079 N 
HETATM   19  H12 UNL     1      21.938   5.570  52.150  1.00  0.00     0.312 HD
HETATM   20  H13 UNL     1      22.477   7.211  51.923  1.00  0.00     0.312 HD
ENDBRANCH  17  18
ENDBRANCH  16  17
BRANCH  16  21
HETATM   21  C13 UNL     1      22.056   4.530  48.339  1.00  0.00    -0.046 A 
HETATM   22  C14 UNL     1      21.878   3.442  47.478  1.00  0.00     0.008 A 
HETATM   23  C15 UNL     1      21.854   3.572  46.111  1.00  0.00     0.001 A 
HETATM   24  C16 UNL     1      22.005   4.802  45.512  1.00  0.00     0.000 A 
HETATM   25  C17 UNL     1      22.181   5.902  46.324  1.00  0.00     0.001 A 
HETATM   26  C18 UNL     1      22.207   5.776  47.705  1.00  0.00     0.008 A 
ENDBRANCH  16  21
ENDBRANCH  13  16
BRANCH   1  27
HETATM   27  C2  UNL     1      25.998  -0.306  54.924  1.00  0.00     0.064 C 
HETATM   28  C1  UNL     1      25.339  -0.760  55.975  1.00  0.00     0.017 C 
ENDBRANCH   1  27
TORSDOF 5
ENDMDL
