MODEL 1
REMARK VINA RESULT:      -9.2      0.000      0.000
REMARK  6 active torsions:
REMARK  status: ('A' for Active; 'I' for Inactive)
REMARK    1  A    between atoms: O1_1  and  C1_2 
REMARK    2  A    between atoms: C6_7  and  C7_8 
REMARK    3  A    between atoms: C7_8  and  N1_9 
REMARK    4  A    between atoms: N1_9  and  C8_10 
REMARK    5  A    between atoms: C13_17  and  N4_18 
REMARK    6  A    between atoms: N4_18  and  C14_19 
ROOT
HETATM    1  C8  UNL     1      24.078  -0.123  53.309  1.00  0.00     0.029 A 
HETATM    2  C9  UNL     1      22.781  -0.587  53.387  1.00  0.00     0.031 A 
HETATM    3  C10 UNL     1      21.642   0.139  53.121  1.00  0.00     0.035 A 
HETATM    4  C11 UNL     1      21.795   1.454  52.739  1.00  0.00     0.072 A 
HETATM    5  N2  UNL     1      20.711   2.201  52.466  1.00  0.00    -0.241 NA
HETATM    6  C12 UNL     1      20.895   3.498  52.090  1.00  0.00     0.236 A 
HETATM    7  N3  UNL     1      22.145   4.027  51.991  1.00  0.00    -0.224 NA
HETATM    8  C13 UNL     1      23.234   3.287  52.261  1.00  0.00     0.141 A 
HETATM    9  C19 UNL     1      23.068   1.973  52.643  1.00  0.00     0.041 A 
HETATM   10  C20 UNL     1      24.168   1.198  52.923  1.00  0.00     0.046 A 
ENDROOT
BRANCH   1  11
HETATM   11  N1  UNL     1      25.235  -0.885  53.597  1.00  0.00    -0.386 N 
HETATM   12  H8  UNL     1      25.369  -1.081  54.638  1.00  0.00     0.160 HD
BRANCH  11  13
HETATM   13  C7  UNL     1      26.237  -1.428  52.734  1.00  0.00     0.161 C 
BRANCH  13  14
HETATM   14  C6  UNL     1      27.567  -0.854  53.069  1.00  0.00    -0.007 A 
HETATM   15  C1  UNL     1      28.504  -1.896  53.102  1.00  0.00     0.073 A 
HETATM   16  C2  UNL     1      29.844  -1.625  53.409  1.00  0.00     0.037 A 
HETATM   17  C3  UNL     1      30.287  -0.348  53.684  1.00  0.00     0.003 A 
HETATM   18  C4  UNL     1      29.338   0.660  53.644  1.00  0.00     0.001 A 
HETATM   19  C5  UNL     1      28.027   0.412  53.347  1.00  0.00     0.011 A 
BRANCH  15  20
HETATM   20  O1  UNL     1      28.300  -3.243  52.863  1.00  0.00    -0.360 OA
HETATM   21  H1  UNL     1      28.409  -3.715  51.994  1.00  0.00     0.217 HD
ENDBRANCH  15  20
ENDBRANCH  13  14
ENDBRANCH  11  13
ENDBRANCH   1  11
BRANCH   8  22
HETATM   22  N4  UNL     1      24.481   3.912  52.132  1.00  0.00    -0.342 N 
HETATM   23  H12 UNL     1      25.279   4.025  52.759  1.00  0.00     0.167 HD
BRANCH  22  24
HETATM   24  C14 UNL     1      24.812   4.556  50.908  1.00  0.00     0.036 A 
HETATM   25  C15 UNL     1      25.866   4.039  50.276  1.00  0.00     0.056 A 
HETATM   26 CL1  UNL     1      26.707   2.671  50.987  1.00  0.00    -0.082 Cl
HETATM   27  C16 UNL     1      26.181   4.726  49.021  1.00  0.00     0.022 A 
HETATM   28  C17 UNL     1      25.263   5.675  48.937  1.00  0.00    -0.019 A 
HETATM   29  C18 UNL     1      24.320   5.686  50.075  1.00  0.00     0.086 A 
ENDBRANCH  22  24
ENDBRANCH   8  22
TORSDOF 6
ENDMDL
MODEL 2
REMARK VINA RESULT:      -8.8      2.074      2.564
REMARK  6 active torsions:
REMARK  status: ('A' for Active; 'I' for Inactive)
REMARK    1  A    between atoms: O1_1  and  C1_2 
REMARK    2  A    between atoms: C6_7  and  C7_8 
REMARK    3  A    between atoms: C7_8  and  N1_9 
REMARK    4  A    between atoms: N1_9  and  C8_10 
REMARK    5  A    between atoms: C13_17  and  N4_18 
REMARK    6  A    between atoms: N4_18  and  C14_19 
ROOT
HETATM    1  C8  UNL     1      23.768  -0.692  53.726  1.00  0.00     0.029 A 
HETATM    2  C9  UNL     1      22.888  -1.086  54.712  1.00  0.00     0.031 A 
HETATM    3  C10 UNL     1      21.516  -0.982  54.664  1.00  0.00     0.035 A 
HETATM    4  C11 UNL     1      20.954  -0.435  53.530  1.00  0.00     0.072 A 
HETATM    5  N2  UNL     1      19.618  -0.314  53.438  1.00  0.00    -0.241 NA
HETATM    6  C12 UNL     1      19.092   0.229  52.303  1.00  0.00     0.236 A 
HETATM    7  N3  UNL     1      19.898   0.640  51.287  1.00  0.00    -0.224 NA
HETATM    8  C13 UNL     1      21.234   0.524  51.371  1.00  0.00     0.141 A 
HETATM    9  C19 UNL     1      21.785  -0.024  52.510  1.00  0.00     0.041 A 
HETATM   10  C20 UNL     1      23.149  -0.153  52.617  1.00  0.00     0.046 A 
ENDROOT
BRANCH   1  11
HETATM   11  N1  UNL     1      25.177  -0.801  53.800  1.00  0.00    -0.386 N 
HETATM   12  H8  UNL     1      25.585  -0.442  54.720  1.00  0.00     0.160 HD
BRANCH  11  13
HETATM   13  C7  UNL     1      26.128  -1.305  52.860  1.00  0.00     0.161 C 
BRANCH  13  14
HETATM   14  C6  UNL     1      27.479  -0.761  53.154  1.00  0.00    -0.007 A 
HETATM   15  C1  UNL     1      28.400  -1.817  53.126  1.00  0.00     0.073 A 
HETATM   16  C2  UNL     1      29.755  -1.575  53.385  1.00  0.00     0.037 A 
HETATM   17  C3  UNL     1      30.229  -0.312  53.672  1.00  0.00     0.003 A 
HETATM   18  C4  UNL     1      29.296   0.711  53.693  1.00  0.00     0.001 A 
HETATM   19  C5  UNL     1      27.970   0.491  53.444  1.00  0.00     0.011 A 
BRANCH  15  20
HETATM   20  O1  UNL     1      28.164  -3.156  52.864  1.00  0.00    -0.360 OA
HETATM   21  H1  UNL     1      28.748  -3.921  53.115  1.00  0.00     0.217 HD
ENDBRANCH  15  20
ENDBRANCH  13  14
ENDBRANCH  11  13
ENDBRANCH   1  11
BRANCH   8  22
HETATM   22  N4  UNL     1      21.986   0.972  50.278  1.00  0.00    -0.342 N 
HETATM   23  H12 UNL     1      22.314   0.525  49.419  1.00  0.00     0.167 HD
BRANCH  22  24
HETATM   24  C14 UNL     1      22.443   2.318  50.254  1.00  0.00     0.036 A 
HETATM   25  C15 UNL     1      22.683   2.801  49.034  1.00  0.00     0.056 A 
HETATM   26 CL1  UNL     1      22.423   1.770  47.637  1.00  0.00    -0.082 Cl
HETATM   27  C16 UNL     1      23.152   4.189  49.044  1.00  0.00     0.022 A 
HETATM   28  C17 UNL     1      23.179   4.507  50.328  1.00  0.00    -0.019 A 
HETATM   29  C18 UNL     1      22.751   3.408  51.218  1.00  0.00     0.086 A 
ENDBRANCH  22  24
ENDBRANCH   8  22
TORSDOF 6
ENDMDL
MODEL 3
REMARK VINA RESULT:      -8.7      2.711      5.020
REMARK  6 active torsions:
REMARK  status: ('A' for Active; 'I' for Inactive)
REMARK    1  A    between atoms: O1_1  and  C1_2 
REMARK    2  A    between atoms: C6_7  and  C7_8 
REMARK    3  A    between atoms: C7_8  and  N1_9 
REMARK    4  A    between atoms: N1_9  and  C8_10 
REMARK    5  A    between atoms: C13_17  and  N4_18 
REMARK    6  A    between atoms: N4_18  and  C14_19 
ROOT
HETATM    1  C8  UNL     1      24.141   3.442  52.079  1.00  0.00     0.029 A 
HETATM    2  C9  UNL     1      23.504   4.665  52.084  1.00  0.00     0.031 A 
HETATM    3  C10 UNL     1      22.143   4.872  52.057  1.00  0.00     0.035 A 
HETATM    4  C11 UNL     1      21.327   3.762  52.023  1.00  0.00     0.072 A 
HETATM    5  N2  UNL     1      19.992   3.914  51.998  1.00  0.00    -0.241 NA
HETATM    6  C12 UNL     1      19.211   2.797  51.966  1.00  0.00     0.236 A 
HETATM    7  N3  UNL     1      19.768   1.556  51.960  1.00  0.00    -0.224 NA
HETATM    8  C13 UNL     1      21.102   1.394  51.985  1.00  0.00     0.141 A 
HETATM    9  C19 UNL     1      21.908   2.512  52.018  1.00  0.00     0.041 A 
HETATM   10  C20 UNL     1      23.274   2.370  52.044  1.00  0.00     0.046 A 
ENDROOT
BRANCH   1  11
HETATM   11  N1  UNL     1      25.544   3.253  52.097  1.00  0.00    -0.386 N 
HETATM   12  H8  UNL     1      26.036   3.788  52.879  1.00  0.00     0.160 HD
BRANCH  11  13
HETATM   13  C7  UNL     1      26.394   2.474  51.253  1.00  0.00     0.161 C 
BRANCH  13  14
HETATM   14  C6  UNL     1      26.895   1.284  51.989  1.00  0.00    -0.007 A 
HETATM   15  C1  UNL     1      27.936   1.692  52.835  1.00  0.00     0.073 A 
HETATM   16  C2  UNL     1      28.596   0.754  53.639  1.00  0.00     0.037 A 
HETATM   17  C3  UNL     1      28.256  -0.583  53.631  1.00  0.00     0.003 A 
HETATM   18  C4  UNL     1      27.225  -0.956  52.785  1.00  0.00     0.001 A 
HETATM   19  C5  UNL     1      26.572  -0.052  51.994  1.00  0.00     0.011 A 
BRANCH  15  20
HETATM   20  O1  UNL     1      28.449   2.965  53.014  1.00  0.00    -0.360 OA
HETATM   21  H1  UNL     1      27.949   3.822  52.939  1.00  0.00     0.217 HD
ENDBRANCH  15  20
ENDBRANCH  13  14
ENDBRANCH  11  13
ENDBRANCH   1  11
BRANCH   8  22
HETATM   22  N4  UNL     1      21.588   0.081  51.977  1.00  0.00    -0.342 N 
HETATM   23  H12 UNL     1      21.626  -0.651  51.265  1.00  0.00     0.167 HD
BRANCH  22  24
HETATM   24  C14 UNL     1      22.173  -0.450  53.159  1.00  0.00     0.036 A 
HETATM   25  C15 UNL     1      21.328  -1.122  53.943  1.00  0.00     0.056 A 
HETATM   26 CL1  UNL     1      19.648  -1.278  53.458  1.00  0.00    -0.082 Cl
HETATM   27  C16 UNL     1      21.962  -1.655  55.152  1.00  0.00     0.022 A 
HETATM   28  C17 UNL     1      23.223  -1.268  55.048  1.00  0.00    -0.019 A 
HETATM   29  C18 UNL     1      23.503  -0.489  53.825  1.00  0.00     0.086 A 
ENDBRANCH  22  24
ENDBRANCH   8  22
TORSDOF 6
ENDMDL
MODEL 4
REMARK VINA RESULT:      -8.6      2.531      3.403
REMARK  6 active torsions:
REMARK  status: ('A' for Active; 'I' for Inactive)
REMARK    1  A    between atoms: O1_1  and  C1_2 
REMARK    2  A    between atoms: C6_7  and  C7_8 
REMARK    3  A    between atoms: C7_8  and  N1_9 
REMARK    4  A    between atoms: N1_9  and  C8_10 
REMARK    5  A    between atoms: C13_17  and  N4_18 
REMARK    6  A    between atoms: N4_18  and  C14_19 
ROOT
HETATM    1  C8  UNL     1      23.496   0.236  53.575  1.00  0.00     0.029 A 
HETATM    2  C9  UNL     1      23.034  -0.863  54.268  1.00  0.00     0.031 A 
HETATM    3  C10 UNL     1      21.740  -1.334  54.273  1.00  0.00     0.035 A 
HETATM    4  C11 UNL     1      20.808  -0.654  53.519  1.00  0.00     0.072 A 
HETATM    5  N2  UNL     1      19.533  -1.078  53.491  1.00  0.00    -0.241 NA
HETATM    6  C12 UNL     1      18.634  -0.386  52.735  1.00  0.00     0.236 A 
HETATM    7  N3  UNL     1      19.017   0.709  52.023  1.00  0.00    -0.224 NA
HETATM    8  C13 UNL     1      20.290   1.140  52.044  1.00  0.00     0.141 A 
HETATM    9  C19 UNL     1      21.213   0.452  52.804  1.00  0.00     0.041 A 
HETATM   10  C20 UNL     1      22.520   0.875  52.839  1.00  0.00     0.046 A 
ENDROOT
BRANCH   1  11
HETATM   11  N1  UNL     1      24.831   0.708  53.592  1.00  0.00    -0.386 N 
HETATM   12  H8  UNL     1      25.166   1.005  54.562  1.00  0.00     0.160 HD
BRANCH  11  13
HETATM   13  C7  UNL     1      25.787   0.849  52.539  1.00  0.00     0.161 C 
BRANCH  13  14
HETATM   14  C6  UNL     1      27.091   0.267  52.951  1.00  0.00    -0.007 A 
HETATM   15  C1  UNL     1      27.835   1.261  53.602  1.00  0.00     0.073 A 
HETATM   16  C2  UNL     1      29.119   0.975  54.084  1.00  0.00     0.037 A 
HETATM   17  C3  UNL     1      29.692  -0.271  53.940  1.00  0.00     0.003 A 
HETATM   18  C4  UNL     1      28.934  -1.232  53.291  1.00  0.00     0.001 A 
HETATM   19  C5  UNL     1      27.680  -0.968  52.815  1.00  0.00     0.011 A 
BRANCH  15  20
HETATM   20  O1  UNL     1      27.475   2.571  53.863  1.00  0.00    -0.360 OA
HETATM   21  H1  UNL     1      27.592   3.059  54.723  1.00  0.00     0.217 HD
ENDBRANCH  15  20
ENDBRANCH  13  14
ENDBRANCH  11  13
ENDBRANCH   1  11
BRANCH   8  22
HETATM   22  N4  UNL     1      20.595   2.273  51.281  1.00  0.00    -0.342 N 
HETATM   23  H12 UNL     1      20.453   3.275  51.422  1.00  0.00     0.167 HD
BRANCH  22  24
HETATM   24  C14 UNL     1      21.242   2.112  50.025  1.00  0.00     0.036 A 
HETATM   25  C15 UNL     1      22.228   2.979  49.794  1.00  0.00     0.056 A 
HETATM   26 CL1  UNL     1      22.615   4.185  51.011  1.00  0.00    -0.082 Cl
HETATM   27  C16 UNL     1      22.874   2.787  48.493  1.00  0.00     0.022 A 
HETATM   28  C17 UNL     1      22.223   1.764  47.963  1.00  0.00    -0.019 A 
HETATM   29  C18 UNL     1      21.153   1.230  48.831  1.00  0.00     0.086 A 
ENDBRANCH  22  24
ENDBRANCH   8  22
TORSDOF 6
ENDMDL
MODEL 5
REMARK VINA RESULT:      -8.6      2.907      5.972
REMARK  6 active torsions:
REMARK  status: ('A' for Active; 'I' for Inactive)
REMARK    1  A    between atoms: O1_1  and  C1_2 
REMARK    2  A    between atoms: C6_7  and  C7_8 
REMARK    3  A    between atoms: C7_8  and  N1_9 
REMARK    4  A    between atoms: N1_9  and  C8_10 
REMARK    5  A    between atoms: C13_17  and  N4_18 
REMARK    6  A    between atoms: N4_18  and  C14_19 
ROOT
HETATM    1  C8  UNL     1      22.886   1.428  51.448  1.00  0.00     0.029 A 
HETATM    2  C9  UNL     1      21.770   1.224  52.232  1.00  0.00     0.031 A 
HETATM    3  C10 UNL     1      21.721   0.502  53.403  1.00  0.00     0.035 A 
HETATM    4  C11 UNL     1      22.889  -0.078  53.847  1.00  0.00     0.072 A 
HETATM    5  N2  UNL     1      22.890  -0.791  54.987  1.00  0.00    -0.241 NA
HETATM    6  C12 UNL     1      24.062  -1.351  55.401  1.00  0.00     0.236 A 
HETATM    7  N3  UNL     1      25.205  -1.193  54.681  1.00  0.00    -0.224 NA
HETATM    8  C13 UNL     1      25.214  -0.481  53.541  1.00  0.00     0.141 A 
HETATM    9  C19 UNL     1      24.038   0.093  53.106  1.00  0.00     0.041 A 
HETATM   10  C20 UNL     1      24.025   0.825  51.943  1.00  0.00     0.046 A 
ENDROOT
BRANCH   1  11
HETATM   11  N1  UNL     1      22.912   2.168  50.242  1.00  0.00    -0.386 N 
HETATM   12  H8  UNL     1      22.827   1.561  49.367  1.00  0.00     0.160 HD
BRANCH  11  13
HETATM   13  C7  UNL     1      23.030   3.573  50.008  1.00  0.00     0.161 C 
BRANCH  13  14
HETATM   14  C6  UNL     1      24.439   3.922  49.687  1.00  0.00    -0.007 A 
HETATM   15  C1  UNL     1      24.468   5.228  49.179  1.00  0.00     0.073 A 
HETATM   16  C2  UNL     1      25.683   5.801  48.784  1.00  0.00     0.037 A 
HETATM   17  C3  UNL     1      26.878   5.118  48.878  1.00  0.00     0.003 A 
HETATM   18  C4  UNL     1      26.818   3.830  49.384  1.00  0.00     0.001 A 
HETATM   19  C5  UNL     1      25.639   3.257  49.772  1.00  0.00     0.011 A 
BRANCH  15  20
HETATM   20  O1  UNL     1      23.410   6.101  48.992  1.00  0.00    -0.360 OA
HETATM   21  H1  UNL     1      22.828   6.164  48.188  1.00  0.00     0.217 HD
ENDBRANCH  15  20
ENDBRANCH  13  14
ENDBRANCH  11  13
ENDBRANCH   1  11
BRANCH   8  22
HETATM   22  N4  UNL     1      26.435  -0.370  52.865  1.00  0.00    -0.342 N 
HETATM   23  H12 UNL     1      26.871  -0.900  52.109  1.00  0.00     0.167 HD
BRANCH  22  24
HETATM   24  C14 UNL     1      27.337   0.668  53.227  1.00  0.00     0.036 A 
HETATM   25  C15 UNL     1      28.570   0.253  53.524  1.00  0.00     0.056 A 
HETATM   26 CL1  UNL     1      28.941  -1.461  53.441  1.00  0.00    -0.082 Cl
HETATM   27  C16 UNL     1      29.473   1.346  53.893  1.00  0.00     0.022 A 
HETATM   28  C17 UNL     1      28.719   2.429  53.801  1.00  0.00    -0.019 A 
HETATM   29  C18 UNL     1      27.330   2.147  53.386  1.00  0.00     0.086 A 
ENDBRANCH  22  24
ENDBRANCH   8  22
TORSDOF 6
ENDMDL
MODEL 6
REMARK VINA RESULT:      -8.5      2.749      3.477
REMARK  6 active torsions:
REMARK  status: ('A' for Active; 'I' for Inactive)
REMARK    1  A    between atoms: O1_1  and  C1_2 
REMARK    2  A    between atoms: C6_7  and  C7_8 
REMARK    3  A    between atoms: C7_8  and  N1_9 
REMARK    4  A    between atoms: N1_9  and  C8_10 
REMARK    5  A    between atoms: C13_17  and  N4_18 
REMARK    6  A    between atoms: N4_18  and  C14_19 
ROOT
HETATM    1  C8  UNL     1      23.492   2.019  51.778  1.00  0.00     0.029 A 
HETATM    2  C9  UNL     1      22.599   1.135  51.210  1.00  0.00     0.031 A 
HETATM    3  C10 UNL     1      21.989   1.274  49.983  1.00  0.00     0.035 A 
HETATM    4  C11 UNL     1      22.289   2.396  49.242  1.00  0.00     0.072 A 
HETATM    5  N2  UNL     1      21.720   2.574  48.037  1.00  0.00    -0.241 NA
HETATM    6  C12 UNL     1      22.038   3.693  47.327  1.00  0.00     0.236 A 
HETATM    7  N3  UNL     1      22.912   4.610  47.823  1.00  0.00    -0.224 NA
HETATM    8  C13 UNL     1      23.486   4.441  49.026  1.00  0.00     0.141 A 
HETATM    9  C19 UNL     1      23.177   3.315  49.759  1.00  0.00     0.041 A 
HETATM   10  C20 UNL     1      23.753   3.121  50.991  1.00  0.00     0.046 A 
ENDROOT
BRANCH   1  11
HETATM   11  N1  UNL     1      24.100   1.861  53.047  1.00  0.00    -0.386 N 
HETATM   12  H8  UNL     1      23.465   1.397  53.769  1.00  0.00     0.160 HD
BRANCH  11  13
HETATM   13  C7  UNL     1      25.406   2.214  53.509  1.00  0.00     0.161 C 
BRANCH  13  14
HETATM   14  C6  UNL     1      26.328   1.057  53.371  1.00  0.00    -0.007 A 
HETATM   15  C1  UNL     1      27.620   1.475  53.719  1.00  0.00     0.073 A 
HETATM   16  C2  UNL     1      28.689   0.573  53.664  1.00  0.00     0.037 A 
HETATM   17  C3  UNL     1      28.519  -0.739  53.272  1.00  0.00     0.003 A 
HETATM   18  C4  UNL     1      27.232  -1.123  52.933  1.00  0.00     0.001 A 
HETATM   19  C5  UNL     1      26.178  -0.253  52.982  1.00  0.00     0.011 A 
BRANCH  15  20
HETATM   20  O1  UNL     1      28.034   2.727  54.139  1.00  0.00    -0.360 OA
HETATM   21  H1  UNL     1      28.931   3.134  53.998  1.00  0.00     0.217 HD
ENDBRANCH  15  20
ENDBRANCH  13  14
ENDBRANCH  11  13
ENDBRANCH   1  11
BRANCH   8  22
HETATM   22  N4  UNL     1      24.373   5.434  49.458  1.00  0.00    -0.342 N 
HETATM   23  H12 UNL     1      24.262   6.284  50.014  1.00  0.00     0.167 HD
BRANCH  22  24
HETATM   24  C14 UNL     1      25.747   5.340  49.103  1.00  0.00     0.036 A 
HETATM   25  C15 UNL     1      26.258   6.449  48.563  1.00  0.00     0.056 A 
HETATM   26 CL1  UNL     1      25.227   7.855  48.354  1.00  0.00    -0.082 Cl
HETATM   27  C16 UNL     1      27.674   6.319  48.209  1.00  0.00     0.022 A 
HETATM   28  C17 UNL     1      27.979   5.081  48.563  1.00  0.00    -0.019 A 
HETATM   29  C18 UNL     1      26.845   4.338  49.149  1.00  0.00     0.086 A 
ENDBRANCH  22  24
ENDBRANCH   8  22
TORSDOF 6
ENDMDL
MODEL 7
REMARK VINA RESULT:      -8.2      1.487      1.881
REMARK  6 active torsions:
REMARK  status: ('A' for Active; 'I' for Inactive)
REMARK    1  A    between atoms: O1_1  and  C1_2 
REMARK    2  A    between atoms: C6_7  and  C7_8 
REMARK    3  A    between atoms: C7_8  and  N1_9 
REMARK    4  A    between atoms: N1_9  and  C8_10 
REMARK    5  A    between atoms: C13_17  and  N4_18 
REMARK    6  A    between atoms: N4_18  and  C14_19 
ROOT
HETATM    1  C8  UNL     1      24.134   0.374  52.976  1.00  0.00     0.029 A 
HETATM    2  C9  UNL     1      22.899  -0.238  53.001  1.00  0.00     0.031 A 
HETATM    3  C10 UNL     1      21.684   0.378  52.806  1.00  0.00     0.035 A 
HETATM    4  C11 UNL     1      21.685   1.734  52.560  1.00  0.00     0.072 A 
HETATM    5  N2  UNL     1      20.522   2.378  52.361  1.00  0.00    -0.241 NA
HETATM    6  C12 UNL     1      20.556   3.719  52.118  1.00  0.00     0.236 A 
HETATM    7  N3  UNL     1      21.737   4.392  52.078  1.00  0.00    -0.224 NA
HETATM    8  C13 UNL     1      22.905   3.756  52.275  1.00  0.00     0.141 A 
HETATM    9  C19 UNL     1      22.890   2.400  52.522  1.00  0.00     0.041 A 
HETATM   10  C20 UNL     1      24.073   1.729  52.726  1.00  0.00     0.046 A 
ENDROOT
BRANCH   1  11
HETATM   11  N1  UNL     1      25.373  -0.278  53.189  1.00  0.00    -0.386 N 
HETATM   12  H8  UNL     1      25.639  -0.362  54.220  1.00  0.00     0.160 HD
BRANCH  11  13
HETATM   13  C7  UNL     1      26.308  -0.835  52.264  1.00  0.00     0.161 C 
BRANCH  13  14
HETATM   14  C6  UNL     1      27.676  -0.819  52.845  1.00  0.00    -0.007 A 
HETATM   15  C1  UNL     1      28.065   0.515  53.030  1.00  0.00     0.073 A 
HETATM   16  C2  UNL     1      29.327   0.811  53.558  1.00  0.00     0.037 A 
HETATM   17  C3  UNL     1      30.222  -0.177  53.912  1.00  0.00     0.003 A 
HETATM   18  C4  UNL     1      29.810  -1.485  53.718  1.00  0.00     0.001 A 
HETATM   19  C5  UNL     1      28.581  -1.791  53.203  1.00  0.00     0.011 A 
BRANCH  15  20
HETATM   20  O1  UNL     1      27.347   1.665  52.753  1.00  0.00    -0.360 OA
HETATM   21  H1  UNL     1      27.568   2.588  53.051  1.00  0.00     0.217 HD
ENDBRANCH  15  20
ENDBRANCH  13  14
ENDBRANCH  11  13
ENDBRANCH   1  11
BRANCH   8  22
HETATM   22  N4  UNL     1      24.072   4.527  52.215  1.00  0.00    -0.342 N 
HETATM   23  H12 UNL     1      24.558   5.121  52.889  1.00  0.00     0.167 HD
BRANCH  22  24
HETATM   24  C14 UNL     1      24.820   4.562  51.006  1.00  0.00     0.036 A 
HETATM   25  C15 UNL     1      24.821   5.745  50.389  1.00  0.00     0.056 A 
HETATM   26 CL1  UNL     1      23.938   7.085  51.101  1.00  0.00    -0.082 Cl
HETATM   27  C16 UNL     1      25.599   5.747  49.148  1.00  0.00     0.022 A 
HETATM   28  C17 UNL     1      26.059   4.510  49.057  1.00  0.00    -0.019 A 
HETATM   29  C18 UNL     1      25.640   3.641  50.175  1.00  0.00     0.086 A 
ENDBRANCH  22  24
ENDBRANCH   8  22
TORSDOF 6
ENDMDL
MODEL 8
REMARK VINA RESULT:      -8.2      2.940      5.259
REMARK  6 active torsions:
REMARK  status: ('A' for Active; 'I' for Inactive)
REMARK    1  A    between atoms: O1_1  and  C1_2 
REMARK    2  A    between atoms: C6_7  and  C7_8 
REMARK    3  A    between atoms: C7_8  and  N1_9 
REMARK    4  A    between atoms: N1_9  and  C8_10 
REMARK    5  A    between atoms: C13_17  and  N4_18 
REMARK    6  A    between atoms: N4_18  and  C14_19 
ROOT
HETATM    1  C8  UNL     1      26.446   3.900  49.943  1.00  0.00     0.029 A 
HETATM    2  C9  UNL     1      27.313   4.393  48.991  1.00  0.00     0.031 A 
HETATM    3  C10 UNL     1      27.320   5.673  48.484  1.00  0.00     0.035 A 
HETATM    4  C11 UNL     1      26.378   6.557  48.964  1.00  0.00     0.072 A 
HETATM    5  N2  UNL     1      26.347   7.818  48.500  1.00  0.00    -0.241 NA
HETATM    6  C12 UNL     1      25.404   8.669  48.994  1.00  0.00     0.236 A 
HETATM    7  N3  UNL     1      24.514   8.254  49.936  1.00  0.00    -0.224 NA
HETATM    8  C13 UNL     1      24.537   6.996  50.406  1.00  0.00     0.141 A 
HETATM    9  C19 UNL     1      25.484   6.120  49.918  1.00  0.00     0.041 A 
HETATM   10  C20 UNL     1      25.526   4.828  50.385  1.00  0.00     0.046 A 
ENDROOT
BRANCH   1  11
HETATM   11  N1  UNL     1      26.451   2.576  50.443  1.00  0.00    -0.386 N 
HETATM   12  H8  UNL     1      27.038   1.901  49.860  1.00  0.00     0.160 HD
BRANCH  11  13
HETATM   13  C7  UNL     1      25.809   2.005  51.586  1.00  0.00     0.161 C 
BRANCH  13  14
HETATM   14  C6  UNL     1      26.662   0.938  52.173  1.00  0.00    -0.007 A 
HETATM   15  C1  UNL     1      27.784   1.540  52.761  1.00  0.00     0.073 A 
HETATM   16  C2  UNL     1      28.761   0.750  53.379  1.00  0.00     0.037 A 
HETATM   17  C3  UNL     1      28.661  -0.625  53.435  1.00  0.00     0.003 A 
HETATM   18  C4  UNL     1      27.543  -1.190  52.846  1.00  0.00     0.001 A 
HETATM   19  C5  UNL     1      26.581  -0.433  52.237  1.00  0.00     0.011 A 
BRANCH  15  20
HETATM   20  O1  UNL     1      28.099   2.885  52.830  1.00  0.00    -0.360 OA
HETATM   21  H1  UNL     1      28.042   3.547  52.089  1.00  0.00     0.217 HD
ENDBRANCH  15  20
ENDBRANCH  13  14
ENDBRANCH  11  13
ENDBRANCH   1  11
BRANCH   8  22
HETATM   22  N4  UNL     1      23.585   6.656  51.375  1.00  0.00    -0.342 N 
HETATM   23  H12 UNL     1      23.590   6.656  52.396  1.00  0.00     0.167 HD
BRANCH  22  24
HETATM   24  C14 UNL     1      22.303   6.200  50.959  1.00  0.00     0.036 A 
HETATM   25  C15 UNL     1      21.907   5.062  51.530  1.00  0.00     0.056 A 
HETATM   26 CL1  UNL     1      22.962   4.271  52.690  1.00  0.00    -0.082 Cl
HETATM   27  C16 UNL     1      20.585   4.620  51.080  1.00  0.00     0.022 A 
HETATM   28  C17 UNL     1      20.215   5.550  50.215  1.00  0.00    -0.019 A 
HETATM   29  C18 UNL     1      21.215   6.623  50.038  1.00  0.00     0.086 A 
ENDBRANCH  22  24
ENDBRANCH   8  22
TORSDOF 6
ENDMDL
MODEL 9
REMARK VINA RESULT:      -8.2      2.280      4.639
REMARK  6 active torsions:
REMARK  status: ('A' for Active; 'I' for Inactive)
REMARK    1  A    between atoms: O1_1  and  C1_2 
REMARK    2  A    between atoms: C6_7  and  C7_8 
REMARK    3  A    between atoms: C7_8  and  N1_9 
REMARK    4  A    between atoms: N1_9  and  C8_10 
REMARK    5  A    between atoms: C13_17  and  N4_18 
REMARK    6  A    between atoms: N4_18  and  C14_19 
ROOT
HETATM    1  C8  UNL     1      25.962   2.871  51.480  1.00  0.00     0.029 A 
HETATM    2  C9  UNL     1      26.284   3.260  50.197  1.00  0.00     0.031 A 
HETATM    3  C10 UNL     1      25.393   3.562  49.192  1.00  0.00     0.035 A 
HETATM    4  C11 UNL     1      24.048   3.472  49.480  1.00  0.00     0.072 A 
HETATM    5  N2  UNL     1      23.141   3.759  48.531  1.00  0.00    -0.241 NA
HETATM    6  C12 UNL     1      21.818   3.663  48.846  1.00  0.00     0.236 A 
HETATM    7  N3  UNL     1      21.423   3.285  50.092  1.00  0.00    -0.224 NA
HETATM    8  C13 UNL     1      22.323   2.997  51.048  1.00  0.00     0.141 A 
HETATM    9  C19 UNL     1      23.665   3.089  50.747  1.00  0.00     0.041 A 
HETATM   10  C20 UNL     1      24.603   2.799  51.709  1.00  0.00     0.046 A 
ENDROOT
BRANCH   1  11
HETATM   11  N1  UNL     1      26.896   2.556  52.496  1.00  0.00    -0.386 N 
HETATM   12  H8  UNL     1      27.847   3.022  52.361  1.00  0.00     0.160 HD
BRANCH  11  13
HETATM   13  C7  UNL     1      26.773   1.729  53.656  1.00  0.00     0.161 C 
BRANCH  13  14
HETATM   14  C6  UNL     1      27.649   0.535  53.529  1.00  0.00    -0.007 A 
HETATM   15  C1  UNL     1      28.953   0.900  53.891  1.00  0.00     0.073 A 
HETATM   16  C2  UNL     1      29.984  -0.047  53.847  1.00  0.00     0.037 A 
HETATM   17  C3  UNL     1      29.764  -1.350  53.453  1.00  0.00     0.003 A 
HETATM   18  C4  UNL     1      28.466  -1.681  53.101  1.00  0.00     0.001 A 
HETATM   19  C5  UNL     1      27.448  -0.768  53.138  1.00  0.00     0.011 A 
BRANCH  15  20
HETATM   20  O1  UNL     1      29.413   2.134  54.315  1.00  0.00    -0.360 OA
HETATM   21  H1  UNL     1      29.275   2.542  55.212  1.00  0.00     0.217 HD
ENDBRANCH  15  20
ENDBRANCH  13  14
ENDBRANCH  11  13
ENDBRANCH   1  11
BRANCH   8  22
HETATM   22  N4  UNL     1      21.827   2.618  52.301  1.00  0.00    -0.342 N 
HETATM   23  H12 UNL     1      22.029   2.917  53.257  1.00  0.00     0.167 HD
BRANCH  22  24
HETATM   24  C14 UNL     1      20.826   1.611  52.377  1.00  0.00     0.036 A 
HETATM   25  C15 UNL     1      21.217   0.485  52.976  1.00  0.00     0.056 A 
HETATM   26 CL1  UNL     1      22.859   0.362  53.585  1.00  0.00    -0.082 Cl
HETATM   27  C16 UNL     1      20.164  -0.532  53.037  1.00  0.00     0.022 A 
HETATM   28  C17 UNL     1      19.130   0.044  52.446  1.00  0.00    -0.019 A 
HETATM   29  C18 UNL     1      19.408   1.416  51.974  1.00  0.00     0.086 A 
ENDBRANCH  22  24
ENDBRANCH   8  22
TORSDOF 6
ENDMDL
