MODEL 1
REMARK VINA RESULT:      -9.4      0.000      0.000
REMARK  4 active torsions:
REMARK  status: ('A' for Active; 'I' for Inactive)
REMARK    1  A    between atoms: C6_7  and  C7_8 
REMARK    2  A    between atoms: C11_12  and  C12_13 
REMARK    3  A    between atoms: N1_22  and  O1_23 
REMARK    4  A    between atoms: C20_26  and  N3_27 
ROOT
HETATM    1  C7  UNL     1      24.093   3.031  50.068  1.00  0.00     0.167 A 
HETATM    2  C8  UNL     1      25.546   3.162  49.786  1.00  0.00     0.002 A 
HETATM    3  C9  UNL     1      26.405   2.417  50.512  1.00  0.00    -0.018 A 
HETATM    4  C10 UNL     1      25.822   1.512  51.547  1.00  0.00     0.051 A 
HETATM    5  C11 UNL     1      26.469   0.738  52.348  1.00  0.00    -0.037 A 
HETATM    6  C18 UNL     1      25.157   0.285  52.869  1.00  0.00     0.192 A 
HETATM    7  N1  UNL     1      24.048   0.925  52.238  1.00  0.00    -0.251 N 
HETATM    8  C19 UNL     1      22.940   1.537  51.636  1.00  0.00     0.228 A 
HETATM    9  N2  UNL     1      23.881   2.057  51.079  1.00  0.00    -0.269 NA
ENDROOT
BRANCH   1  10
HETATM   10  C6  UNL     1      23.424   4.328  50.338  1.00  0.00    -0.003 A 
HETATM   11  C5  UNL     1      24.101   5.330  51.021  1.00  0.00     0.015 A 
HETATM   12  C4  UNL     1      23.405   6.512  51.248  1.00  0.00     0.043 A 
HETATM   13  C3  UNL     1      22.087   6.702  50.814  1.00  0.00     0.124 A 
HETATM   14  C2  UNL     1      21.465   5.678  50.142  1.00  0.00     0.003 A 
HETATM   15  F1  UNL     1      21.474   7.883  51.073  1.00  0.00    -0.205 F 
HETATM   16  C1  UNL     1      20.041   5.875  49.674  1.00  0.00     0.054 C 
HETATM   17  C20 UNL     1      22.128   4.481  49.897  1.00  0.00     0.043 A 
BRANCH  17  18
HETATM   18  N3  UNL     1      21.363   3.516  49.191  1.00  0.00    -0.398 N 
HETATM   19  H17 UNL     1      20.425   3.039  49.252  1.00  0.00     0.156 HD
HETATM   20  H18 UNL     1      21.451   2.911  48.328  1.00  0.00     0.156 HD
ENDBRANCH  17  18
ENDBRANCH   1  10
BRANCH   7  21
HETATM   21  O1  UNL     1      22.963   0.358  52.895  1.00  0.00    -0.286 OA
HETATM   22  H15 UNL     1      23.223  -0.615  53.008  1.00  0.00     0.244 HD
ENDBRANCH   7  21
BRANCH   5  23
HETATM   23  C12 UNL     1      27.703   0.147  52.911  1.00  0.00     0.012 A 
HETATM   24  C13 UNL     1      28.667   0.937  53.452  1.00  0.00     0.046 A 
HETATM   25 CL1  UNL     1      28.591   2.657  53.616  1.00  0.00    -0.083 Cl
HETATM   26  C14 UNL     1      29.817   0.355  53.916  1.00  0.00     0.025 A 
HETATM   27  C15 UNL     1      29.979  -1.001  53.828  1.00  0.00     0.003 A 
HETATM   28  C16 UNL     1      29.003  -1.837  53.273  1.00  0.00     0.025 A 
HETATM   29  C17 UNL     1      27.872  -1.211  52.825  1.00  0.00     0.046 A 
HETATM   30 CL2  UNL     1      26.807  -2.413  52.165  1.00  0.00    -0.083 Cl
ENDBRANCH   5  23
TORSDOF 4
ENDMDL
MODEL 2
REMARK VINA RESULT:      -9.3      3.921      5.444
REMARK  4 active torsions:
REMARK  status: ('A' for Active; 'I' for Inactive)
REMARK    1  A    between atoms: C6_7  and  C7_8 
REMARK    2  A    between atoms: C11_12  and  C12_13 
REMARK    3  A    between atoms: N1_22  and  O1_23 
REMARK    4  A    between atoms: C20_26  and  N3_27 
ROOT
HETATM    1  C7  UNL     1      24.342   4.890  49.355  1.00  0.00     0.167 A 
HETATM    2  C8  UNL     1      23.987   3.519  48.903  1.00  0.00     0.002 A 
HETATM    3  C9  UNL     1      23.587   2.627  49.833  1.00  0.00    -0.018 A 
HETATM    4  C10 UNL     1      23.530   3.093  51.250  1.00  0.00     0.051 A 
HETATM    5  C11 UNL     1      23.192   2.394  52.279  1.00  0.00    -0.037 A 
HETATM    6  C18 UNL     1      23.383   3.619  53.093  1.00  0.00     0.192 A 
HETATM    7  N1  UNL     1      23.801   4.748  52.326  1.00  0.00    -0.251 N 
HETATM    8  C19 UNL     1      24.213   5.873  51.599  1.00  0.00     0.228 A 
HETATM    9  N2  UNL     1      24.137   5.008  50.754  1.00  0.00    -0.269 NA
ENDROOT
BRANCH   1  10
HETATM   10  C6  UNL     1      25.688   5.329  48.908  1.00  0.00    -0.003 A 
HETATM   11  C5  UNL     1      26.781   4.487  49.068  1.00  0.00     0.015 A 
HETATM   12  C4  UNL     1      28.011   4.973  48.637  1.00  0.00     0.043 A 
HETATM   13  C3  UNL     1      28.159   6.244  48.068  1.00  0.00     0.124 A 
HETATM   14  C2  UNL     1      27.044   7.035  47.933  1.00  0.00     0.003 A 
HETATM   15  F1  UNL     1      29.391   6.648  47.673  1.00  0.00    -0.205 F 
HETATM   16  C1  UNL     1      27.197   8.409  47.322  1.00  0.00     0.054 C 
HETATM   17  C20 UNL     1      25.797   6.584  48.352  1.00  0.00     0.043 A 
BRANCH  17  18
HETATM   18  N3  UNL     1      24.737   7.506  48.148  1.00  0.00    -0.398 N 
HETATM   19  H17 UNL     1      24.368   8.148  47.398  1.00  0.00     0.156 HD
HETATM   20  H18 UNL     1      23.910   7.893  48.681  1.00  0.00     0.156 HD
ENDBRANCH  17  18
ENDBRANCH   1  10
BRANCH   7  21
HETATM   21  O1  UNL     1      23.924   5.737  53.295  1.00  0.00    -0.286 OA
HETATM   22  H15 UNL     1      23.395   6.515  52.920  1.00  0.00     0.244 HD
ENDBRANCH   7  21
BRANCH   5  23
HETATM   23  C12 UNL     1      22.749   1.153  52.950  1.00  0.00     0.012 A 
HETATM   24  C13 UNL     1      21.432   0.935  53.205  1.00  0.00     0.046 A 
HETATM   25 CL1  UNL     1      20.129   1.982  52.764  1.00  0.00    -0.083 Cl
HETATM   26  C14 UNL     1      21.067  -0.204  53.874  1.00  0.00     0.025 A 
HETATM   27  C15 UNL     1      22.024  -1.096  54.274  1.00  0.00     0.003 A 
HETATM   28  C16 UNL     1      23.387  -0.895  54.025  1.00  0.00     0.025 A 
HETATM   29  C17 UNL     1      23.702   0.255  53.353  1.00  0.00     0.046 A 
HETATM   30 CL2  UNL     1      25.427   0.321  53.163  1.00  0.00    -0.083 Cl
ENDBRANCH   5  23
TORSDOF 4
ENDMDL
MODEL 3
REMARK VINA RESULT:      -9.2      2.990      4.653
REMARK  4 active torsions:
REMARK  status: ('A' for Active; 'I' for Inactive)
REMARK    1  A    between atoms: C6_7  and  C7_8 
REMARK    2  A    between atoms: C11_12  and  C12_13 
REMARK    3  A    between atoms: N1_22  and  O1_23 
REMARK    4  A    between atoms: C20_26  and  N3_27 
ROOT
HETATM    1  C7  UNL     1      22.293   0.929  53.389  1.00  0.00     0.167 A 
HETATM    2  C8  UNL     1      22.866  -0.334  53.923  1.00  0.00     0.002 A 
HETATM    3  C9  UNL     1      24.202  -0.508  53.850  1.00  0.00    -0.018 A 
HETATM    4  C10 UNL     1      25.003   0.591  53.236  1.00  0.00     0.051 A 
HETATM    5  C11 UNL     1      26.280   0.610  53.061  1.00  0.00    -0.037 A 
HETATM    6  C18 UNL     1      26.119   1.975  52.503  1.00  0.00     0.192 A 
HETATM    7  N1  UNL     1      24.763   2.420  52.482  1.00  0.00    -0.251 N 
HETATM    8  C19 UNL     1      23.441   2.883  52.449  1.00  0.00     0.228 A 
HETATM    9  N2  UNL     1      23.334   1.771  52.917  1.00  0.00    -0.269 NA
ENDROOT
BRANCH   1  10
HETATM   10  C6  UNL     1      21.204   0.714  52.403  1.00  0.00    -0.003 A 
HETATM   11  C5  UNL     1      21.386   1.083  51.077  1.00  0.00     0.015 A 
HETATM   12  C4  UNL     1      20.316   0.862  50.215  1.00  0.00     0.043 A 
HETATM   13  C3  UNL     1      19.110   0.296  50.646  1.00  0.00     0.124 A 
HETATM   14  C2  UNL     1      18.985  -0.051  51.969  1.00  0.00     0.003 A 
HETATM   15  F1  UNL     1      18.112   0.112  49.747  1.00  0.00    -0.205 F 
HETATM   16  C1  UNL     1      17.684  -0.660  52.442  1.00  0.00     0.054 C 
HETATM   17  C20 UNL     1      20.032   0.154  52.861  1.00  0.00     0.043 A 
BRANCH  17  18
HETATM   18  N3  UNL     1      19.762  -0.254  54.194  1.00  0.00    -0.398 N 
HETATM   19  H17 UNL     1      20.065  -0.025  55.177  1.00  0.00     0.156 HD
HETATM   20  H18 UNL     1      19.145  -0.946  54.701  1.00  0.00     0.156 HD
ENDBRANCH  17  18
ENDBRANCH   1  10
BRANCH   7  21
HETATM   21  O1  UNL     1      24.873   3.684  51.915  1.00  0.00    -0.286 OA
HETATM   22  H15 UNL     1      24.083   4.193  52.292  1.00  0.00     0.244 HD
ENDBRANCH   7  21
BRANCH   5  23
HETATM   23  C12 UNL     1      27.638   0.031  53.148  1.00  0.00     0.012 A 
HETATM   24  C13 UNL     1      27.849  -1.286  52.883  1.00  0.00     0.046 A 
HETATM   25 CL1  UNL     1      26.647  -2.420  52.374  1.00  0.00    -0.083 Cl
HETATM   26  C14 UNL     1      29.113  -1.795  53.025  1.00  0.00     0.025 A 
HETATM   27  C15 UNL     1      30.135  -0.981  53.430  1.00  0.00     0.003 A 
HETATM   28  C16 UNL     1      29.945   0.377  53.711  1.00  0.00     0.025 A 
HETATM   29  C17 UNL     1      28.666   0.840  53.554  1.00  0.00     0.046 A 
HETATM   30 CL2  UNL     1      28.642   2.527  53.966  1.00  0.00    -0.083 Cl
ENDBRANCH   5  23
TORSDOF 4
ENDMDL
MODEL 4
REMARK VINA RESULT:      -9.2      4.003      5.556
REMARK  4 active torsions:
REMARK  status: ('A' for Active; 'I' for Inactive)
REMARK    1  A    between atoms: C6_7  and  C7_8 
REMARK    2  A    between atoms: C11_12  and  C12_13 
REMARK    3  A    between atoms: N1_22  and  O1_23 
REMARK    4  A    between atoms: C20_26  and  N3_27 
ROOT
HETATM    1  C7  UNL     1      24.346   5.010  49.318  1.00  0.00     0.167 A 
HETATM    2  C8  UNL     1      23.948   3.663  48.832  1.00  0.00     0.002 A 
HETATM    3  C9  UNL     1      23.521   2.759  49.738  1.00  0.00    -0.018 A 
HETATM    4  C10 UNL     1      23.481   3.190  51.167  1.00  0.00     0.051 A 
HETATM    5  C11 UNL     1      23.123   2.476  52.178  1.00  0.00    -0.037 A 
HETATM    6  C18 UNL     1      23.352   3.672  53.024  1.00  0.00     0.192 A 
HETATM    7  N1  UNL     1      23.805   4.807  52.286  1.00  0.00    -0.251 N 
HETATM    8  C19 UNL     1      24.251   5.937  51.587  1.00  0.00     0.228 A 
HETATM    9  N2  UNL     1      24.146   5.097  50.720  1.00  0.00    -0.269 NA
ENDROOT
BRANCH   1  10
HETATM   10  C6  UNL     1      25.704   5.419  48.880  1.00  0.00    -0.003 A 
HETATM   11  C5  UNL     1      26.773   4.544  49.027  1.00  0.00     0.015 A 
HETATM   12  C4  UNL     1      28.017   5.003  48.606  1.00  0.00     0.043 A 
HETATM   13  C3  UNL     1      28.201   6.278  48.057  1.00  0.00     0.124 A 
HETATM   14  C2  UNL     1      27.109   7.102  47.934  1.00  0.00     0.003 A 
HETATM   15  F1  UNL     1      29.444   6.653  47.670  1.00  0.00    -0.205 F 
HETATM   16  C1  UNL     1      27.300   8.480  47.345  1.00  0.00     0.054 C 
HETATM   17  C20 UNL     1      25.849   6.679  48.344  1.00  0.00     0.043 A 
BRANCH  17  18
HETATM   18  N3  UNL     1      24.815   7.633  48.154  1.00  0.00    -0.398 N 
HETATM   19  H17 UNL     1      23.764   7.696  48.215  1.00  0.00     0.156 HD
HETATM   20  H18 UNL     1      24.715   8.650  47.881  1.00  0.00     0.156 HD
ENDBRANCH  17  18
ENDBRANCH   1  10
BRANCH   7  21
HETATM   21  O1  UNL     1      23.960   5.766  53.279  1.00  0.00    -0.286 OA
HETATM   22  H15 UNL     1      23.135   5.658  53.857  1.00  0.00     0.244 HD
ENDBRANCH   7  21
BRANCH   5  23
HETATM   23  C12 UNL     1      22.642   1.232  52.818  1.00  0.00     0.012 A 
HETATM   24  C13 UNL     1      23.514   0.245  53.157  1.00  0.00     0.046 A 
HETATM   25 CL1  UNL     1      25.231   0.301  52.963  1.00  0.00    -0.083 Cl
HETATM   26  C14 UNL     1      23.023  -0.913  53.701  1.00  0.00     0.025 A 
HETATM   27  C15 UNL     1      21.676  -1.060  53.891  1.00  0.00     0.003 A 
HETATM   28  C16 UNL     1      20.758  -0.061  53.549  1.00  0.00     0.025 A 
HETATM   29  C17 UNL     1      21.294   1.077  53.011  1.00  0.00     0.046 A 
HETATM   30 CL2  UNL     1      19.997   2.172  52.644  1.00  0.00    -0.083 Cl
ENDBRANCH   5  23
TORSDOF 4
ENDMDL
MODEL 5
REMARK VINA RESULT:      -9.0      2.295      3.160
REMARK  4 active torsions:
REMARK  status: ('A' for Active; 'I' for Inactive)
REMARK    1  A    between atoms: C6_7  and  C7_8 
REMARK    2  A    between atoms: C11_12  and  C12_13 
REMARK    3  A    between atoms: N1_22  and  O1_23 
REMARK    4  A    between atoms: C20_26  and  N3_27 
ROOT
HETATM    1  C7  UNL     1      22.899   2.412  52.243  1.00  0.00     0.167 A 
HETATM    2  C8  UNL     1      23.037   1.198  53.089  1.00  0.00     0.002 A 
HETATM    3  C9  UNL     1      24.271   0.680  53.262  1.00  0.00    -0.018 A 
HETATM    4  C10 UNL     1      25.407   1.375  52.587  1.00  0.00     0.051 A 
HETATM    5  C11 UNL     1      26.648   1.031  52.616  1.00  0.00    -0.037 A 
HETATM    6  C18 UNL     1      26.934   2.231  51.794  1.00  0.00     0.192 A 
HETATM    7  N1  UNL     1      25.767   2.988  51.475  1.00  0.00    -0.251 N 
HETATM    8  C19 UNL     1      24.638   3.752  51.147  1.00  0.00     0.228 A 
HETATM    9  N2  UNL     1      24.177   2.836  51.792  1.00  0.00    -0.269 NA
ENDROOT
BRANCH   1  10
HETATM   10  C6  UNL     1      21.899   2.264  51.155  1.00  0.00    -0.003 A 
HETATM   11  C5  UNL     1      21.830   1.081  50.432  1.00  0.00     0.015 A 
HETATM   12  C4  UNL     1      20.877   1.022  49.421  1.00  0.00     0.043 A 
HETATM   13  C3  UNL     1      20.021   2.092  49.133  1.00  0.00     0.124 A 
HETATM   14  C2  UNL     1      20.132   3.239  49.881  1.00  0.00     0.003 A 
HETATM   15  F1  UNL     1      19.117   1.959  48.132  1.00  0.00    -0.205 F 
HETATM   16  C1  UNL     1      19.213   4.399  49.573  1.00  0.00     0.054 C 
HETATM   17  C20 UNL     1      21.073   3.336  50.900  1.00  0.00     0.043 A 
BRANCH  17  18
HETATM   18  N3  UNL     1      21.072   4.578  51.588  1.00  0.00    -0.398 N 
HETATM   19  H17 UNL     1      21.157   5.607  51.380  1.00  0.00     0.156 HD
HETATM   20  H18 UNL     1      20.981   4.935  52.579  1.00  0.00     0.156 HD
ENDBRANCH  17  18
ENDBRANCH   1  10
BRANCH   7  21
HETATM   21  O1  UNL     1      26.284   4.024  50.705  1.00  0.00    -0.286 OA
HETATM   22  H15 UNL     1      27.281   3.851  50.698  1.00  0.00     0.244 HD
ENDBRANCH   7  21
BRANCH   5  23
HETATM   23  C12 UNL     1      27.773   0.162  53.024  1.00  0.00     0.012 A 
HETATM   24  C13 UNL     1      28.879   0.689  53.613  1.00  0.00     0.046 A 
HETATM   25 CL1  UNL     1      29.116   2.355  54.009  1.00  0.00    -0.083 Cl
HETATM   26  C14 UNL     1      29.921  -0.142  53.930  1.00  0.00     0.025 A 
HETATM   27  C15 UNL     1      29.835  -1.479  53.652  1.00  0.00     0.003 A 
HETATM   28  C16 UNL     1      28.709  -2.048  53.046  1.00  0.00     0.025 A 
HETATM   29  C17 UNL     1      27.694  -1.178  52.748  1.00  0.00     0.046 A 
HETATM   30 CL2  UNL     1      26.412  -2.073  51.994  1.00  0.00    -0.083 Cl
ENDBRANCH   5  23
TORSDOF 4
ENDMDL
MODEL 6
REMARK VINA RESULT:      -8.9      3.742      8.029
REMARK  4 active torsions:
REMARK  status: ('A' for Active; 'I' for Inactive)
REMARK    1  A    between atoms: C6_7  and  C7_8 
REMARK    2  A    between atoms: C11_12  and  C12_13 
REMARK    3  A    between atoms: N1_22  and  O1_23 
REMARK    4  A    between atoms: C20_26  and  N3_27 
ROOT
HETATM    1  C7  UNL     1      26.442   1.912  52.360  1.00  0.00     0.167 A 
HETATM    2  C8  UNL     1      26.956   2.599  51.146  1.00  0.00     0.002 A 
HETATM    3  C9  UNL     1      26.059   3.079  50.259  1.00  0.00    -0.018 A 
HETATM    4  C10 UNL     1      24.613   2.881  50.571  1.00  0.00     0.051 A 
HETATM    5  C11 UNL     1      23.610   3.248  49.850  1.00  0.00    -0.037 A 
HETATM    6  C18 UNL     1      22.729   2.712  50.915  1.00  0.00     0.192 A 
HETATM    7  N1  UNL     1      23.447   2.147  52.011  1.00  0.00    -0.251 N 
HETATM    8  C19 UNL     1      24.127   1.585  53.101  1.00  0.00     0.228 A 
HETATM    9  N2  UNL     1      25.023   1.935  52.366  1.00  0.00    -0.269 NA
ENDROOT
BRANCH   1  10
HETATM   10  C6  UNL     1      27.020   0.560  52.562  1.00  0.00    -0.003 A 
HETATM   11  C5  UNL     1      26.293  -0.567  52.198  1.00  0.00     0.015 A 
HETATM   12  C4  UNL     1      26.895  -1.799  52.430  1.00  0.00     0.043 A 
HETATM   13  C3  UNL     1      28.169  -1.917  53.000  1.00  0.00     0.124 A 
HETATM   14  C2  UNL     1      28.844  -0.770  53.340  1.00  0.00     0.003 A 
HETATM   15  F1  UNL     1      28.689  -3.154  53.195  1.00  0.00    -0.205 F 
HETATM   16  C1  UNL     1      30.217  -0.890  53.959  1.00  0.00     0.054 C 
HETATM   17  C20 UNL     1      28.275   0.480  53.124  1.00  0.00     0.043 A 
BRANCH  17  18
HETATM   18  N3  UNL     1      29.086   1.575  53.522  1.00  0.00    -0.398 N 
HETATM   19  H17 UNL     1      30.089   1.775  53.780  1.00  0.00     0.156 HD
HETATM   20  H18 UNL     1      28.985   2.611  53.706  1.00  0.00     0.156 HD
ENDBRANCH  17  18
ENDBRANCH   1  10
BRANCH   7  21
HETATM   21  O1  UNL     1      22.425   1.711  52.845  1.00  0.00    -0.286 OA
HETATM   22  H15 UNL     1      22.880   1.564  53.738  1.00  0.00     0.244 HD
ENDBRANCH   7  21
BRANCH   5  23
HETATM   23  C12 UNL     1      22.993   3.871  48.659  1.00  0.00     0.012 A 
HETATM   24  C13 UNL     1      22.288   3.122  47.771  1.00  0.00     0.046 A 
HETATM   25 CL1  UNL     1      21.966   1.428  47.907  1.00  0.00    -0.083 Cl
HETATM   26  C14 UNL     1      21.775   3.727  46.654  1.00  0.00     0.025 A 
HETATM   27  C15 UNL     1      21.979   5.065  46.449  1.00  0.00     0.003 A 
HETATM   28  C16 UNL     1      22.702   5.859  47.346  1.00  0.00     0.025 A 
HETATM   29  C17 UNL     1      23.194   5.210  48.447  1.00  0.00     0.046 A 
HETATM   30 CL2  UNL     1      24.066   6.359  49.414  1.00  0.00    -0.083 Cl
ENDBRANCH   5  23
TORSDOF 4
ENDMDL
MODEL 7
REMARK VINA RESULT:      -8.9      3.741      7.839
REMARK  4 active torsions:
REMARK  status: ('A' for Active; 'I' for Inactive)
REMARK    1  A    between atoms: C6_7  and  C7_8 
REMARK    2  A    between atoms: C11_12  and  C12_13 
REMARK    3  A    between atoms: N1_22  and  O1_23 
REMARK    4  A    between atoms: C20_26  and  N3_27 
ROOT
HETATM    1  C7  UNL     1      26.459   1.915  52.375  1.00  0.00     0.167 A 
HETATM    2  C8  UNL     1      26.990   2.609  51.172  1.00  0.00     0.002 A 
HETATM    3  C9  UNL     1      26.105   3.099  50.278  1.00  0.00    -0.018 A 
HETATM    4  C10 UNL     1      24.655   2.905  50.573  1.00  0.00     0.051 A 
HETATM    5  C11 UNL     1      23.662   3.282  49.843  1.00  0.00    -0.037 A 
HETATM    6  C18 UNL     1      22.766   2.743  50.895  1.00  0.00     0.192 A 
HETATM    7  N1  UNL     1      23.470   2.166  51.995  1.00  0.00    -0.251 N 
HETATM    8  C19 UNL     1      24.134   1.593  53.088  1.00  0.00     0.228 A 
HETATM    9  N2  UNL     1      25.040   1.945  52.365  1.00  0.00    -0.269 NA
ENDROOT
BRANCH   1  10
HETATM   10  C6  UNL     1      27.029   0.559  52.573  1.00  0.00    -0.003 A 
HETATM   11  C5  UNL     1      26.295  -0.562  52.207  1.00  0.00     0.015 A 
HETATM   12  C4  UNL     1      26.889  -1.799  52.435  1.00  0.00     0.043 A 
HETATM   13  C3  UNL     1      28.162  -1.927  53.004  1.00  0.00     0.124 A 
HETATM   14  C2  UNL     1      28.844  -0.785  53.347  1.00  0.00     0.003 A 
HETATM   15  F1  UNL     1      28.675  -3.167  53.196  1.00  0.00    -0.205 F 
HETATM   16  C1  UNL     1      30.218  -0.915  53.964  1.00  0.00     0.054 C 
HETATM   17  C20 UNL     1      28.283   0.470  53.134  1.00  0.00     0.043 A 
BRANCH  17  18
HETATM   18  N3  UNL     1      29.102   1.558  53.534  1.00  0.00    -0.398 N 
HETATM   19  H17 UNL     1      29.565   2.407  53.114  1.00  0.00     0.156 HD
HETATM   20  H18 UNL     1      29.554   1.928  54.415  1.00  0.00     0.156 HD
ENDBRANCH  17  18
ENDBRANCH   1  10
BRANCH   7  21
HETATM   21  O1  UNL     1      22.436   1.729  52.814  1.00  0.00    -0.286 OA
HETATM   22  H15 UNL     1      21.660   1.590  52.179  1.00  0.00     0.244 HD
ENDBRANCH   7  21
BRANCH   5  23
HETATM   23  C12 UNL     1      23.061   3.917  48.651  1.00  0.00     0.012 A 
HETATM   24  C13 UNL     1      23.206   5.250  48.427  1.00  0.00     0.046 A 
HETATM   25 CL1  UNL     1      24.111   6.348  49.409  1.00  0.00    -0.083 Cl
HETATM   26  C14 UNL     1      22.590   5.810  47.338  1.00  0.00     0.025 A 
HETATM   27  C15 UNL     1      21.844   5.027  46.500  1.00  0.00     0.003 A 
HETATM   28  C16 UNL     1      21.678   3.653  46.708  1.00  0.00     0.025 A 
HETATM   29  C17 UNL     1      22.311   3.140  47.807  1.00  0.00     0.046 A 
HETATM   30 CL2  UNL     1      21.966   1.440  47.892  1.00  0.00    -0.083 Cl
ENDBRANCH   5  23
TORSDOF 4
ENDMDL
MODEL 8
REMARK VINA RESULT:      -8.4      4.440      7.160
REMARK  4 active torsions:
REMARK  status: ('A' for Active; 'I' for Inactive)
REMARK    1  A    between atoms: C6_7  and  C7_8 
REMARK    2  A    between atoms: C11_12  and  C12_13 
REMARK    3  A    between atoms: N1_22  and  O1_23 
REMARK    4  A    between atoms: C20_26  and  N3_27 
ROOT
HETATM    1  C7  UNL     1      25.126   3.283  50.998  1.00  0.00     0.167 A 
HETATM    2  C8  UNL     1      26.119   2.975  49.936  1.00  0.00     0.002 A 
HETATM    3  C9  UNL     1      26.562   3.989  49.165  1.00  0.00    -0.018 A 
HETATM    4  C10 UNL     1      26.016   5.350  49.444  1.00  0.00     0.051 A 
HETATM    5  C11 UNL     1      26.299   6.439  48.814  1.00  0.00    -0.037 A 
HETATM    6  C18 UNL     1      25.403   7.144  49.763  1.00  0.00     0.192 A 
HETATM    7  N1  UNL     1      24.802   6.277  50.724  1.00  0.00    -0.251 N 
HETATM    8  C19 UNL     1      24.197   5.449  51.679  1.00  0.00     0.228 A 
HETATM    9  N2  UNL     1      24.855   4.676  51.019  1.00  0.00    -0.269 NA
ENDROOT
BRANCH   1  10
HETATM   10  C6  UNL     1      23.907   2.438  50.931  1.00  0.00    -0.003 A 
HETATM   11  C5  UNL     1      23.092   2.483  49.807  1.00  0.00     0.015 A 
HETATM   12  C4  UNL     1      21.962   1.673  49.823  1.00  0.00     0.043 A 
HETATM   13  C3  UNL     1      21.646   0.845  50.907  1.00  0.00     0.124 A 
HETATM   14  C2  UNL     1      22.488   0.839  51.993  1.00  0.00     0.003 A 
HETATM   15  F1  UNL     1      20.526   0.084  50.849  1.00  0.00    -0.205 F 
HETATM   16  C1  UNL     1      22.152  -0.050  53.169  1.00  0.00     0.054 C 
HETATM   17  C20 UNL     1      23.628   1.635  52.015  1.00  0.00     0.043 A 
BRANCH  17  18
HETATM   18  N3  UNL     1      24.404   1.524  53.198  1.00  0.00    -0.398 N 
HETATM   19  H17 UNL     1      24.396   1.001  54.113  1.00  0.00     0.156 HD
HETATM   20  H18 UNL     1      25.292   1.929  53.605  1.00  0.00     0.156 HD
ENDBRANCH  17  18
ENDBRANCH   1  10
BRANCH   7  21
HETATM   21  O1  UNL     1      24.017   7.152  51.465  1.00  0.00    -0.286 OA
HETATM   22  H15 UNL     1      24.682   7.804  51.863  1.00  0.00     0.244 HD
ENDBRANCH   7  21
BRANCH   5  23
HETATM   23  C12 UNL     1      26.994   7.224  47.772  1.00  0.00     0.012 A 
HETATM   24  C13 UNL     1      26.301   8.063  46.958  1.00  0.00     0.046 A 
HETATM   25 CL1  UNL     1      24.603   8.378  47.038  1.00  0.00    -0.083 Cl
HETATM   26  C14 UNL     1      26.974   8.734  45.970  1.00  0.00     0.025 A 
HETATM   27  C15 UNL     1      28.322   8.549  45.818  1.00  0.00     0.003 A 
HETATM   28  C16 UNL     1      29.059   7.690  46.641  1.00  0.00     0.025 A 
HETATM   29  C17 UNL     1      28.343   7.044  47.613  1.00  0.00     0.046 A 
HETATM   30 CL2  UNL     1      29.430   6.024  48.503  1.00  0.00    -0.083 Cl
ENDBRANCH   5  23
TORSDOF 4
ENDMDL
MODEL 9
REMARK VINA RESULT:      -8.4      3.845      7.042
REMARK  4 active torsions:
REMARK  status: ('A' for Active; 'I' for Inactive)
REMARK    1  A    between atoms: C6_7  and  C7_8 
REMARK    2  A    between atoms: C11_12  and  C12_13 
REMARK    3  A    between atoms: N1_22  and  O1_23 
REMARK    4  A    between atoms: C20_26  and  N3_27 
ROOT
HETATM    1  C7  UNL     1      21.496   2.370  52.119  1.00  0.00     0.167 A 
HETATM    2  C8  UNL     1      22.088   3.643  52.607  1.00  0.00     0.002 A 
HETATM    3  C9  UNL     1      22.847   4.361  51.753  1.00  0.00    -0.018 A 
HETATM    4  C10 UNL     1      23.030   3.815  50.376  1.00  0.00     0.051 A 
HETATM    5  C11 UNL     1      23.726   4.337  49.425  1.00  0.00    -0.037 A 
HETATM    6  C18 UNL     1      23.281   3.212  48.568  1.00  0.00     0.192 A 
HETATM    7  N1  UNL     1      22.428   2.289  49.244  1.00  0.00    -0.251 N 
HETATM    8  C19 UNL     1      21.588   1.366  49.883  1.00  0.00     0.228 A 
HETATM    9  N2  UNL     1      21.832   2.171  50.755  1.00  0.00    -0.269 NA
ENDROOT
BRANCH   1  10
HETATM   10  C6  UNL     1      21.801   1.205  52.988  1.00  0.00    -0.003 A 
HETATM   11  C5  UNL     1      20.791   0.612  53.734  1.00  0.00     0.015 A 
HETATM   12  C4  UNL     1      21.157  -0.466  54.533  1.00  0.00     0.043 A 
HETATM   13  C3  UNL     1      22.471  -0.944  54.593  1.00  0.00     0.124 A 
HETATM   14  C2  UNL     1      23.431  -0.320  53.834  1.00  0.00     0.003 A 
HETATM   15  F1  UNL     1      22.750  -2.000  55.396  1.00  0.00    -0.205 F 
HETATM   16  C1  UNL     1      24.853  -0.829  53.897  1.00  0.00     0.054 C 
HETATM   17  C20 UNL     1      23.104   0.761  53.022  1.00  0.00     0.043 A 
BRANCH  17  18
HETATM   18  N3  UNL     1      24.195   1.303  52.293  1.00  0.00    -0.398 N 
HETATM   19  H17 UNL     1      24.953   2.026  52.409  1.00  0.00     0.156 HD
HETATM   20  H18 UNL     1      24.660   1.178  51.352  1.00  0.00     0.156 HD
ENDBRANCH  17  18
ENDBRANCH   1  10
BRANCH   7  21
HETATM   21  O1  UNL     1      22.170   1.344  48.259  1.00  0.00    -0.286 OA
HETATM   22  H15 UNL     1      21.751   1.878  47.508  1.00  0.00     0.244 HD
ENDBRANCH   7  21
BRANCH   5  23
HETATM   23  C12 UNL     1      24.608   5.372  48.844  1.00  0.00     0.012 A 
HETATM   24  C13 UNL     1      25.959   5.268  48.944  1.00  0.00     0.046 A 
HETATM   25 CL1  UNL     1      26.821   3.958  49.673  1.00  0.00    -0.083 Cl
HETATM   26  C14 UNL     1      26.741   6.273  48.437  1.00  0.00     0.025 A 
HETATM   27  C15 UNL     1      26.155   7.358  47.845  1.00  0.00     0.003 A 
HETATM   28  C16 UNL     1      24.767   7.492  47.730  1.00  0.00     0.025 A 
HETATM   29  C17 UNL     1      24.029   6.463  48.249  1.00  0.00     0.046 A 
HETATM   30 CL2  UNL     1      22.346   6.828  48.022  1.00  0.00    -0.083 Cl
ENDBRANCH   5  23
TORSDOF 4
ENDMDL
