MODEL 1
REMARK VINA RESULT:      -6.7      0.000      0.000
REMARK  6 active torsions:
REMARK  status: ('A' for Active; 'I' for Inactive)
REMARK    1  A    between atoms: C2_2  and  C3_3 
REMARK       I    between atoms: C3_3  and  N1_5 
REMARK    2  A    between atoms: C5_7  and  C6_8 
REMARK    3  A    between atoms: C6_8  and  O2_9 
REMARK    4  A    between atoms: C7_10  and  C8_11 
REMARK    5  A    between atoms: C8_11  and  O3_12 
REMARK    6  A    between atoms: O3_12  and  C9_13 
ROOT
HETATM    1  C3  UNL     1      21.230   0.483  53.617  1.00  0.00     0.242 C 
HETATM    2  O1  UNL     1      20.076   0.515  53.119  1.00  0.00    -0.268 OA
HETATM    3  N1  UNL     1      22.130   1.276  52.865  1.00  0.00    -0.348 N 
HETATM    4  C4  UNL     1      21.784   2.019  51.701  1.00  0.00     0.133 C 
HETATM    5  C5  UNL     1      22.940   1.838  50.706  1.00  0.00     0.035 C 
HETATM    6  C7  UNL     1      24.079   1.522  51.555  1.00  0.00     0.036 C 
HETATM    7  C13 UNL     1      23.564   1.599  52.980  1.00  0.00     0.133 C 
ENDROOT
BRANCH   6   8
HETATM    8  C8  UNL     1      25.361   2.215  51.436  1.00  0.00     0.184 C 
BRANCH   8   9
HETATM    9  O3  UNL     1      26.510   1.402  51.499  1.00  0.00    -0.333 OA
BRANCH   9  10
HETATM   10  C9  UNL     1      27.360   1.436  52.568  1.00  0.00     0.189 A 
HETATM   11  N2  UNL     1      28.262   2.389  52.912  1.00  0.00    -0.216 NA
HETATM   12  C10 UNL     1      29.017   2.257  54.002  1.00  0.00     0.235 A 
HETATM   13  N3  UNL     1      28.939   1.179  54.834  1.00  0.00    -0.252 NA
HETATM   14  C11 UNL     1      28.054   0.207  54.529  1.00  0.00     0.146 A 
HETATM   15  C12 UNL     1      27.253   0.320  53.395  1.00  0.00     0.104 A 
HETATM   16 CL1  UNL     1      26.161  -1.022  53.142  1.00  0.00    -0.078 Cl
ENDBRANCH   9  10
ENDBRANCH   8   9
ENDBRANCH   6   8
BRANCH   5  17
HETATM   17  C6  UNL     1      22.935   3.013  49.828  1.00  0.00     0.170 C 
BRANCH  17  18
HETATM   18  O2  UNL     1      22.479   4.129  50.514  1.00  0.00    -0.400 OA
HETATM   19  H9  UNL     1      22.863   4.902  50.001  1.00  0.00     0.209 HD
ENDBRANCH  17  18
ENDBRANCH   5  17
BRANCH   1  20
HETATM   20  C2  UNL     1      21.496  -0.301  54.809  1.00  0.00     0.064 C 
HETATM   21  C1  UNL     1      22.269  -1.369  54.784  1.00  0.00     0.017 C 
ENDBRANCH   1  20
TORSDOF 6
ENDMDL
MODEL 2
REMARK VINA RESULT:      -6.6      2.952      4.829
REMARK  6 active torsions:
REMARK  status: ('A' for Active; 'I' for Inactive)
REMARK    1  A    between atoms: C2_2  and  C3_3 
REMARK       I    between atoms: C3_3  and  N1_5 
REMARK    2  A    between atoms: C5_7  and  C6_8 
REMARK    3  A    between atoms: C6_8  and  O2_9 
REMARK    4  A    between atoms: C7_10  and  C8_11 
REMARK    5  A    between atoms: C8_11  and  O3_12 
REMARK    6  A    between atoms: O3_12  and  C9_13 
ROOT
HETATM    1  C3  UNL     1      22.856  -0.979  54.642  1.00  0.00     0.242 C 
HETATM    2  O1  UNL     1      23.021  -1.635  55.701  1.00  0.00    -0.268 OA
HETATM    3  N1  UNL     1      24.093  -0.518  54.131  1.00  0.00    -0.348 N 
HETATM    4  C4  UNL     1      25.362  -0.762  54.728  1.00  0.00     0.133 C 
HETATM    5  C5  UNL     1      26.157   0.548  54.618  1.00  0.00     0.035 C 
HETATM    6  C7  UNL     1      25.547   1.227  53.486  1.00  0.00     0.036 C 
HETATM    7  C13 UNL     1      24.493   0.275  52.954  1.00  0.00     0.133 C 
ENDROOT
BRANCH   6   8
HETATM    8  C8  UNL     1      26.337   1.783  52.388  1.00  0.00     0.184 C 
BRANCH   8   9
HETATM    9  O3  UNL     1      25.623   2.109  51.217  1.00  0.00    -0.333 OA
BRANCH   9  10
HETATM   10  C9  UNL     1      25.914   3.222  50.481  1.00  0.00     0.189 A 
HETATM   11  N2  UNL     1      26.922   3.420  49.596  1.00  0.00    -0.216 NA
HETATM   12  C10 UNL     1      27.058   4.584  48.960  1.00  0.00     0.235 A 
HETATM   13  N3  UNL     1      26.212   5.637  49.150  1.00  0.00    -0.252 NA
HETATM   14  C11 UNL     1      25.195   5.482  50.023  1.00  0.00     0.146 A 
HETATM   15  C12 UNL     1      25.031   4.277  50.700  1.00  0.00     0.104 A 
HETATM   16 CL1  UNL     1      23.666   4.239  51.794  1.00  0.00    -0.078 Cl
ENDBRANCH   9  10
ENDBRANCH   8   9
ENDBRANCH   6   8
BRANCH   5  17
HETATM   17  C6  UNL     1      27.579   0.185  54.626  1.00  0.00     0.170 C 
BRANCH  17  18
HETATM   18  O2  UNL     1      27.771  -1.038  54.000  1.00  0.00    -0.400 OA
HETATM   19  H9  UNL     1      28.069  -1.645  54.741  1.00  0.00     0.209 HD
ENDBRANCH  17  18
ENDBRANCH   5  17
BRANCH   1  20
HETATM   20  C2  UNL     1      21.524  -0.778  54.099  1.00  0.00     0.064 C 
HETATM   21  C1  UNL     1      20.830   0.317  54.342  1.00  0.00     0.017 C 
ENDBRANCH   1  20
TORSDOF 6
ENDMDL
MODEL 3
REMARK VINA RESULT:      -6.6      2.992      4.942
REMARK  6 active torsions:
REMARK  status: ('A' for Active; 'I' for Inactive)
REMARK    1  A    between atoms: C2_2  and  C3_3 
REMARK       I    between atoms: C3_3  and  N1_5 
REMARK    2  A    between atoms: C5_7  and  C6_8 
REMARK    3  A    between atoms: C6_8  and  O2_9 
REMARK    4  A    between atoms: C7_10  and  C8_11 
REMARK    5  A    between atoms: C8_11  and  O3_12 
REMARK    6  A    between atoms: O3_12  and  C9_13 
ROOT
HETATM    1  C3  UNL     1      22.773  -1.015  54.686  1.00  0.00     0.242 C 
HETATM    2  O1  UNL     1      23.001  -1.690  55.722  1.00  0.00    -0.268 OA
HETATM    3  N1  UNL     1      23.979  -0.555  54.104  1.00  0.00    -0.348 N 
HETATM    4  C4  UNL     1      25.282  -0.819  54.613  1.00  0.00     0.133 C 
HETATM    5  C5  UNL     1      26.080   0.486  54.473  1.00  0.00     0.035 C 
HETATM    6  C7  UNL     1      25.404   1.189  53.393  1.00  0.00     0.036 C 
HETATM    7  C13 UNL     1      24.308   0.254  52.916  1.00  0.00     0.133 C 
ENDROOT
BRANCH   6   8
HETATM    8  C8  UNL     1      26.125   1.756  52.255  1.00  0.00     0.184 C 
BRANCH   8   9
HETATM    9  O3  UNL     1      25.328   2.240  51.198  1.00  0.00    -0.333 OA
BRANCH   9  10
HETATM   10  C9  UNL     1      24.876   3.528  51.167  1.00  0.00     0.189 A 
HETATM   11  N2  UNL     1      23.882   4.102  51.890  1.00  0.00    -0.216 NA
HETATM   12  C10 UNL     1      23.571   5.388  51.728  1.00  0.00     0.235 A 
HETATM   13  N3  UNL     1      24.215   6.202  50.844  1.00  0.00    -0.252 NA
HETATM   14  C11 UNL     1      25.210   5.672  50.103  1.00  0.00     0.146 A 
HETATM   15  C12 UNL     1      25.555   4.331  50.253  1.00  0.00     0.104 A 
HETATM   16 CL1  UNL     1      26.864   3.799  49.221  1.00  0.00    -0.078 Cl
ENDBRANCH   9  10
ENDBRANCH   8   9
ENDBRANCH   6   8
BRANCH   5  17
HETATM   17  C6  UNL     1      27.496   0.113  54.382  1.00  0.00     0.170 C 
BRANCH  17  18
HETATM   18  O2  UNL     1      28.290   1.067  55.001  1.00  0.00    -0.400 OA
HETATM   19  H9  UNL     1      28.453   1.749  54.282  1.00  0.00     0.209 HD
ENDBRANCH  17  18
ENDBRANCH   5  17
BRANCH   1  20
HETATM   20  C2  UNL     1      21.412  -0.795  54.234  1.00  0.00     0.064 C 
HETATM   21  C1  UNL     1      20.769   0.331  54.477  1.00  0.00     0.017 C 
ENDBRANCH   1  20
TORSDOF 6
ENDMDL
MODEL 4
REMARK VINA RESULT:      -6.5      1.966      3.576
REMARK  6 active torsions:
REMARK  status: ('A' for Active; 'I' for Inactive)
REMARK    1  A    between atoms: C2_2  and  C3_3 
REMARK       I    between atoms: C3_3  and  N1_5 
REMARK    2  A    between atoms: C5_7  and  C6_8 
REMARK    3  A    between atoms: C6_8  and  O2_9 
REMARK    4  A    between atoms: C7_10  and  C8_11 
REMARK    5  A    between atoms: C8_11  and  O3_12 
REMARK    6  A    between atoms: O3_12  and  C9_13 
ROOT
HETATM    1  C3  UNL     1      20.922   3.195  52.215  1.00  0.00     0.242 C 
HETATM    2  O1  UNL     1      19.753   3.087  52.663  1.00  0.00    -0.268 OA
HETATM    3  N1  UNL     1      21.641   1.986  52.372  1.00  0.00    -0.348 N 
HETATM    4  C4  UNL     1      21.118   0.798  52.957  1.00  0.00     0.133 C 
HETATM    5  C5  UNL     1      22.233   0.216  53.839  1.00  0.00     0.035 C 
HETATM    6  C7  UNL     1      23.452   0.751  53.252  1.00  0.00     0.036 C 
HETATM    7  C13 UNL     1      23.009   1.548  52.039  1.00  0.00     0.133 C 
ENDROOT
BRANCH   6   8
HETATM    8  C8  UNL     1      24.598  -0.094  52.919  1.00  0.00     0.184 C 
BRANCH   8   9
HETATM    9  O3  UNL     1      25.387  -0.520  54.006  1.00  0.00    -0.333 OA
BRANCH   9  10
HETATM   10  C9  UNL     1      26.722  -0.240  54.081  1.00  0.00     0.189 A 
HETATM   11  N2  UNL     1      27.354   0.726  54.792  1.00  0.00    -0.216 NA
HETATM   12  C10 UNL     1      28.680   0.857  54.746  1.00  0.00     0.235 A 
HETATM   13  N3  UNL     1      29.480   0.046  53.996  1.00  0.00    -0.252 NA
HETATM   14  C11 UNL     1      28.892  -0.929  53.272  1.00  0.00     0.146 A 
HETATM   15  C12 UNL     1      27.509  -1.087  53.303  1.00  0.00     0.104 A 
HETATM   16 CL1  UNL     1      26.905  -2.394  52.310  1.00  0.00    -0.078 Cl
ENDBRANCH   9  10
ENDBRANCH   8   9
ENDBRANCH   6   8
BRANCH   5  17
HETATM   17  C6  UNL     1      21.992  -1.228  53.934  1.00  0.00     0.170 C 
BRANCH  17  18
HETATM   18  O2  UNL     1      21.189  -1.515  55.028  1.00  0.00    -0.400 OA
HETATM   19  H9  UNL     1      20.329  -1.035  54.830  1.00  0.00     0.209 HD
ENDBRANCH  17  18
ENDBRANCH   5  17
BRANCH   1  20
HETATM   20  C2  UNL     1      21.375   4.445  51.632  1.00  0.00     0.064 C 
HETATM   21  C1  UNL     1      22.415   5.101  52.109  1.00  0.00     0.017 C 
ENDBRANCH   1  20
TORSDOF 6
ENDMDL
MODEL 5
REMARK VINA RESULT:      -6.4      3.598      6.038
REMARK  6 active torsions:
REMARK  status: ('A' for Active; 'I' for Inactive)
REMARK    1  A    between atoms: C2_2  and  C3_3 
REMARK       I    between atoms: C3_3  and  N1_5 
REMARK    2  A    between atoms: C5_7  and  C6_8 
REMARK    3  A    between atoms: C6_8  and  O2_9 
REMARK    4  A    between atoms: C7_10  and  C8_11 
REMARK    5  A    between atoms: C8_11  and  O3_12 
REMARK    6  A    between atoms: O3_12  and  C9_13 
ROOT
HETATM    1  C3  UNL     1      28.170   0.200  54.169  1.00  0.00     0.242 C 
HETATM    2  O1  UNL     1      27.712  -0.074  55.307  1.00  0.00    -0.268 OA
HETATM    3  N1  UNL     1      27.292   1.055  53.460  1.00  0.00    -0.348 N 
HETATM    4  C4  UNL     1      26.053   1.548  53.962  1.00  0.00     0.133 C 
HETATM    5  C5  UNL     1      25.051   1.479  52.800  1.00  0.00     0.035 C 
HETATM    6  C7  UNL     1      25.894   1.521  51.615  1.00  0.00     0.036 C 
HETATM    7  C13 UNL     1      27.314   1.680  52.125  1.00  0.00     0.133 C 
ENDROOT
BRANCH   6   8
HETATM    8  C8  UNL     1      25.643   2.442  50.507  1.00  0.00     0.184 C 
BRANCH   8   9
HETATM    9  O3  UNL     1      26.209   3.726  50.629  1.00  0.00    -0.333 OA
BRANCH   9  10
HETATM   10  C9  UNL     1      25.574   4.842  50.163  1.00  0.00     0.189 A 
HETATM   11  N2  UNL     1      24.381   5.366  50.540  1.00  0.00    -0.216 NA
HETATM   12  C10 UNL     1      23.908   6.474  49.970  1.00  0.00     0.235 A 
HETATM   13  N3  UNL     1      24.574   7.147  48.989  1.00  0.00    -0.252 NA
HETATM   14  C11 UNL     1      25.765   6.660  48.583  1.00  0.00     0.146 A 
HETATM   15  C12 UNL     1      26.282   5.504  49.162  1.00  0.00     0.104 A 
HETATM   16 CL1  UNL     1      27.833   5.005  48.526  1.00  0.00    -0.078 Cl
ENDBRANCH   9  10
ENDBRANCH   8   9
ENDBRANCH   6   8
BRANCH   5  17
HETATM   17  C6  UNL     1      24.029   2.500  53.057  1.00  0.00     0.170 C 
BRANCH  17  18
HETATM   18  O2  UNL     1      24.624   3.708  53.387  1.00  0.00    -0.400 OA
HETATM   19  H9  UNL     1      23.848   4.326  53.542  1.00  0.00     0.209 HD
ENDBRANCH  17  18
ENDBRANCH   5  17
BRANCH   1  20
HETATM   20  C2  UNL     1      29.443  -0.345  53.736  1.00  0.00     0.064 C 
HETATM   21  C1  UNL     1      29.576  -1.606  53.375  1.00  0.00     0.017 C 
ENDBRANCH   1  20
TORSDOF 6
ENDMDL
MODEL 6
REMARK VINA RESULT:      -6.3      2.050      2.333
REMARK  6 active torsions:
REMARK  status: ('A' for Active; 'I' for Inactive)
REMARK    1  A    between atoms: C2_2  and  C3_3 
REMARK       I    between atoms: C3_3  and  N1_5 
REMARK    2  A    between atoms: C5_7  and  C6_8 
REMARK    3  A    between atoms: C6_8  and  O2_9 
REMARK    4  A    between atoms: C7_10  and  C8_11 
REMARK    5  A    between atoms: C8_11  and  O3_12 
REMARK    6  A    between atoms: O3_12  and  C9_13 
ROOT
HETATM    1  C3  UNL     1      21.305   0.621  53.606  1.00  0.00     0.242 C 
HETATM    2  O1  UNL     1      20.312   1.208  53.106  1.00  0.00    -0.268 OA
HETATM    3  N1  UNL     1      22.517   1.177  53.132  1.00  0.00    -0.348 N 
HETATM    4  C4  UNL     1      22.612   2.260  52.212  1.00  0.00     0.133 C 
HETATM    5  C5  UNL     1      23.747   1.910  51.238  1.00  0.00     0.035 C 
HETATM    6  C7  UNL     1      24.579   0.989  51.996  1.00  0.00     0.036 C 
HETATM    7  C13 UNL     1      23.945   0.896  53.371  1.00  0.00     0.133 C 
ENDROOT
BRANCH   6   8
HETATM    8  C8  UNL     1      26.027   1.153  52.110  1.00  0.00     0.184 C 
BRANCH   8   9
HETATM    9  O3  UNL     1      26.619   0.630  53.277  1.00  0.00    -0.333 OA
BRANCH   9  10
HETATM   10  C9  UNL     1      27.409  -0.484  53.248  1.00  0.00     0.189 A 
HETATM   11  N2  UNL     1      27.092  -1.747  52.870  1.00  0.00    -0.216 NA
HETATM   12  C10 UNL     1      28.000  -2.722  52.906  1.00  0.00     0.235 A 
HETATM   13  N3  UNL     1      29.285  -2.525  53.315  1.00  0.00    -0.252 NA
HETATM   14  C11 UNL     1      29.644  -1.283  53.700  1.00  0.00     0.146 A 
HETATM   15  C12 UNL     1      28.715  -0.246  53.673  1.00  0.00     0.104 A 
HETATM   16 CL1  UNL     1      29.338   1.300  54.202  1.00  0.00    -0.078 Cl
ENDBRANCH   9  10
ENDBRANCH   8   9
ENDBRANCH   6   8
BRANCH   5  17
HETATM   17  C6  UNL     1      24.273   3.180  50.724  1.00  0.00     0.170 C 
BRANCH  17  18
HETATM   18  O2  UNL     1      24.083   3.263  49.352  1.00  0.00    -0.400 OA
HETATM   19  H9  UNL     1      23.141   2.943  49.218  1.00  0.00     0.209 HD
ENDBRANCH  17  18
ENDBRANCH   5  17
BRANCH   1  20
HETATM   20  C2  UNL     1      21.119  -0.476  54.539  1.00  0.00     0.064 C 
HETATM   21  C1  UNL     1      21.545  -1.696  54.275  1.00  0.00     0.017 C 
ENDBRANCH   1  20
TORSDOF 6
ENDMDL
MODEL 7
REMARK VINA RESULT:      -6.3      2.802      6.054
REMARK  6 active torsions:
REMARK  status: ('A' for Active; 'I' for Inactive)
REMARK    1  A    between atoms: C2_2  and  C3_3 
REMARK       I    between atoms: C3_3  and  N1_5 
REMARK    2  A    between atoms: C5_7  and  C6_8 
REMARK    3  A    between atoms: C6_8  and  O2_9 
REMARK    4  A    between atoms: C7_10  and  C8_11 
REMARK    5  A    between atoms: C8_11  and  O3_12 
REMARK    6  A    between atoms: O3_12  and  C9_13 
ROOT
HETATM    1  C3  UNL     1      27.601   0.359  54.142  1.00  0.00     0.242 C 
HETATM    2  O1  UNL     1      27.975  -0.565  54.907  1.00  0.00    -0.268 OA
HETATM    3  N1  UNL     1      26.188   0.449  54.106  1.00  0.00    -0.348 N 
HETATM    4  C4  UNL     1      25.300  -0.389  54.838  1.00  0.00     0.133 C 
HETATM    5  C5  UNL     1      24.138  -0.728  53.893  1.00  0.00     0.035 C 
HETATM    6  C7  UNL     1      24.136   0.372  52.941  1.00  0.00     0.036 C 
HETATM    7  C13 UNL     1      25.227   1.319  53.404  1.00  0.00     0.133 C 
ENDROOT
BRANCH   6   8
HETATM    8  C8  UNL     1      22.922   1.115  52.606  1.00  0.00     0.184 C 
BRANCH   8   9
HETATM    9  O3  UNL     1      22.957   1.844  51.400  1.00  0.00    -0.333 OA
BRANCH   9  10
HETATM   10  C9  UNL     1      22.858   3.206  51.378  1.00  0.00     0.189 A 
HETATM   11  N2  UNL     1      21.843   3.996  51.807  1.00  0.00    -0.216 NA
HETATM   12  C10 UNL     1      21.917   5.323  51.707  1.00  0.00     0.235 A 
HETATM   13  N3  UNL     1      22.995   5.969  51.179  1.00  0.00    -0.252 NA
HETATM   14  C11 UNL     1      24.029   5.221  50.740  1.00  0.00     0.146 A 
HETATM   15  C12 UNL     1      23.977   3.833  50.832  1.00  0.00     0.104 A 
HETATM   16 CL1  UNL     1      25.394   3.011  50.220  1.00  0.00    -0.078 Cl
ENDBRANCH   9  10
ENDBRANCH   8   9
ENDBRANCH   6   8
BRANCH   5  17
HETATM   17  C6  UNL     1      22.974  -1.022  54.736  1.00  0.00     0.170 C 
BRANCH  17  18
HETATM   18  O2  UNL     1      23.365  -1.693  55.885  1.00  0.00    -0.400 OA
HETATM   19  H9  UNL     1      23.175  -2.657  55.679  1.00  0.00     0.209 HD
ENDBRANCH  17  18
ENDBRANCH   5  17
BRANCH   1  20
HETATM   20  C2  UNL     1      28.575   1.169  53.433  1.00  0.00     0.064 C 
HETATM   21  C1  UNL     1      28.716   2.458  53.671  1.00  0.00     0.017 C 
ENDBRANCH   1  20
TORSDOF 6
ENDMDL
MODEL 8
REMARK VINA RESULT:      -6.2      2.210      6.411
REMARK  6 active torsions:
REMARK  status: ('A' for Active; 'I' for Inactive)
REMARK    1  A    between atoms: C2_2  and  C3_3 
REMARK       I    between atoms: C3_3  and  N1_5 
REMARK    2  A    between atoms: C5_7  and  C6_8 
REMARK    3  A    between atoms: C6_8  and  O2_9 
REMARK    4  A    between atoms: C7_10  and  C8_11 
REMARK    5  A    between atoms: C8_11  and  O3_12 
REMARK    6  A    between atoms: O3_12  and  C9_13 
ROOT
HETATM    1  C3  UNL     1      28.284   1.490  53.375  1.00  0.00     0.242 C 
HETATM    2  O1  UNL     1      28.790   2.564  52.963  1.00  0.00    -0.268 OA
HETATM    3  N1  UNL     1      26.955   1.342  52.909  1.00  0.00    -0.348 N 
HETATM    4  C4  UNL     1      26.273   2.279  52.081  1.00  0.00     0.133 C 
HETATM    5  C5  UNL     1      24.838   2.375  52.618  1.00  0.00     0.035 C 
HETATM    6  C7  UNL     1      24.638   1.104  53.297  1.00  0.00     0.036 C 
HETATM    7  C13 UNL     1      25.913   0.313  53.073  1.00  0.00     0.133 C 
ENDROOT
BRANCH   6   8
HETATM    8  C8  UNL     1      23.465   0.264  53.059  1.00  0.00     0.184 C 
BRANCH   8   9
HETATM    9  O3  UNL     1      22.299   0.617  53.767  1.00  0.00    -0.333 OA
BRANCH   9  10
HETATM   10  C9  UNL     1      21.090   0.750  53.145  1.00  0.00     0.189 A 
HETATM   11  N2  UNL     1      20.614   1.791  52.417  1.00  0.00    -0.216 NA
HETATM   12  C10 UNL     1      19.397   1.750  51.876  1.00  0.00     0.235 A 
HETATM   13  N3  UNL     1      18.560   0.682  52.012  1.00  0.00    -0.252 NA
HETATM   14  C11 UNL     1      18.993  -0.375  52.729  1.00  0.00     0.146 A 
HETATM   15  C12 UNL     1      20.261  -0.358  53.305  1.00  0.00     0.104 A 
HETATM   16 CL1  UNL     1      20.670  -1.804  54.200  1.00  0.00    -0.078 Cl
ENDBRANCH   9  10
ENDBRANCH   8   9
ENDBRANCH   6   8
BRANCH   5  17
HETATM   17  C6  UNL     1      23.990   2.791  51.495  1.00  0.00     0.170 C 
BRANCH  17  18
HETATM   18  O2  UNL     1      22.948   3.589  51.944  1.00  0.00    -0.400 OA
HETATM   19  H9  UNL     1      22.542   3.059  52.694  1.00  0.00     0.209 HD
ENDBRANCH  17  18
ENDBRANCH   5  17
BRANCH   1  20
HETATM   20  C2  UNL     1      29.051   0.588  54.216  1.00  0.00     0.064 C 
HETATM   21  C1  UNL     1      29.348  -0.639  53.835  1.00  0.00     0.017 C 
ENDBRANCH   1  20
TORSDOF 6
ENDMDL
MODEL 9
REMARK VINA RESULT:      -6.1      2.545      5.955
REMARK  6 active torsions:
REMARK  status: ('A' for Active; 'I' for Inactive)
REMARK    1  A    between atoms: C2_2  and  C3_3 
REMARK       I    between atoms: C3_3  and  N1_5 
REMARK    2  A    between atoms: C5_7  and  C6_8 
REMARK    3  A    between atoms: C6_8  and  O2_9 
REMARK    4  A    between atoms: C7_10  and  C8_11 
REMARK    5  A    between atoms: C8_11  and  O3_12 
REMARK    6  A    between atoms: O3_12  and  C9_13 
ROOT
HETATM    1  C3  UNL     1      27.620  -0.620  53.520  1.00  0.00     0.242 C 
HETATM    2  O1  UNL     1      27.366  -1.844  53.393  1.00  0.00    -0.268 OA
HETATM    3  N1  UNL     1      26.429   0.141  53.600  1.00  0.00    -0.348 N 
HETATM    4  C4  UNL     1      25.112  -0.399  53.549  1.00  0.00     0.133 C 
HETATM    5  C5  UNL     1      24.281   0.553  52.676  1.00  0.00     0.035 C 
HETATM    6  C7  UNL     1      24.985   1.822  52.785  1.00  0.00     0.036 C 
HETATM    7  C13 UNL     1      26.130   1.577  53.750  1.00  0.00     0.133 C 
ENDROOT
BRANCH   6   8
HETATM    8  C8  UNL     1      24.300   3.072  53.111  1.00  0.00     0.184 C 
BRANCH   8   9
HETATM    9  O3  UNL     1      24.056   3.943  52.029  1.00  0.00    -0.333 OA
BRANCH   9  10
HETATM   10  C9  UNL     1      23.168   3.631  51.039  1.00  0.00     0.189 A 
HETATM   11  N2  UNL     1      21.822   3.486  51.113  1.00  0.00    -0.216 NA
HETATM   12  C10 UNL     1      21.105   3.175  50.033  1.00  0.00     0.235 A 
HETATM   13  N3  UNL     1      21.661   2.985  48.802  1.00  0.00    -0.252 NA
HETATM   14  C11 UNL     1      22.998   3.120  48.683  1.00  0.00     0.146 A 
HETATM   15  C12 UNL     1      23.770   3.444  49.796  1.00  0.00     0.104 A 
HETATM   16 CL1  UNL     1      25.484   3.581  49.475  1.00  0.00    -0.078 Cl
ENDBRANCH   9  10
ENDBRANCH   8   9
ENDBRANCH   6   8
BRANCH   5  17
HETATM   17  C6  UNL     1      22.883   0.407  53.098  1.00  0.00     0.170 C 
BRANCH  17  18
HETATM   18  O2  UNL     1      22.041   0.418  51.996  1.00  0.00    -0.400 OA
HETATM   19  H9  UNL     1      22.396   1.166  51.427  1.00  0.00     0.209 HD
ENDBRANCH  17  18
ENDBRANCH   5  17
BRANCH   1  20
HETATM   20  C2  UNL     1      28.994  -0.153  53.564  1.00  0.00     0.064 C 
HETATM   21  C1  UNL     1      30.011  -0.987  53.655  1.00  0.00     0.017 C 
ENDBRANCH   1  20
TORSDOF 6
ENDMDL
