MODEL 1
REMARK VINA RESULT:      -6.8      0.000      0.000
REMARK  7 active torsions:
REMARK  status: ('A' for Active; 'I' for Inactive)
REMARK    1  A    between atoms: C4_5  and  C5_6 
REMARK    2  A    between atoms: C5_6  and  C6_7 
REMARK    3  A    between atoms: C9_12  and  N3_13 
REMARK    4  A    between atoms: N3_13  and  C10_14 
REMARK    5  A    between atoms: C10_14  and  C11_15 
REMARK    6  A    between atoms: C11_15  and  C12_16 
REMARK    7  A    between atoms: C12_16  and  C13_17 
ROOT
HETATM    1  C6  UNL     1      26.810   1.007  53.089  1.00  0.00     0.028 A 
HETATM    2  C7  UNL     1      27.963   1.752  53.078  1.00  0.00     0.133 A 
HETATM    3  N1  UNL     1      28.976   1.373  53.874  1.00  0.00    -0.253 NA
HETATM    4  C8  UNL     1      28.834   0.269  54.666  1.00  0.00     0.234 A 
HETATM    5  N2  UNL     1      27.695  -0.440  54.654  1.00  0.00    -0.224 NA
HETATM    6  C9  UNL     1      26.634  -0.129  53.888  1.00  0.00     0.136 A 
ENDROOT
BRANCH   6   7
HETATM    7  N3  UNL     1      25.450  -0.882  53.893  1.00  0.00    -0.374 N 
HETATM    8  H5  UNL     1      25.255  -1.437  53.019  1.00  0.00     0.161 HD
BRANCH   7   9
HETATM    9  C10 UNL     1      24.519  -0.930  55.002  1.00  0.00     0.121 C 
BRANCH   9  10
HETATM   10  C11 UNL     1      23.076  -0.881  54.545  1.00  0.00     0.024 C 
BRANCH  10  11
HETATM   11  C12 UNL     1      22.917  -0.839  53.052  1.00  0.00     0.040 C 
BRANCH  11  12
HETATM   12  C13 UNL     1      21.850   0.094  52.606  1.00  0.00    -0.058 A 
HETATM   13  C14 UNL     1      21.063   1.029  53.103  1.00  0.00     0.007 A 
HETATM   14  C15 UNL     1      20.488   1.215  51.802  1.00  0.00     0.001 A 
HETATM   15  C16 UNL     1      21.269   0.272  51.261  1.00  0.00     0.007 A 
ENDBRANCH  11  12
ENDBRANCH  10  11
ENDBRANCH   9  10
ENDBRANCH   7   9
ENDBRANCH   6   7
BRANCH   1  16
HETATM   16  C5  UNL     1      25.716   1.416  52.259  1.00  0.00     0.028 C 
BRANCH  16  17
HETATM   17  C4  UNL     1      24.794   2.318  52.226  1.00  0.00    -0.038 C 
HETATM   18  C3  UNL     1      24.428   2.229  50.841  1.00  0.00     0.038 C 
HETATM   19  C2  UNL     1      23.556   3.074  50.273  1.00  0.00     0.018 C 
HETATM   20  C1  UNL     1      22.902   3.833  51.105  1.00  0.00    -0.002 C 
HETATM   21 BR1  UNL     1      21.401   4.845  50.452  1.00  0.00    -0.055 Br
HETATM   22  C18 UNL     1      23.203   3.999  52.527  1.00  0.00     0.016 C 
HETATM   23  C17 UNL     1      24.151   3.246  53.111  1.00  0.00     0.012 C 
ENDBRANCH  16  17
ENDBRANCH   1  16
TORSDOF 7
ENDMDL
MODEL 2
REMARK VINA RESULT:      -6.7      3.411      5.942
REMARK  7 active torsions:
REMARK  status: ('A' for Active; 'I' for Inactive)
REMARK    1  A    between atoms: C4_5  and  C5_6 
REMARK    2  A    between atoms: C5_6  and  C6_7 
REMARK    3  A    between atoms: C9_12  and  N3_13 
REMARK    4  A    between atoms: N3_13  and  C10_14 
REMARK    5  A    between atoms: C10_14  and  C11_15 
REMARK    6  A    between atoms: C11_15  and  C12_16 
REMARK    7  A    between atoms: C12_16  and  C13_17 
ROOT
HETATM    1  C6  UNL     1      23.014  -0.258  53.627  1.00  0.00     0.028 A 
HETATM    2  C7  UNL     1      22.909  -1.167  54.651  1.00  0.00     0.133 A 
HETATM    3  N1  UNL     1      21.689  -1.625  54.976  1.00  0.00    -0.253 NA
HETATM    4  C8  UNL     1      20.596  -1.178  54.287  1.00  0.00     0.234 A 
HETATM    5  N2  UNL     1      20.731  -0.290  53.291  1.00  0.00    -0.224 NA
HETATM    6  C9  UNL     1      21.915   0.218  52.902  1.00  0.00     0.136 A 
ENDROOT
BRANCH   6   7
HETATM    7  N3  UNL     1      22.033   1.149  51.859  1.00  0.00    -0.374 N 
HETATM    8  H5  UNL     1      22.532   0.809  50.995  1.00  0.00     0.161 HD
BRANCH   7   9
HETATM    9  C10 UNL     1      21.522   2.503  51.913  1.00  0.00     0.121 C 
BRANCH   9  10
HETATM   10  C11 UNL     1      22.510   3.514  51.369  1.00  0.00     0.024 C 
BRANCH  10  11
HETATM   11  C12 UNL     1      23.888   3.382  51.950  1.00  0.00     0.040 C 
BRANCH  11  12
HETATM   12  C13 UNL     1      24.946   3.247  50.915  1.00  0.00    -0.058 A 
HETATM   13  C14 UNL     1      25.121   3.464  49.625  1.00  0.00     0.007 A 
HETATM   14  C15 UNL     1      26.468   2.985  49.743  1.00  0.00     0.001 A 
HETATM   15  C16 UNL     1      26.329   2.751  51.054  1.00  0.00     0.007 A 
ENDBRANCH  11  12
ENDBRANCH  10  11
ENDBRANCH   9  10
ENDBRANCH   7   9
ENDBRANCH   6   7
BRANCH   1  16
HETATM   16  C5  UNL     1      24.309   0.252  53.287  1.00  0.00     0.028 C 
BRANCH  16  17
HETATM   17  C4  UNL     1      25.530   0.185  53.702  1.00  0.00    -0.038 C 
HETATM   18  C3  UNL     1      26.088  -0.626  52.657  1.00  0.00     0.038 C 
HETATM   19  C2  UNL     1      27.348  -1.081  52.698  1.00  0.00     0.018 C 
HETATM   20  C1  UNL     1      28.093  -0.559  53.630  1.00  0.00    -0.002 C 
HETATM   21 BR1  UNL     1      29.990  -0.878  53.587  1.00  0.00    -0.055 Br
HETATM   22  C18 UNL     1      27.619   0.270  54.738  1.00  0.00     0.016 C 
HETATM   23  C17 UNL     1      26.332   0.656  54.793  1.00  0.00     0.012 C 
ENDBRANCH  16  17
ENDBRANCH   1  16
TORSDOF 7
ENDMDL
MODEL 3
REMARK VINA RESULT:      -6.3      1.891      4.139
REMARK  7 active torsions:
REMARK  status: ('A' for Active; 'I' for Inactive)
REMARK    1  A    between atoms: C4_5  and  C5_6 
REMARK    2  A    between atoms: C5_6  and  C6_7 
REMARK    3  A    between atoms: C9_12  and  N3_13 
REMARK    4  A    between atoms: N3_13  and  C10_14 
REMARK    5  A    between atoms: C10_14  and  C11_15 
REMARK    6  A    between atoms: C11_15  and  C12_16 
REMARK    7  A    between atoms: C12_16  and  C13_17 
ROOT
HETATM    1  C6  UNL     1      25.404   0.591  53.055  1.00  0.00     0.028 A 
HETATM    2  C7  UNL     1      25.553  -0.679  53.555  1.00  0.00     0.133 A 
HETATM    3  N1  UNL     1      26.791  -1.194  53.630  1.00  0.00    -0.253 NA
HETATM    4  C8  UNL     1      27.858  -0.449  53.212  1.00  0.00     0.234 A 
HETATM    5  N2  UNL     1      27.679   0.790  52.730  1.00  0.00    -0.224 NA
HETATM    6  C9  UNL     1      26.475   1.380  52.620  1.00  0.00     0.136 A 
ENDROOT
BRANCH   6   7
HETATM    7  N3  UNL     1      26.310   2.677  52.109  1.00  0.00    -0.374 N 
HETATM    8  H5  UNL     1      26.009   3.409  52.805  1.00  0.00     0.161 HD
BRANCH   7   9
HETATM    9  C10 UNL     1      26.528   3.041  50.725  1.00  0.00     0.121 C 
BRANCH   9  10
HETATM   10  C11 UNL     1      25.232   3.312  49.990  1.00  0.00     0.024 C 
BRANCH  10  11
HETATM   11  C12 UNL     1      24.648   4.666  50.276  1.00  0.00     0.040 C 
BRANCH  11  12
HETATM   12  C13 UNL     1      23.499   4.618  51.217  1.00  0.00    -0.058 A 
HETATM   13  C14 UNL     1      23.263   4.659  52.514  1.00  0.00     0.007 A 
HETATM   14  C15 UNL     1      21.859   4.536  52.247  1.00  0.00     0.001 A 
HETATM   15  C16 UNL     1      22.058   4.491  50.924  1.00  0.00     0.007 A 
ENDBRANCH  11  12
ENDBRANCH  10  11
ENDBRANCH   9  10
ENDBRANCH   7   9
ENDBRANCH   6   7
BRANCH   1  16
HETATM   16  C5  UNL     1      24.085   1.141  52.952  1.00  0.00     0.028 C 
BRANCH  16  17
HETATM   17  C4  UNL     1      22.998   0.963  52.278  1.00  0.00    -0.038 C 
HETATM   18  C3  UNL     1      22.090   0.709  53.360  1.00  0.00     0.038 C 
HETATM   19  C2  UNL     1      20.816   0.344  53.157  1.00  0.00     0.018 C 
HETATM   20  C1  UNL     1      20.401   0.452  51.927  1.00  0.00    -0.002 C 
HETATM   21 BR1  UNL     1      18.519   0.277  51.567  1.00  0.00    -0.055 Br
HETATM   22  C18 UNL     1      21.246   0.699  50.759  1.00  0.00     0.016 C 
HETATM   23  C17 UNL     1      22.556   0.959  50.913  1.00  0.00     0.012 C 
ENDBRANCH  16  17
ENDBRANCH   1  16
TORSDOF 7
ENDMDL
MODEL 4
REMARK VINA RESULT:      -6.3      1.830      2.246
REMARK  7 active torsions:
REMARK  status: ('A' for Active; 'I' for Inactive)
REMARK    1  A    between atoms: C4_5  and  C5_6 
REMARK    2  A    between atoms: C5_6  and  C6_7 
REMARK    3  A    between atoms: C9_12  and  N3_13 
REMARK    4  A    between atoms: N3_13  and  C10_14 
REMARK    5  A    between atoms: C10_14  and  C11_15 
REMARK    6  A    between atoms: C11_15  and  C12_16 
REMARK    7  A    between atoms: C12_16  and  C13_17 
ROOT
HETATM    1  C6  UNL     1      25.305   1.192  53.458  1.00  0.00     0.028 A 
HETATM    2  C7  UNL     1      26.397   2.001  53.657  1.00  0.00     0.133 A 
HETATM    3  N1  UNL     1      27.434   1.513  54.356  1.00  0.00    -0.253 NA
HETATM    4  C8  UNL     1      27.376   0.239  54.847  1.00  0.00     0.234 A 
HETATM    5  N2  UNL     1      26.296  -0.528  54.635  1.00  0.00    -0.224 NA
HETATM    6  C9  UNL     1      25.216  -0.117  53.946  1.00  0.00     0.136 A 
ENDROOT
BRANCH   6   7
HETATM    7  N3  UNL     1      24.094  -0.934  53.739  1.00  0.00    -0.374 N 
HETATM    8  H5  UNL     1      24.093  -1.495  52.846  1.00  0.00     0.161 HD
BRANCH   7   9
HETATM    9  C10 UNL     1      22.980  -1.040  54.659  1.00  0.00     0.121 C 
BRANCH   9  10
HETATM   10  C11 UNL     1      21.675  -1.339  53.951  1.00  0.00     0.024 C 
BRANCH  10  11
HETATM   11  C12 UNL     1      20.688  -0.209  54.004  1.00  0.00     0.040 C 
BRANCH  11  12
HETATM   12  C13 UNL     1      19.452  -0.479  53.223  1.00  0.00    -0.058 A 
HETATM   13  C14 UNL     1      18.389  -1.260  53.267  1.00  0.00     0.007 A 
HETATM   14  C15 UNL     1      17.918  -0.658  52.052  1.00  0.00     0.001 A 
HETATM   15  C16 UNL     1      18.982   0.150  51.974  1.00  0.00     0.007 A 
ENDBRANCH  11  12
ENDBRANCH  10  11
ENDBRANCH   9  10
ENDBRANCH   7   9
ENDBRANCH   6   7
BRANCH   1  16
HETATM   16  C5  UNL     1      24.185   1.711  52.731  1.00  0.00     0.028 C 
BRANCH  16  17
HETATM   17  C4  UNL     1      23.894   2.129  51.544  1.00  0.00    -0.038 C 
HETATM   18  C3  UNL     1      22.703   1.362  51.311  1.00  0.00     0.038 C 
HETATM   19  C2  UNL     1      22.069   1.363  50.130  1.00  0.00     0.018 C 
HETATM   20  C1  UNL     1      22.475   2.270  49.287  1.00  0.00    -0.002 C 
HETATM   21 BR1  UNL     1      21.436   2.589  47.699  1.00  0.00    -0.055 Br
HETATM   22  C18 UNL     1      23.676   3.092  49.430  1.00  0.00     0.016 C 
HETATM   23  C17 UNL     1      24.405   3.037  50.558  1.00  0.00     0.012 C 
ENDBRANCH  16  17
ENDBRANCH   1  16
TORSDOF 7
ENDMDL
MODEL 5
REMARK VINA RESULT:      -6.2      4.060      6.943
REMARK  7 active torsions:
REMARK  status: ('A' for Active; 'I' for Inactive)
REMARK    1  A    between atoms: C4_5  and  C5_6 
REMARK    2  A    between atoms: C5_6  and  C6_7 
REMARK    3  A    between atoms: C9_12  and  N3_13 
REMARK    4  A    between atoms: N3_13  and  C10_14 
REMARK    5  A    between atoms: C10_14  and  C11_15 
REMARK    6  A    between atoms: C11_15  and  C12_16 
REMARK    7  A    between atoms: C12_16  and  C13_17 
ROOT
HETATM    1  C6  UNL     1      23.469   2.643  52.663  1.00  0.00     0.028 A 
HETATM    2  C7  UNL     1      22.537   1.643  52.796  1.00  0.00     0.133 A 
HETATM    3  N1  UNL     1      21.252   1.929  52.531  1.00  0.00    -0.253 NA
HETATM    4  C8  UNL     1      20.910   3.194  52.140  1.00  0.00     0.234 A 
HETATM    5  N2  UNL     1      21.844   4.148  52.018  1.00  0.00    -0.224 NA
HETATM    6  C9  UNL     1      23.151   3.947  52.264  1.00  0.00     0.136 A 
ENDROOT
BRANCH   6   7
HETATM    7  N3  UNL     1      24.112   4.961  52.134  1.00  0.00    -0.374 N 
HETATM    8  H5  UNL     1      24.528   5.316  53.034  1.00  0.00     0.161 HD
BRANCH   7   9
HETATM    9  C10 UNL     1      24.542   5.519  50.869  1.00  0.00     0.121 C 
BRANCH   9  10
HETATM   10  C11 UNL     1      24.773   4.454  49.818  1.00  0.00     0.024 C 
BRANCH  10  11
HETATM   11  C12 UNL     1      26.220   4.112  49.613  1.00  0.00     0.040 C 
BRANCH  11  12
HETATM   12  C13 UNL     1      26.973   5.172  48.893  1.00  0.00    -0.058 A 
HETATM   13  C14 UNL     1      26.774   6.374  48.385  1.00  0.00     0.007 A 
HETATM   14  C15 UNL     1      28.147   6.406  47.968  1.00  0.00     0.001 A 
HETATM   15  C16 UNL     1      28.387   5.189  48.470  1.00  0.00     0.007 A 
ENDBRANCH  11  12
ENDBRANCH  10  11
ENDBRANCH   9  10
ENDBRANCH   7   9
ENDBRANCH   6   7
BRANCH   1  16
HETATM   16  C5  UNL     1      24.839   2.353  52.964  1.00  0.00     0.028 C 
BRANCH  16  17
HETATM   17  C4  UNL     1      25.685   1.384  52.850  1.00  0.00    -0.038 C 
HETATM   18  C3  UNL     1      26.795   1.957  53.557  1.00  0.00     0.038 C 
HETATM   19  C2  UNL     1      27.993   1.358  53.618  1.00  0.00     0.018 C 
HETATM   20  C1  UNL     1      28.018   0.129  53.187  1.00  0.00    -0.002 C 
HETATM   21 BR1  UNL     1      29.582  -0.939  53.523  1.00  0.00    -0.055 Br
HETATM   22  C18 UNL     1      26.945  -0.539  52.450  1.00  0.00     0.016 C 
HETATM   23  C17 UNL     1      25.763   0.074  52.270  1.00  0.00     0.012 C 
ENDBRANCH  16  17
ENDBRANCH   1  16
TORSDOF 7
ENDMDL
MODEL 6
REMARK VINA RESULT:      -6.1      2.492      3.867
REMARK  7 active torsions:
REMARK  status: ('A' for Active; 'I' for Inactive)
REMARK    1  A    between atoms: C4_5  and  C5_6 
REMARK    2  A    between atoms: C5_6  and  C6_7 
REMARK    3  A    between atoms: C9_12  and  N3_13 
REMARK    4  A    between atoms: N3_13  and  C10_14 
REMARK    5  A    between atoms: C10_14  and  C11_15 
REMARK    6  A    between atoms: C11_15  and  C12_16 
REMARK    7  A    between atoms: C12_16  and  C13_17 
ROOT
HETATM    1  C6  UNL     1      24.561   3.074  51.250  1.00  0.00     0.028 A 
HETATM    2  C7  UNL     1      24.384   4.033  50.282  1.00  0.00     0.133 A 
HETATM    3  N1  UNL     1      25.430   4.357  49.506  1.00  0.00    -0.253 NA
HETATM    4  C8  UNL     1      26.631   3.732  49.697  1.00  0.00     0.234 A 
HETATM    5  N2  UNL     1      26.771   2.799  50.651  1.00  0.00    -0.224 NA
HETATM    6  C9  UNL     1      25.776   2.416  51.471  1.00  0.00     0.136 A 
ENDROOT
BRANCH   6   7
HETATM    7  N3  UNL     1      25.945   1.440  52.464  1.00  0.00    -0.374 N 
HETATM    8  H5  UNL     1      25.918   1.789  53.459  1.00  0.00     0.161 HD
BRANCH   7   9
HETATM    9  C10 UNL     1      26.147   0.031  52.198  1.00  0.00     0.121 C 
BRANCH   9  10
HETATM   10  C11 UNL     1      25.372  -0.852  53.154  1.00  0.00     0.024 C 
BRANCH  10  11
HETATM   11  C12 UNL     1      24.424  -0.096  54.040  1.00  0.00     0.040 C 
BRANCH  11  12
HETATM   12  C13 UNL     1      23.033  -0.616  53.982  1.00  0.00    -0.058 A 
HETATM   13  C14 UNL     1      22.351  -1.596  53.420  1.00  0.00     0.007 A 
HETATM   14  C15 UNL     1      21.160  -1.110  54.056  1.00  0.00     0.001 A 
HETATM   15  C16 UNL     1      21.817  -0.103  54.643  1.00  0.00     0.007 A 
ENDBRANCH  11  12
ENDBRANCH  10  11
ENDBRANCH   9  10
ENDBRANCH   7   9
ENDBRANCH   6   7
BRANCH   1  16
HETATM   16  C5  UNL     1      23.455   2.737  52.096  1.00  0.00     0.028 C 
BRANCH  16  17
HETATM   17  C4  UNL     1      22.190   2.494  52.008  1.00  0.00    -0.038 C 
HETATM   18  C3  UNL     1      22.236   1.304  51.206  1.00  0.00     0.038 C 
HETATM   19  C2  UNL     1      21.129   0.713  50.735  1.00  0.00     0.018 C 
HETATM   20  C1  UNL     1      20.011   1.158  51.235  1.00  0.00    -0.002 C 
HETATM   21 BR1  UNL     1      18.390   0.180  50.893  1.00  0.00    -0.055 Br
HETATM   22  C18 UNL     1      19.861   2.362  52.052  1.00  0.00     0.016 C 
HETATM   23  C17 UNL     1      20.944   3.049  52.453  1.00  0.00     0.012 C 
ENDBRANCH  16  17
ENDBRANCH   1  16
TORSDOF 7
ENDMDL
MODEL 7
REMARK VINA RESULT:      -5.9      3.387      5.248
REMARK  7 active torsions:
REMARK  status: ('A' for Active; 'I' for Inactive)
REMARK    1  A    between atoms: C4_5  and  C5_6 
REMARK    2  A    between atoms: C5_6  and  C6_7 
REMARK    3  A    between atoms: C9_12  and  N3_13 
REMARK    4  A    between atoms: N3_13  and  C10_14 
REMARK    5  A    between atoms: C10_14  and  C11_15 
REMARK    6  A    between atoms: C11_15  and  C12_16 
REMARK    7  A    between atoms: C12_16  and  C13_17 
ROOT
HETATM    1  C6  UNL     1      24.026   2.657  51.136  1.00  0.00     0.028 A 
HETATM    2  C7  UNL     1      24.682   3.809  50.776  1.00  0.00     0.133 A 
HETATM    3  N1  UNL     1      24.266   4.465  49.682  1.00  0.00    -0.253 NA
HETATM    4  C8  UNL     1      23.212   3.975  48.962  1.00  0.00     0.234 A 
HETATM    5  N2  UNL     1      22.591   2.848  49.340  1.00  0.00    -0.224 NA
HETATM    6  C9  UNL     1      22.944   2.130  50.421  1.00  0.00     0.136 A 
ENDROOT
BRANCH   6   7
HETATM    7  N3  UNL     1      22.283   0.951  50.797  1.00  0.00    -0.374 N 
HETATM    8  H5  UNL     1      22.894   0.188  51.189  1.00  0.00     0.161 HD
BRANCH   7   9
HETATM    9  C10 UNL     1      20.855   0.743  50.676  1.00  0.00     0.121 C 
BRANCH   9  10
HETATM   10  C11 UNL     1      20.183   0.564  52.022  1.00  0.00     0.024 C 
BRANCH  10  11
HETATM   11  C12 UNL     1      21.054   0.941  53.185  1.00  0.00     0.040 C 
BRANCH  11  12
HETATM   12  C13 UNL     1      21.623  -0.235  53.893  1.00  0.00    -0.058 A 
HETATM   13  C14 UNL     1      22.757  -0.621  54.445  1.00  0.00     0.007 A 
HETATM   14  C15 UNL     1      22.146  -1.873  54.787  1.00  0.00     0.001 A 
HETATM   15  C16 UNL     1      20.978  -1.518  54.237  1.00  0.00     0.007 A 
ENDBRANCH  11  12
ENDBRANCH  10  11
ENDBRANCH   9  10
ENDBRANCH   7   9
ENDBRANCH   6   7
BRANCH   1  16
HETATM   16  C5  UNL     1      24.477   1.939  52.291  1.00  0.00     0.028 C 
BRANCH  16  17
HETATM   17  C4  UNL     1      25.581   1.548  52.834  1.00  0.00    -0.038 C 
HETATM   18  C3  UNL     1      25.768   0.314  52.125  1.00  0.00     0.038 C 
HETATM   19  C2  UNL     1      26.753  -0.544  52.425  1.00  0.00     0.018 C 
HETATM   20  C1  UNL     1      27.654  -0.083  53.245  1.00  0.00    -0.002 C 
HETATM   21 BR1  UNL     1      29.278  -1.085  53.494  1.00  0.00    -0.055 Br
HETATM   22  C18 UNL     1      27.552   1.154  54.019  1.00  0.00     0.016 C 
HETATM   23  C17 UNL     1      26.517   1.989  53.827  1.00  0.00     0.012 C 
ENDBRANCH  16  17
ENDBRANCH   1  16
TORSDOF 7
ENDMDL
MODEL 8
REMARK VINA RESULT:      -5.8      2.669      4.191
REMARK  7 active torsions:
REMARK  status: ('A' for Active; 'I' for Inactive)
REMARK    1  A    between atoms: C4_5  and  C5_6 
REMARK    2  A    between atoms: C5_6  and  C6_7 
REMARK    3  A    between atoms: C9_12  and  N3_13 
REMARK    4  A    between atoms: N3_13  and  C10_14 
REMARK    5  A    between atoms: C10_14  and  C11_15 
REMARK    6  A    between atoms: C11_15  and  C12_16 
REMARK    7  A    between atoms: C12_16  and  C13_17 
ROOT
HETATM    1  C6  UNL     1      24.599   1.507  52.067  1.00  0.00     0.028 A 
HETATM    2  C7  UNL     1      25.805   0.903  52.323  1.00  0.00     0.133 A 
HETATM    3  N1  UNL     1      25.824  -0.165  53.138  1.00  0.00    -0.253 NA
HETATM    4  C8  UNL     1      24.656  -0.617  53.684  1.00  0.00     0.234 A 
HETATM    5  N2  UNL     1      23.493  -0.005  53.414  1.00  0.00    -0.224 NA
HETATM    6  C9  UNL     1      23.385   1.069  52.610  1.00  0.00     0.136 A 
ENDROOT
BRANCH   6   7
HETATM    7  N3  UNL     1      22.159   1.696  52.343  1.00  0.00    -0.374 N 
HETATM    8  H5  UNL     1      22.167   2.749  52.373  1.00  0.00     0.161 HD
BRANCH   7   9
HETATM    9  C10 UNL     1      20.931   0.990  52.039  1.00  0.00     0.121 C 
BRANCH   9  10
HETATM   10  C11 UNL     1      20.439   1.269  50.634  1.00  0.00     0.024 C 
BRANCH  10  11
HETATM   11  C12 UNL     1      21.392   0.825  49.563  1.00  0.00     0.040 C 
BRANCH  11  12
HETATM   12  C13 UNL     1      21.902   1.949  48.734  1.00  0.00    -0.058 A 
HETATM   13  C14 UNL     1      22.618   2.146  47.643  1.00  0.00     0.007 A 
HETATM   14  C15 UNL     1      22.457   3.561  47.813  1.00  0.00     0.001 A 
HETATM   15  C16 UNL     1      21.727   3.401  48.924  1.00  0.00     0.007 A 
ENDBRANCH  11  12
ENDBRANCH  10  11
ENDBRANCH   9  10
ENDBRANCH   7   9
ENDBRANCH   6   7
BRANCH   1  16
HETATM   16  C5  UNL     1      24.572   2.660  51.216  1.00  0.00     0.028 C 
BRANCH  16  17
HETATM   17  C4  UNL     1      25.362   3.328  50.445  1.00  0.00    -0.038 C 
HETATM   18  C3  UNL     1      24.717   4.609  50.501  1.00  0.00     0.038 C 
HETATM   19  C2  UNL     1      25.112   5.646  49.749  1.00  0.00     0.018 C 
HETATM   20  C1  UNL     1      26.249   5.479  49.134  1.00  0.00    -0.002 C 
HETATM   21 BR1  UNL     1      27.080   6.999  48.297  1.00  0.00    -0.055 Br
HETATM   22  C18 UNL     1      26.977   4.217  49.014  1.00  0.00     0.016 C 
HETATM   23  C17 UNL     1      26.549   3.122  49.665  1.00  0.00     0.012 C 
ENDBRANCH  16  17
ENDBRANCH   1  16
TORSDOF 7
ENDMDL
MODEL 9
REMARK VINA RESULT:      -5.6      2.208      5.339
REMARK  7 active torsions:
REMARK  status: ('A' for Active; 'I' for Inactive)
REMARK    1  A    between atoms: C4_5  and  C5_6 
REMARK    2  A    between atoms: C5_6  and  C6_7 
REMARK    3  A    between atoms: C9_12  and  N3_13 
REMARK    4  A    between atoms: N3_13  and  C10_14 
REMARK    5  A    between atoms: C10_14  and  C11_15 
REMARK    6  A    between atoms: C11_15  and  C12_16 
REMARK    7  A    between atoms: C12_16  and  C13_17 
ROOT
HETATM    1  C6  UNL     1      21.557   0.391  51.904  1.00  0.00     0.028 A 
HETATM    2  C7  UNL     1      20.218   0.691  51.842  1.00  0.00     0.133 A 
HETATM    3  N1  UNL     1      19.394   0.119  52.734  1.00  0.00    -0.253 NA
HETATM    4  C8  UNL     1      19.903  -0.738  53.669  1.00  0.00     0.234 A 
HETATM    5  N2  UNL     1      21.216  -1.011  53.704  1.00  0.00    -0.224 NA
HETATM    6  C9  UNL     1      22.109  -0.481  52.849  1.00  0.00     0.136 A 
ENDROOT
BRANCH   6   7
HETATM    7  N3  UNL     1      23.479  -0.783  52.901  1.00  0.00    -0.374 N 
HETATM    8  H5  UNL     1      23.851  -1.364  52.105  1.00  0.00     0.161 HD
BRANCH   7   9
HETATM    9  C10 UNL     1      24.370  -0.348  53.957  1.00  0.00     0.121 C 
BRANCH   9  10
HETATM   10  C11 UNL     1      25.784  -0.854  53.761  1.00  0.00     0.024 C 
BRANCH  10  11
HETATM   11  C12 UNL     1      26.512  -0.186  52.632  1.00  0.00     0.040 C 
BRANCH  11  12
HETATM   12  C13 UNL     1      27.566   0.756  53.094  1.00  0.00    -0.058 A 
HETATM   13  C14 UNL     1      28.834   0.742  53.456  1.00  0.00     0.007 A 
HETATM   14  C15 UNL     1      28.770   2.158  53.678  1.00  0.00     0.001 A 
HETATM   15  C16 UNL     1      27.482   2.212  53.318  1.00  0.00     0.007 A 
ENDBRANCH  11  12
ENDBRANCH  10  11
ENDBRANCH   9  10
ENDBRANCH   7   9
ENDBRANCH   6   7
BRANCH   1  16
HETATM   16  C5  UNL     1      22.441   0.981  50.943  1.00  0.00     0.028 C 
BRANCH  16  17
HETATM   17  C4  UNL     1      23.259   1.975  50.843  1.00  0.00    -0.038 C 
HETATM   18  C3  UNL     1      22.873   2.467  49.551  1.00  0.00     0.038 C 
HETATM   19  C2  UNL     1      23.531   3.459  48.935  1.00  0.00     0.018 C 
HETATM   20  C1  UNL     1      24.397   4.090  49.676  1.00  0.00    -0.002 C 
HETATM   21 BR1  UNL     1      25.161   5.728  49.017  1.00  0.00    -0.055 Br
HETATM   22  C18 UNL     1      24.861   3.664  50.996  1.00  0.00     0.016 C 
HETATM   23  C17 UNL     1      24.302   2.603  51.602  1.00  0.00     0.012 C 
ENDBRANCH  16  17
ENDBRANCH   1  16
TORSDOF 7
ENDMDL
