MODEL 1
REMARK VINA RESULT:      -8.5      0.000      0.000
REMARK  4 active torsions:
REMARK  status: ('A' for Active; 'I' for Inactive)
REMARK    1  A    between atoms: N1_2  and  C2_3 
REMARK    2  A    between atoms: C2_3  and  C3_4 
REMARK    3  A    between atoms: C3_4  and  N2_5 
REMARK    4  A    between atoms: C16_23  and  C17_24 
ROOT
HETATM    1  N2  UNL     1      24.429   3.779  50.525  1.00  0.00    -0.350 N 
HETATM    2  C4  UNL     1      25.676   3.611  49.844  1.00  0.00     0.129 C 
HETATM    3  C5  UNL     1      26.789   3.113  50.708  1.00  0.00     0.049 C 
HETATM    4  C6  UNL     1      26.589   1.859  51.410  1.00  0.00    -0.001 C 
HETATM    5  C7  UNL     1      26.613   1.374  52.627  1.00  0.00     0.003 C 
HETATM    6  C8  UNL     1      26.953   2.474  53.522  1.00  0.00     0.068 C 
HETATM    7  N3  UNL     1      26.427   0.179  53.345  1.00  0.00    -0.345 N 
HETATM    8  C9  UNL     1      25.198  -0.328  53.851  1.00  0.00     0.128 A 
HETATM    9  C10 UNL     1      24.072   0.031  53.155  1.00  0.00     0.068 A 
HETATM   10  C11 UNL     1      22.829  -0.336  53.472  1.00  0.00     0.043 A 
HETATM   11  C12 UNL     1      21.676  -0.021  52.836  1.00  0.00     0.138 A 
HETATM   12  N4  UNL     1      20.492  -0.478  53.294  1.00  0.00    -0.224 NA
HETATM   13  C13 UNL     1      20.428  -1.272  54.411  1.00  0.00     0.236 A 
HETATM   14  N5  UNL     1      21.560  -1.601  55.062  1.00  0.00    -0.240 NA
HETATM   15  C14 UNL     1      22.728  -1.136  54.593  1.00  0.00     0.089 A 
HETATM   16  C15 UNL     1      23.881  -1.496  55.292  1.00  0.00     0.151 A 
HETATM   17  N6  UNL     1      25.148  -1.104  54.943  1.00  0.00    -0.241 NA
HETATM   18  N7  UNL     1      21.450   0.768  51.669  1.00  0.00    -0.368 N 
HETATM   19  C16 UNL     1      21.027   2.047  51.188  1.00  0.00     0.097 C 
HETATM   20  C19 UNL     1      21.958   3.197  51.483  1.00  0.00     0.128 C 
HETATM   21  C20 UNL     1      23.249   3.052  50.788  1.00  0.00     0.221 C 
HETATM   22  O1  UNL     1      23.696   2.097  50.141  1.00  0.00    -0.273 OA
HETATM   23  H17 UNL     1      27.322  -0.330  53.492  1.00  0.00     0.167 HD
HETATM   24  H21 UNL     1      21.734   0.022  50.974  1.00  0.00     0.161 HD
ENDROOT
BRANCH   1  25
HETATM   25  C3  UNL     1      24.171   5.032  51.145  1.00  0.00     0.155 C 
BRANCH  25  26
HETATM   26  C2  UNL     1      24.488   6.235  50.296  1.00  0.00     0.288 C 
BRANCH  26  27
HETATM   27  N1  UNL     1      25.454   7.066  51.014  1.00  0.00     0.080 N 
HETATM   28  C1  UNL     1      26.228   7.805  50.021  1.00  0.00     0.306 C 
HETATM   29  H4  UNL     1      26.124   6.528  51.579  1.00  0.00     0.315 HD
ENDBRANCH  26  27
ENDBRANCH  25  26
ENDBRANCH   1  25
BRANCH  19  30
HETATM   30  C17 UNL     1      20.944   2.044  49.666  1.00  0.00     0.032 C 
HETATM   31  C18 UNL     1      20.049   2.847  49.111  1.00  0.00     0.187 C 
HETATM   32 BR1  UNL     1      19.596   3.173  47.269  1.00  0.00    -0.198 Br
ENDBRANCH  19  30
TORSDOF 4
ENDMDL
MODEL 2
REMARK VINA RESULT:      -8.4      2.068      3.533
REMARK  4 active torsions:
REMARK  status: ('A' for Active; 'I' for Inactive)
REMARK    1  A    between atoms: N1_2  and  C2_3 
REMARK    2  A    between atoms: C2_3  and  C3_4 
REMARK    3  A    between atoms: C3_4  and  N2_5 
REMARK    4  A    between atoms: C16_23  and  C17_24 
ROOT
HETATM    1  N2  UNL     1      21.515   3.647  50.184  1.00  0.00    -0.350 N 
HETATM    2  C4  UNL     1      21.827   3.896  48.811  1.00  0.00     0.129 C 
HETATM    3  C5  UNL     1      23.227   4.365  48.572  1.00  0.00     0.049 C 
HETATM    4  C6  UNL     1      24.309   3.521  49.042  1.00  0.00    -0.001 C 
HETATM    5  C7  UNL     1      25.365   3.580  49.816  1.00  0.00     0.003 C 
HETATM    6  C8  UNL     1      25.435   4.936  50.347  1.00  0.00     0.068 C 
HETATM    7  N3  UNL     1      26.430   2.796  50.295  1.00  0.00    -0.345 N 
HETATM    8  C9  UNL     1      26.422   1.960  51.445  1.00  0.00     0.128 A 
HETATM    9  C10 UNL     1      25.204   1.435  51.793  1.00  0.00     0.068 A 
HETATM   10  C11 UNL     1      24.987   0.636  52.839  1.00  0.00     0.043 A 
HETATM   11  C12 UNL     1      23.818   0.084  53.243  1.00  0.00     0.138 A 
HETATM   12  N4  UNL     1      23.773  -0.708  54.334  1.00  0.00    -0.224 NA
HETATM   13  C13 UNL     1      24.907  -0.972  55.060  1.00  0.00     0.236 A 
HETATM   14  N5  UNL     1      26.083  -0.436  54.680  1.00  0.00    -0.240 NA
HETATM   15  C14 UNL     1      26.108   0.349  53.592  1.00  0.00     0.089 A 
HETATM   16  C15 UNL     1      27.343   0.888  53.228  1.00  0.00     0.151 A 
HETATM   17  N6  UNL     1      27.537   1.708  52.146  1.00  0.00    -0.241 NA
HETATM   18  N7  UNL     1      22.509   0.182  52.685  1.00  0.00    -0.368 N 
HETATM   19  C16 UNL     1      21.231   0.811  52.810  1.00  0.00     0.097 C 
HETATM   20  C19 UNL     1      21.198   2.291  52.513  1.00  0.00     0.128 C 
HETATM   21  C20 UNL     1      21.512   2.575  51.102  1.00  0.00     0.221 C 
HETATM   22  O1  UNL     1      21.910   1.814  50.211  1.00  0.00    -0.273 OA
HETATM   23  H17 UNL     1      27.282   2.893  49.705  1.00  0.00     0.167 HD
HETATM   24  H21 UNL     1      22.670  -0.512  51.902  1.00  0.00     0.161 HD
ENDROOT
BRANCH   1  25
HETATM   25  C3  UNL     1      21.017   4.728  50.962  1.00  0.00     0.155 C 
BRANCH  25  26
HETATM   26  C2  UNL     1      22.077   5.608  51.572  1.00  0.00     0.288 C 
BRANCH  26  27
HETATM   27  N1  UNL     1      21.767   6.999  51.246  1.00  0.00     0.080 N 
HETATM   28  C1  UNL     1      22.941   7.576  50.599  1.00  0.00     0.306 C 
HETATM   29  H4  UNL     1      21.560   7.581  52.068  1.00  0.00     0.315 HD
ENDBRANCH  26  27
ENDBRANCH  25  26
ENDBRANCH   1  25
BRANCH  19  30
HETATM   30  C17 UNL     1      20.248   0.230  51.800  1.00  0.00     0.032 C 
HETATM   31  C18 UNL     1      18.960   0.308  52.100  1.00  0.00     0.187 C 
HETATM   32 BR1  UNL     1      17.391  -0.276  51.151  1.00  0.00    -0.198 Br
ENDBRANCH  19  30
TORSDOF 4
ENDMDL
MODEL 3
REMARK VINA RESULT:      -7.9      2.605      5.219
REMARK  4 active torsions:
REMARK  status: ('A' for Active; 'I' for Inactive)
REMARK    1  A    between atoms: N1_2  and  C2_3 
REMARK    2  A    between atoms: C2_3  and  C3_4 
REMARK    3  A    between atoms: C3_4  and  N2_5 
REMARK    4  A    between atoms: C16_23  and  C17_24 
ROOT
HETATM    1  N2  UNL     1      21.368   4.032  49.469  1.00  0.00    -0.350 N 
HETATM    2  C4  UNL     1      20.301   4.764  50.078  1.00  0.00     0.129 C 
HETATM    3  C5  UNL     1      19.390   3.937  50.926  1.00  0.00     0.049 C 
HETATM    4  C6  UNL     1      19.982   3.185  52.016  1.00  0.00    -0.001 C 
HETATM    5  C7  UNL     1      20.063   1.955  52.460  1.00  0.00     0.003 C 
HETATM    6  C8  UNL     1      19.307   1.114  51.540  1.00  0.00     0.068 C 
HETATM    7  N3  UNL     1      20.620   1.189  53.501  1.00  0.00    -0.345 N 
HETATM    8  C9  UNL     1      21.919   0.611  53.532  1.00  0.00     0.128 A 
HETATM    9  C10 UNL     1      22.881   1.265  52.807  1.00  0.00     0.068 A 
HETATM   10  C11 UNL     1      24.154   0.878  52.704  1.00  0.00     0.043 A 
HETATM   11  C12 UNL     1      25.155   1.470  52.009  1.00  0.00     0.138 A 
HETATM   12  N4  UNL     1      26.397   0.943  52.010  1.00  0.00    -0.224 NA
HETATM   13  C13 UNL     1      26.675  -0.202  52.713  1.00  0.00     0.236 A 
HETATM   14  N5  UNL     1      25.698  -0.810  53.412  1.00  0.00    -0.240 NA
HETATM   15  C14 UNL     1      24.469  -0.272  53.400  1.00  0.00     0.089 A 
HETATM   16  C15 UNL     1      23.482  -0.929  54.134  1.00  0.00     0.151 A 
HETATM   17  N6  UNL     1      22.179  -0.508  54.223  1.00  0.00    -0.241 NA
HETATM   18  N7  UNL     1      25.152   2.651  51.209  1.00  0.00    -0.368 N 
HETATM   19  C16 UNL     1      25.121   3.154  49.870  1.00  0.00     0.097 C 
HETATM   20  C19 UNL     1      23.828   2.942  49.121  1.00  0.00     0.128 C 
HETATM   21  C20 UNL     1      22.713   3.690  49.725  1.00  0.00     0.221 C 
HETATM   22  O1  UNL     1      22.669   4.325  50.786  1.00  0.00    -0.273 OA
HETATM   23  H17 UNL     1      19.956   1.067  54.292  1.00  0.00     0.167 HD
HETATM   24  H21 UNL     1      25.188   3.333  52.018  1.00  0.00     0.161 HD
ENDROOT
BRANCH   1  25
HETATM   25  C3  UNL     1      21.132   3.443  48.196  1.00  0.00     0.155 C 
BRANCH  25  26
HETATM   26  C2  UNL     1      21.196   4.399  47.034  1.00  0.00     0.288 C 
BRANCH  26  27
HETATM   27  N1  UNL     1      21.871   3.732  45.922  1.00  0.00     0.080 N 
HETATM   28  C1  UNL     1      21.205   4.140  44.690  1.00  0.00     0.306 C 
HETATM   29  H4  UNL     1      21.824   2.706  45.965  1.00  0.00     0.315 HD
ENDBRANCH  26  27
ENDBRANCH  25  26
ENDBRANCH   1  25
BRANCH  19  30
HETATM   30  C17 UNL     1      25.283   4.670  49.866  1.00  0.00     0.032 C 
HETATM   31  C18 UNL     1      26.189   5.175  49.042  1.00  0.00     0.187 C 
HETATM   32 BR1  UNL     1      26.730   6.990  48.699  1.00  0.00    -0.198 Br
ENDBRANCH  19  30
TORSDOF 4
ENDMDL
MODEL 4
REMARK VINA RESULT:      -7.8      1.388      1.758
REMARK  4 active torsions:
REMARK  status: ('A' for Active; 'I' for Inactive)
REMARK    1  A    between atoms: N1_2  and  C2_3 
REMARK    2  A    between atoms: C2_3  and  C3_4 
REMARK    3  A    between atoms: C3_4  and  N2_5 
REMARK    4  A    between atoms: C16_23  and  C17_24 
ROOT
HETATM    1  N2  UNL     1      23.666   4.132  50.388  1.00  0.00    -0.350 N 
HETATM    2  C4  UNL     1      24.995   3.874  49.927  1.00  0.00     0.129 C 
HETATM    3  C5  UNL     1      25.869   3.180  50.921  1.00  0.00     0.049 C 
HETATM    4  C6  UNL     1      25.414   1.907  51.447  1.00  0.00    -0.001 C 
HETATM    5  C7  UNL     1      25.160   1.327  52.593  1.00  0.00     0.003 C 
HETATM    6  C8  UNL     1      25.434   2.303  53.641  1.00  0.00     0.068 C 
HETATM    7  N3  UNL     1      24.722   0.108  53.143  1.00  0.00    -0.345 N 
HETATM    8  C9  UNL     1      23.375  -0.290  53.368  1.00  0.00     0.128 A 
HETATM    9  C10 UNL     1      22.443   0.254  52.522  1.00  0.00     0.068 A 
HETATM   10  C11 UNL     1      21.131   0.012  52.574  1.00  0.00     0.043 A 
HETATM   11  C12 UNL     1      20.157   0.511  51.777  1.00  0.00     0.138 A 
HETATM   12  N4  UNL     1      18.867   0.162  51.968  1.00  0.00    -0.224 NA
HETATM   13  C13 UNL     1      18.514  -0.706  52.970  1.00  0.00     0.236 A 
HETATM   14  N5  UNL     1      19.464  -1.217  53.776  1.00  0.00    -0.240 NA
HETATM   15  C14 UNL     1      20.741  -0.858  53.572  1.00  0.00     0.089 A 
HETATM   16  C15 UNL     1      21.698  -1.405  54.427  1.00  0.00     0.151 A 
HETATM   17  N6  UNL     1      23.041  -1.139  54.350  1.00  0.00    -0.241 NA
HETATM   18  N7  UNL     1      20.235   1.412  50.674  1.00  0.00    -0.368 N 
HETATM   19  C16 UNL     1      20.042   2.766  50.256  1.00  0.00     0.097 C 
HETATM   20  C19 UNL     1      21.013   3.772  50.826  1.00  0.00     0.128 C 
HETATM   21  C20 UNL     1      22.390   3.531  50.361  1.00  0.00     0.221 C 
HETATM   22  O1  UNL     1      22.852   2.584  49.712  1.00  0.00    -0.273 OA
HETATM   23  H17 UNL     1      25.516  -0.513  53.396  1.00  0.00     0.167 HD
HETATM   24  H21 UNL     1      20.568   0.695  49.969  1.00  0.00     0.161 HD
ENDROOT
BRANCH   1  25
HETATM   25  C3  UNL     1      23.423   5.353  51.074  1.00  0.00     0.155 C 
BRANCH  25  26
HETATM   26  C2  UNL     1      24.459   6.423  50.847  1.00  0.00     0.288 C 
BRANCH  26  27
HETATM   27  N1  UNL     1      23.891   7.710  51.247  1.00  0.00     0.080 N 
HETATM   28  C1  UNL     1      22.646   7.894  50.509  1.00  0.00     0.306 C 
HETATM   29  H4  UNL     1      24.494   8.514  51.027  1.00  0.00     0.315 HD
ENDBRANCH  26  27
ENDBRANCH  25  26
ENDBRANCH   1  25
BRANCH  19  30
HETATM   30  C17 UNL     1      20.248   2.895  48.751  1.00  0.00     0.032 C 
HETATM   31  C18 UNL     1      19.176   3.157  48.018  1.00  0.00     0.187 C 
HETATM   32 BR1  UNL     1      18.957   3.402  46.121  1.00  0.00    -0.198 Br
ENDBRANCH  19  30
TORSDOF 4
ENDMDL
MODEL 5
REMARK VINA RESULT:      -7.7      2.923      5.066
REMARK  4 active torsions:
REMARK  status: ('A' for Active; 'I' for Inactive)
REMARK    1  A    between atoms: N1_2  and  C2_3 
REMARK    2  A    between atoms: C2_3  and  C3_4 
REMARK    3  A    between atoms: C3_4  and  N2_5 
REMARK    4  A    between atoms: C16_23  and  C17_24 
ROOT
HETATM    1  N2  UNL     1      22.481   2.238  51.638  1.00  0.00    -0.350 N 
HETATM    2  C4  UNL     1      23.533   1.334  51.988  1.00  0.00     0.129 C 
HETATM    3  C5  UNL     1      23.226   0.453  53.156  1.00  0.00     0.049 C 
HETATM    4  C6  UNL     1      22.042  -0.382  53.079  1.00  0.00    -0.001 C 
HETATM    5  C7  UNL     1      20.936  -0.619  53.739  1.00  0.00     0.003 C 
HETATM    6  C8  UNL     1      20.939   0.247  54.912  1.00  0.00     0.068 C 
HETATM    7  N3  UNL     1      19.773  -1.410  53.701  1.00  0.00    -0.345 N 
HETATM    8  C9  UNL     1      18.556  -1.104  53.032  1.00  0.00     0.128 A 
HETATM    9  C10 UNL     1      18.669  -0.307  51.922  1.00  0.00     0.068 A 
HETATM   10  C11 UNL     1      17.648   0.097  51.164  1.00  0.00     0.043 A 
HETATM   11  C12 UNL     1      17.683   0.880  50.060  1.00  0.00     0.138 A 
HETATM   12  N4  UNL     1      16.546   1.198  49.406  1.00  0.00    -0.224 NA
HETATM   13  C13 UNL     1      15.331   0.735  49.842  1.00  0.00     0.236 A 
HETATM   14  N5  UNL     1      15.268  -0.047  50.937  1.00  0.00    -0.240 NA
HETATM   15  C14 UNL     1      16.408  -0.351  51.575  1.00  0.00     0.089 A 
HETATM   16  C15 UNL     1      16.305  -1.162  52.706  1.00  0.00     0.151 A 
HETATM   17  N6  UNL     1      17.373  -1.562  53.467  1.00  0.00    -0.241 NA
HETATM   18  N7  UNL     1      18.788   1.486  49.392  1.00  0.00    -0.368 N 
HETATM   19  C16 UNL     1      19.508   2.706  49.197  1.00  0.00     0.097 C 
HETATM   20  C19 UNL     1      20.275   3.212  50.395  1.00  0.00     0.128 C 
HETATM   21  C20 UNL     1      21.369   2.300  50.772  1.00  0.00     0.221 C 
HETATM   22  O1  UNL     1      21.640   1.171  50.346  1.00  0.00    -0.273 OA
HETATM   23  H17 UNL     1      19.882  -2.290  54.245  1.00  0.00     0.167 HD
HETATM   24  H21 UNL     1      19.108   0.610  48.891  1.00  0.00     0.161 HD
ENDROOT
BRANCH   1  25
HETATM   25  C3  UNL     1      22.458   3.511  52.271  1.00  0.00     0.155 C 
BRANCH  25  26
HETATM   26  C2  UNL     1      23.806   4.029  52.700  1.00  0.00     0.288 C 
BRANCH  26  27
HETATM   27  N1  UNL     1      23.792   5.488  52.613  1.00  0.00     0.080 N 
HETATM   28  C1  UNL     1      23.206   5.850  51.327  1.00  0.00     0.306 C 
HETATM   29  H4  UNL     1      24.727   5.914  52.649  1.00  0.00     0.315 HD
ENDBRANCH  26  27
ENDBRANCH  25  26
ENDBRANCH   1  25
BRANCH  19  30
HETATM   30  C17 UNL     1      20.592   2.524  48.140  1.00  0.00     0.032 C 
HETATM   31  C18 UNL     1      20.717   3.483  47.235  1.00  0.00     0.187 C 
HETATM   32 BR1  UNL     1      21.918   3.682  45.744  1.00  0.00    -0.198 Br
ENDBRANCH  19  30
TORSDOF 4
ENDMDL
MODEL 6
REMARK VINA RESULT:      -7.4      2.471      5.157
REMARK  4 active torsions:
REMARK  status: ('A' for Active; 'I' for Inactive)
REMARK    1  A    between atoms: N1_2  and  C2_3 
REMARK    2  A    between atoms: C2_3  and  C3_4 
REMARK    3  A    between atoms: C3_4  and  N2_5 
REMARK    4  A    between atoms: C16_23  and  C17_24 
ROOT
HETATM    1  N2  UNL     1      20.535   2.587  50.742  1.00  0.00    -0.350 N 
HETATM    2  C4  UNL     1      20.442   2.615  49.315  1.00  0.00     0.129 C 
HETATM    3  C5  UNL     1      21.543   3.368  48.640  1.00  0.00     0.049 C 
HETATM    4  C6  UNL     1      22.907   2.951  48.906  1.00  0.00    -0.001 C 
HETATM    5  C7  UNL     1      24.040   3.442  49.345  1.00  0.00     0.003 C 
HETATM    6  C8  UNL     1      23.811   4.850  49.647  1.00  0.00     0.068 C 
HETATM    7  N3  UNL     1      25.371   3.078  49.616  1.00  0.00    -0.345 N 
HETATM    8  C9  UNL     1      25.874   2.529  50.828  1.00  0.00     0.128 A 
HETATM    9  C10 UNL     1      24.983   1.792  51.565  1.00  0.00     0.068 A 
HETATM   10  C11 UNL     1      25.258   1.202  52.729  1.00  0.00     0.043 A 
HETATM   11  C12 UNL     1      24.433   0.464  53.509  1.00  0.00     0.138 A 
HETATM   12  N4  UNL     1      24.875  -0.065  54.669  1.00  0.00    -0.224 NA
HETATM   13  C13 UNL     1      26.168   0.131  55.085  1.00  0.00     0.236 A 
HETATM   14  N5  UNL     1      27.009   0.860  54.328  1.00  0.00    -0.240 NA
HETATM   15  C14 UNL     1      26.552   1.379  53.178  1.00  0.00     0.089 A 
HETATM   16  C15 UNL     1      27.451   2.130  52.419  1.00  0.00     0.151 A 
HETATM   17  N6  UNL     1      27.140   2.726  51.224  1.00  0.00    -0.241 NA
HETATM   18  N7  UNL     1      23.066   0.101  53.324  1.00  0.00    -0.368 N 
HETATM   19  C16 UNL     1      21.719   0.391  53.708  1.00  0.00     0.097 C 
HETATM   20  C19 UNL     1      21.173   1.715  53.231  1.00  0.00     0.128 C 
HETATM   21  C20 UNL     1      21.063   1.768  51.763  1.00  0.00     0.221 C 
HETATM   22  O1  UNL     1      21.464   0.967  50.910  1.00  0.00    -0.273 OA
HETATM   23  H17 UNL     1      25.999   3.265  48.808  1.00  0.00     0.167 HD
HETATM   24  H21 UNL     1      23.251  -0.675  52.629  1.00  0.00     0.161 HD
ENDROOT
BRANCH   1  25
HETATM   25  C3  UNL     1      19.920   3.641  51.472  1.00  0.00     0.155 C 
BRANCH  25  26
HETATM   26  C2  UNL     1      18.414   3.639  51.438  1.00  0.00     0.288 C 
BRANCH  26  27
HETATM   27  N1  UNL     1      17.968   4.757  50.608  1.00  0.00     0.080 N 
HETATM   28  C1  UNL     1      17.075   4.221  49.586  1.00  0.00     0.306 C 
HETATM   29  H4  UNL     1      18.733   5.239  50.117  1.00  0.00     0.315 HD
ENDBRANCH  26  27
ENDBRANCH  25  26
ENDBRANCH   1  25
BRANCH  19  30
HETATM   30  C17 UNL     1      20.759  -0.623  53.095  1.00  0.00     0.032 C 
HETATM   31  C18 UNL     1      19.551  -0.708  53.631  1.00  0.00     0.187 C 
HETATM   32 BR1  UNL     1      18.039  -1.818  53.200  1.00  0.00    -0.198 Br
ENDBRANCH  19  30
TORSDOF 4
ENDMDL
MODEL 7
REMARK VINA RESULT:      -7.3      2.897      5.048
REMARK  4 active torsions:
REMARK  status: ('A' for Active; 'I' for Inactive)
REMARK    1  A    between atoms: N1_2  and  C2_3 
REMARK    2  A    between atoms: C2_3  and  C3_4 
REMARK    3  A    between atoms: C3_4  and  N2_5 
REMARK    4  A    between atoms: C16_23  and  C17_24 
ROOT
HETATM    1  N2  UNL     1      24.809   4.247  50.762  1.00  0.00    -0.350 N 
HETATM    2  C4  UNL     1      24.487   5.632  50.919  1.00  0.00     0.129 C 
HETATM    3  C5  UNL     1      23.075   5.980  50.576  1.00  0.00     0.049 C 
HETATM    4  C6  UNL     1      22.017   5.281  51.282  1.00  0.00    -0.001 C 
HETATM    5  C7  UNL     1      20.961   4.545  51.036  1.00  0.00     0.003 C 
HETATM    6  C8  UNL     1      20.853   4.417  49.588  1.00  0.00     0.068 C 
HETATM    7  N3  UNL     1      19.920   3.854  51.682  1.00  0.00    -0.345 N 
HETATM    8  C9  UNL     1      19.954   2.515  52.159  1.00  0.00     0.128 A 
HETATM    9  C10 UNL     1      21.187   2.045  52.531  1.00  0.00     0.068 A 
HETATM   10  C11 UNL     1      21.428   0.818  52.996  1.00  0.00     0.043 A 
HETATM   11  C12 UNL     1      22.613   0.286  53.379  1.00  0.00     0.138 A 
HETATM   12  N4  UNL     1      22.683  -0.984  53.829  1.00  0.00    -0.224 NA
HETATM   13  C13 UNL     1      21.558  -1.765  53.909  1.00  0.00     0.236 A 
HETATM   14  N5  UNL     1      20.367  -1.261  53.535  1.00  0.00    -0.240 NA
HETATM   15  C14 UNL     1      20.317   0.004  53.089  1.00  0.00     0.089 A 
HETATM   16  C15 UNL     1      19.067   0.494  52.709  1.00  0.00     0.151 A 
HETATM   17  N6  UNL     1      18.848   1.761  52.234  1.00  0.00    -0.241 NA
HETATM   18  N7  UNL     1      23.918   0.860  53.407  1.00  0.00    -0.368 N 
HETATM   19  C16 UNL     1      25.178   0.930  52.732  1.00  0.00     0.097 C 
HETATM   20  C19 UNL     1      25.167   1.633  51.397  1.00  0.00     0.128 C 
HETATM   21  C20 UNL     1      24.844   3.064  51.531  1.00  0.00     0.221 C 
HETATM   22  O1  UNL     1      24.467   3.700  52.523  1.00  0.00    -0.273 OA
HETATM   23  H17 UNL     1      19.066   4.440  51.779  1.00  0.00     0.167 HD
HETATM   24  H21 UNL     1      23.777   1.415  54.297  1.00  0.00     0.161 HD
ENDROOT
BRANCH   1  25
HETATM   25  C3  UNL     1      25.275   3.809  49.492  1.00  0.00     0.155 C 
BRANCH  25  26
HETATM   26  C2  UNL     1      26.759   3.958  49.278  1.00  0.00     0.288 C 
BRANCH  26  27
HETATM   27  N1  UNL     1      27.006   5.233  48.608  1.00  0.00     0.080 N 
HETATM   28  C1  UNL     1      28.442   5.342  48.375  1.00  0.00     0.306 C 
HETATM   29  H4  UNL     1      26.727   6.053  49.164  1.00  0.00     0.315 HD
ENDBRANCH  26  27
ENDBRANCH  25  26
ENDBRANCH   1  25
BRANCH  19  30
HETATM   30  C17 UNL     1      26.176   1.744  53.548  1.00  0.00     0.032 C 
HETATM   31  C18 UNL     1      27.460   1.465  53.380  1.00  0.00     0.187 C 
HETATM   32 BR1  UNL     1      29.044   2.215  54.176  1.00  0.00    -0.198 Br
ENDBRANCH  19  30
TORSDOF 4
ENDMDL
MODEL 8
REMARK VINA RESULT:      -7.1      2.843      7.795
REMARK  4 active torsions:
REMARK  status: ('A' for Active; 'I' for Inactive)
REMARK    1  A    between atoms: N1_2  and  C2_3 
REMARK    2  A    between atoms: C2_3  and  C3_4 
REMARK    3  A    between atoms: C3_4  and  N2_5 
REMARK    4  A    between atoms: C16_23  and  C17_24 
ROOT
HETATM    1  N2  UNL     1      21.291   1.104  51.896  1.00  0.00    -0.350 N 
HETATM    2  C4  UNL     1      20.412   0.233  51.179  1.00  0.00     0.129 C 
HETATM    3  C5  UNL     1      19.459   0.934  50.264  1.00  0.00     0.049 C 
HETATM    4  C6  UNL     1      20.018   1.802  49.246  1.00  0.00    -0.001 C 
HETATM    5  C7  UNL     1      19.942   3.042  48.831  1.00  0.00     0.003 C 
HETATM    6  C8  UNL     1      18.984   3.726  49.691  1.00  0.00     0.068 C 
HETATM    7  N3  UNL     1      20.460   3.917  47.859  1.00  0.00    -0.345 N 
HETATM    8  C9  UNL     1      21.648   4.693  47.957  1.00  0.00     0.128 A 
HETATM    9  C10 UNL     1      22.635   4.175  48.757  1.00  0.00     0.068 A 
HETATM   10  C11 UNL     1      23.816   4.753  48.983  1.00  0.00     0.043 A 
HETATM   11  C12 UNL     1      24.832   4.305  49.757  1.00  0.00     0.138 A 
HETATM   12  N4  UNL     1      25.970   5.019  49.880  1.00  0.00    -0.224 NA
HETATM   13  C13 UNL     1      26.124   6.215  49.225  1.00  0.00     0.236 A 
HETATM   14  N5  UNL     1      25.129   6.684  48.448  1.00  0.00    -0.240 NA
HETATM   15  C14 UNL     1      24.005   5.960  48.338  1.00  0.00     0.089 A 
HETATM   16  C15 UNL     1      22.994   6.476  47.526  1.00  0.00     0.151 A 
HETATM   17  N6  UNL     1      21.788   5.859  47.311  1.00  0.00    -0.241 NA
HETATM   18  N7  UNL     1      24.946   3.114  50.535  1.00  0.00    -0.368 N 
HETATM   19  C16 UNL     1      24.877   2.572  51.857  1.00  0.00     0.097 C 
HETATM   20  C19 UNL     1      23.506   2.556  52.487  1.00  0.00     0.128 C 
HETATM   21  C20 UNL     1      22.581   1.660  51.770  1.00  0.00     0.221 C 
HETATM   22  O1  UNL     1      22.733   1.059  50.699  1.00  0.00    -0.273 OA
HETATM   23  H17 UNL     1      19.858   3.958  47.011  1.00  0.00     0.167 HD
HETATM   24  H21 UNL     1      25.162   2.471  49.722  1.00  0.00     0.161 HD
ENDROOT
BRANCH   1  25
HETATM   25  C3  UNL     1      20.852   1.610  53.150  1.00  0.00     0.155 C 
BRANCH  25  26
HETATM   26  C2  UNL     1      20.382   0.563  54.125  1.00  0.00     0.288 C 
BRANCH  26  27
HETATM   27  N1  UNL     1      21.550  -0.151  54.638  1.00  0.00     0.080 N 
HETATM   28  C1  UNL     1      21.344  -1.575  54.391  1.00  0.00     0.306 C 
HETATM   29  H4  UNL     1      21.693  -0.038  55.650  1.00  0.00     0.315 HD
ENDBRANCH  26  27
ENDBRANCH  25  26
ENDBRANCH   1  25
BRANCH  19  30
HETATM   30  C17 UNL     1      25.277   1.100  51.851  1.00  0.00     0.032 C 
HETATM   31  C18 UNL     1      26.319   0.758  52.593  1.00  0.00     0.187 C 
HETATM   32 BR1  UNL     1      27.169  -0.943  52.891  1.00  0.00    -0.198 Br
ENDBRANCH  19  30
TORSDOF 4
ENDMDL
MODEL 9
REMARK VINA RESULT:      -6.9      3.373      6.006
REMARK  4 active torsions:
REMARK  status: ('A' for Active; 'I' for Inactive)
REMARK    1  A    between atoms: N1_2  and  C2_3 
REMARK    2  A    between atoms: C2_3  and  C3_4 
REMARK    3  A    between atoms: C3_4  and  N2_5 
REMARK    4  A    between atoms: C16_23  and  C17_24 
ROOT
HETATM    1  N2  UNL     1      25.244   5.908  50.026  1.00  0.00    -0.350 N 
HETATM    2  C4  UNL     1      25.222   7.262  50.486  1.00  0.00     0.129 C 
HETATM    3  C5  UNL     1      24.035   8.048  50.033  1.00  0.00     0.049 C 
HETATM    4  C6  UNL     1      22.719   7.533  50.363  1.00  0.00    -0.001 C 
HETATM    5  C7  UNL     1      21.601   7.185  49.776  1.00  0.00     0.003 C 
HETATM    6  C8  UNL     1      21.780   7.401  48.345  1.00  0.00     0.068 C 
HETATM    7  N3  UNL     1      20.315   6.686  50.053  1.00  0.00    -0.345 N 
HETATM    8  C9  UNL     1      19.938   5.319  50.165  1.00  0.00     0.128 A 
HETATM    9  C10 UNL     1      20.922   4.461  50.586  1.00  0.00     0.068 A 
HETATM   10  C11 UNL     1      20.769   3.145  50.747  1.00  0.00     0.043 A 
HETATM   11  C12 UNL     1      21.690   2.240  51.155  1.00  0.00     0.138 A 
HETATM   12  N4  UNL     1      21.369   0.934  51.264  1.00  0.00    -0.224 NA
HETATM   13  C13 UNL     1      20.104   0.493  50.965  1.00  0.00     0.236 A 
HETATM   14  N5  UNL     1      19.169   1.373  50.558  1.00  0.00    -0.240 NA
HETATM   15  C14 UNL     1      19.507   2.667  50.454  1.00  0.00     0.089 A 
HETATM   16  C15 UNL     1      18.515   3.550  50.028  1.00  0.00     0.151 A 
HETATM   17  N6  UNL     1      18.699   4.900  49.871  1.00  0.00    -0.241 NA
HETATM   18  N7  UNL     1      23.055   2.415  51.530  1.00  0.00    -0.368 N 
HETATM   19  C16 UNL     1      24.412   2.278  51.098  1.00  0.00     0.097 C 
HETATM   20  C19 UNL     1      24.849   3.223  50.006  1.00  0.00     0.128 C 
HETATM   21  C20 UNL     1      24.841   4.626  50.456  1.00  0.00     0.221 C 
HETATM   22  O1  UNL     1      24.416   5.116  51.510  1.00  0.00    -0.273 OA
HETATM   23  H17 UNL     1      19.617   7.449  50.167  1.00  0.00     0.167 HD
HETATM   24  H21 UNL     1      22.856   2.786  52.502  1.00  0.00     0.161 HD
ENDROOT
BRANCH   1  25
HETATM   25  C3  UNL     1      25.859   5.638  48.772  1.00  0.00     0.155 C 
BRANCH  25  26
HETATM   26  C2  UNL     1      27.190   6.314  48.563  1.00  0.00     0.288 C 
BRANCH  26  27
HETATM   27  N1  UNL     1      28.248   5.384  48.952  1.00  0.00     0.080 N 
HETATM   28  C1  UNL     1      29.451   5.743  48.208  1.00  0.00     0.306 C 
HETATM   29  H4  UNL     1      28.038   4.402  48.731  1.00  0.00     0.315 HD
ENDBRANCH  26  27
ENDBRANCH  25  26
ENDBRANCH   1  25
BRANCH  19  30
HETATM   30  C17 UNL     1      25.371   2.595  52.240  1.00  0.00     0.032 C 
HETATM   31  C18 UNL     1      26.547   1.986  52.224  1.00  0.00     0.187 C 
HETATM   32 BR1  UNL     1      28.046   2.074  53.429  1.00  0.00    -0.198 Br
ENDBRANCH  19  30
TORSDOF 4
ENDMDL
