MODEL 1
REMARK VINA RESULT:      -7.9      0.000      0.000
REMARK  6 active torsions:
REMARK  status: ('A' for Active; 'I' for Inactive)
REMARK    1  A    between atoms: N1_2  and  C2_3 
REMARK    2  A    between atoms: N1_2  and  C12_16 
REMARK    3  A    between atoms: C2_3  and  N2_13 
REMARK    4  A    between atoms: C3_4  and  C4_5 
REMARK    5  A    between atoms: C8_9  and  O1_10 
REMARK    6  A    between atoms: C11_14  and  N3_15 
ROOT
HETATM    1  C2  UNL     1      23.501   2.263  52.298  1.00  0.00     0.128 C 
HETATM    2  C3  UNL     1      24.647   1.708  52.030  1.00  0.00     0.033 C 
ENDROOT
BRANCH   1   3
HETATM    3  N1  UNL     1      22.171   1.833  52.133  1.00  0.00    -0.336 N 
HETATM    4  C1  UNL     1      21.295   2.522  51.206  1.00  0.00     0.158 C 
BRANCH   3   5
HETATM    5  C12 UNL     1      21.666   0.722  52.864  1.00  0.00     0.036 A 
HETATM    6  C13 UNL     1      22.478   0.034  53.745  1.00  0.00     0.030 A 
HETATM    7  C14 UNL     1      22.074  -1.053  54.496  1.00  0.00     0.004 A 
HETATM    8  C15 UNL     1      20.758  -1.464  54.337  1.00  0.00     0.019 A 
HETATM    9  C16 UNL     1      19.922  -0.794  53.463  1.00  0.00     0.013 A 
HETATM   10 BR1  UNL     1      18.117  -1.439  53.312  1.00  0.00    -0.051 Br
HETATM   11  C17 UNL     1      20.360   0.303  52.717  1.00  0.00     0.048 A 
ENDBRANCH   3   5
ENDBRANCH   1   3
BRANCH   1  12
HETATM   12  N2  UNL     1      23.583   3.556  52.873  1.00  0.00    -0.227 NA
HETATM   13  C11 UNL     1      23.861   4.583  52.149  1.00  0.00     0.202 C 
BRANCH  13  14
HETATM   14  N3  UNL     1      23.808   5.541  53.213  1.00  0.00    -0.394 N 
HETATM   15  H13 UNL     1      23.634   6.101  54.094  1.00  0.00     0.156 HD
HETATM   16  H14 UNL     1      23.839   6.306  53.928  1.00  0.00     0.156 HD
ENDBRANCH  13  14
ENDBRANCH   1  12
BRANCH   2  17
HETATM   17  C4  UNL     1      26.153   1.754  52.020  1.00  0.00     0.039 A 
HETATM   18  C5  UNL     1      26.693   1.951  53.375  1.00  0.00    -0.010 A 
HETATM   19  C6  UNL     1      27.458   1.021  53.923  1.00  0.00    -0.046 A 
HETATM   20  C7  UNL     1      28.328   0.113  54.716  1.00  0.00     0.103 A 
HETATM   21  C9  UNL     1      27.482   0.022  52.843  1.00  0.00    -0.021 A 
HETATM   22  C8  UNL     1      28.261  -0.785  53.559  1.00  0.00     0.054 A 
HETATM   23  C10 UNL     1      26.701   0.404  51.640  1.00  0.00     0.054 A 
BRANCH  22  24
HETATM   24  O1  UNL     1      28.928  -2.005  53.573  1.00  0.00    -0.364 OA
HETATM   25  H9  UNL     1      28.428  -2.868  53.830  1.00  0.00     0.217 HD
ENDBRANCH  22  24
ENDBRANCH   2  17
TORSDOF 6
ENDMDL
MODEL 2
REMARK VINA RESULT:      -7.9      3.022      4.682
REMARK  6 active torsions:
REMARK  status: ('A' for Active; 'I' for Inactive)
REMARK    1  A    between atoms: N1_2  and  C2_3 
REMARK    2  A    between atoms: N1_2  and  C12_16 
REMARK    3  A    between atoms: C2_3  and  N2_13 
REMARK    4  A    between atoms: C3_4  and  C4_5 
REMARK    5  A    between atoms: C8_9  and  O1_10 
REMARK    6  A    between atoms: C11_14  and  N3_15 
ROOT
HETATM    1  C2  UNL     1      23.052   0.233  52.599  1.00  0.00     0.128 C 
HETATM    2  C3  UNL     1      24.293   0.078  52.956  1.00  0.00     0.033 C 
ENDROOT
BRANCH   1   3
HETATM    3  N1  UNL     1      22.430   1.058  51.642  1.00  0.00    -0.336 N 
HETATM    4  C1  UNL     1      21.393   0.521  50.785  1.00  0.00     0.158 C 
BRANCH   3   5
HETATM    5  C12 UNL     1      22.805   2.423  51.502  1.00  0.00     0.036 A 
HETATM    6  C13 UNL     1      22.130   3.411  52.192  1.00  0.00     0.030 A 
HETATM    7  C14 UNL     1      22.423   4.759  52.117  1.00  0.00     0.004 A 
HETATM    8  C15 UNL     1      23.473   5.121  51.283  1.00  0.00     0.019 A 
HETATM    9  C16 UNL     1      24.167   4.153  50.580  1.00  0.00     0.013 A 
HETATM   10 BR1  UNL     1      25.604   4.755  49.453  1.00  0.00    -0.051 Br
HETATM   11  C17 UNL     1      23.846   2.797  50.677  1.00  0.00     0.048 A 
ENDBRANCH   3   5
ENDBRANCH   1   3
BRANCH   1  12
HETATM   12  N2  UNL     1      22.123  -0.580  53.296  1.00  0.00    -0.227 NA
HETATM   13  C11 UNL     1      21.584  -0.174  54.393  1.00  0.00     0.202 C 
BRANCH  13  14
HETATM   14  N3  UNL     1      20.789  -1.344  54.617  1.00  0.00    -0.394 N 
HETATM   15  H13 UNL     1      20.137  -2.176  54.575  1.00  0.00     0.156 HD
HETATM   16  H14 UNL     1      20.252  -2.202  54.887  1.00  0.00     0.156 HD
ENDBRANCH  13  14
ENDBRANCH   1  12
BRANCH   2  17
HETATM   17  C4  UNL     1      25.334  -0.590  53.817  1.00  0.00     0.039 A 
HETATM   18  C5  UNL     1      26.501  -1.007  53.022  1.00  0.00    -0.010 A 
HETATM   19  C6  UNL     1      27.691  -0.485  53.272  1.00  0.00    -0.046 A 
HETATM   20  C7  UNL     1      29.101  -0.028  53.386  1.00  0.00     0.103 A 
HETATM   21  C9  UNL     1      27.358   0.424  54.381  1.00  0.00    -0.021 A 
HETATM   22  C8  UNL     1      28.623   0.827  54.476  1.00  0.00     0.054 A 
HETATM   23  C10 UNL     1      25.926   0.413  54.771  1.00  0.00     0.054 A 
BRANCH  22  24
HETATM   24  O1  UNL     1      29.504   1.659  55.159  1.00  0.00    -0.364 OA
HETATM   25  H9  UNL     1      30.436   1.859  54.770  1.00  0.00     0.217 HD
ENDBRANCH  22  24
ENDBRANCH   2  17
TORSDOF 6
ENDMDL
MODEL 3
REMARK VINA RESULT:      -7.7      1.942      2.394
REMARK  6 active torsions:
REMARK  status: ('A' for Active; 'I' for Inactive)
REMARK    1  A    between atoms: N1_2  and  C2_3 
REMARK    2  A    between atoms: N1_2  and  C12_16 
REMARK    3  A    between atoms: C2_3  and  N2_13 
REMARK    4  A    between atoms: C3_4  and  C4_5 
REMARK    5  A    between atoms: C8_9  and  O1_10 
REMARK    6  A    between atoms: C11_14  and  N3_15 
ROOT
HETATM    1  C2  UNL     1      24.302   0.952  52.333  1.00  0.00     0.128 C 
HETATM    2  C3  UNL     1      24.791   0.044  53.126  1.00  0.00     0.033 C 
ENDROOT
BRANCH   1   3
HETATM    3  N1  UNL     1      23.059   1.083  51.685  1.00  0.00    -0.336 N 
HETATM    4  C1  UNL     1      22.972   1.771  50.412  1.00  0.00     0.158 C 
BRANCH   3   5
HETATM    5  C12 UNL     1      21.874   0.547  52.262  1.00  0.00     0.036 A 
HETATM    6  C13 UNL     1      21.877   0.076  53.560  1.00  0.00     0.030 A 
HETATM    7  C14 UNL     1      20.777  -0.461  54.201  1.00  0.00     0.004 A 
HETATM    8  C15 UNL     1      19.599  -0.520  53.468  1.00  0.00     0.019 A 
HETATM    9  C16 UNL     1      19.567  -0.056  52.167  1.00  0.00     0.013 A 
HETATM   10 BR1  UNL     1      17.889  -0.182  51.235  1.00  0.00    -0.051 Br
HETATM   11  C17 UNL     1      20.697   0.481  51.546  1.00  0.00     0.048 A 
ENDBRANCH   3   5
ENDBRANCH   1   3
BRANCH   1  12
HETATM   12  N2  UNL     1      25.174   2.033  52.052  1.00  0.00    -0.227 NA
HETATM   13  C11 UNL     1      26.164   1.889  51.241  1.00  0.00     0.202 C 
BRANCH  13  14
HETATM   14  N3  UNL     1      26.651   3.232  51.351  1.00  0.00    -0.394 N 
HETATM   15  H13 UNL     1      27.086   4.188  51.229  1.00  0.00     0.156 HD
HETATM   16  H14 UNL     1      26.961   4.215  51.536  1.00  0.00     0.156 HD
ENDBRANCH  13  14
ENDBRANCH   1  12
BRANCH   2  17
HETATM   17  C4  UNL     1      25.921  -0.485  53.971  1.00  0.00     0.039 A 
HETATM   18  C5  UNL     1      27.090  -0.834  53.147  1.00  0.00    -0.010 A 
HETATM   19  C6  UNL     1      28.236  -0.197  53.320  1.00  0.00    -0.046 A 
HETATM   20  C7  UNL     1      29.602   0.389  53.352  1.00  0.00     0.103 A 
HETATM   21  C9  UNL     1      27.865   0.733  54.399  1.00  0.00    -0.021 A 
HETATM   22  C8  UNL     1      29.091   1.251  54.421  1.00  0.00     0.054 A 
HETATM   23  C10 UNL     1      26.457   0.614  54.851  1.00  0.00     0.054 A 
BRANCH  22  24
HETATM   24  O1  UNL     1      29.918   2.192  55.026  1.00  0.00    -0.364 OA
HETATM   25  H9  UNL     1      30.399   2.902  54.458  1.00  0.00     0.217 HD
ENDBRANCH  22  24
ENDBRANCH   2  17
TORSDOF 6
ENDMDL
MODEL 4
REMARK VINA RESULT:      -7.6      3.961      5.719
REMARK  6 active torsions:
REMARK  status: ('A' for Active; 'I' for Inactive)
REMARK    1  A    between atoms: N1_2  and  C2_3 
REMARK    2  A    between atoms: N1_2  and  C12_16 
REMARK    3  A    between atoms: C2_3  and  N2_13 
REMARK    4  A    between atoms: C3_4  and  C4_5 
REMARK    5  A    between atoms: C8_9  and  O1_10 
REMARK    6  A    between atoms: C11_14  and  N3_15 
ROOT
HETATM    1  C2  UNL     1      23.845   2.894  50.946  1.00  0.00     0.128 C 
HETATM    2  C3  UNL     1      24.198   3.341  49.777  1.00  0.00     0.033 C 
ENDROOT
BRANCH   1   3
HETATM    3  N1  UNL     1      23.305   1.667  51.375  1.00  0.00    -0.336 N 
HETATM    4  C1  UNL     1      22.028   1.215  50.858  1.00  0.00     0.158 C 
BRANCH   3   5
HETATM    5  C12 UNL     1      23.995   0.854  52.316  1.00  0.00     0.036 A 
HETATM    6  C13 UNL     1      23.306   0.200  53.318  1.00  0.00     0.030 A 
HETATM    7  C14 UNL     1      23.892  -0.608  54.274  1.00  0.00     0.004 A 
HETATM    8  C15 UNL     1      25.270  -0.758  54.199  1.00  0.00     0.019 A 
HETATM    9  C16 UNL     1      25.986  -0.117  53.206  1.00  0.00     0.013 A 
HETATM   10 BR1  UNL     1      27.890  -0.388  53.187  1.00  0.00    -0.051 Br
HETATM   11  C17 UNL     1      25.364   0.695  52.254  1.00  0.00     0.048 A 
ENDBRANCH   3   5
ENDBRANCH   1   3
BRANCH   1  12
HETATM   12  N2  UNL     1      24.033   3.804  52.016  1.00  0.00    -0.227 NA
HETATM   13  C11 UNL     1      23.106   4.634  52.348  1.00  0.00     0.202 C 
BRANCH  13  14
HETATM   14  N3  UNL     1      23.827   5.252  53.420  1.00  0.00    -0.394 N 
HETATM   15  H13 UNL     1      24.396   5.869  54.064  1.00  0.00     0.156 HD
HETATM   16  H14 UNL     1      24.327   5.614  54.267  1.00  0.00     0.156 HD
ENDBRANCH  13  14
ENDBRANCH   1  12
BRANCH   2  17
HETATM   17  C4  UNL     1      24.755   4.440  48.909  1.00  0.00     0.039 A 
HETATM   18  C5  UNL     1      23.881   5.624  48.915  1.00  0.00    -0.010 A 
HETATM   19  C6  UNL     1      24.331   6.775  49.388  1.00  0.00    -0.046 A 
HETATM   20  C7  UNL     1      24.633   8.149  49.868  1.00  0.00     0.103 A 
HETATM   21  C9  UNL     1      25.697   6.391  49.777  1.00  0.00    -0.021 A 
HETATM   22  C8  UNL     1      25.959   7.623  50.204  1.00  0.00     0.054 A 
HETATM   23  C10 UNL     1      26.030   4.969  49.513  1.00  0.00     0.054 A 
BRANCH  22  24
HETATM   24  O1  UNL     1      26.923   8.449  50.774  1.00  0.00    -0.364 OA
HETATM   25  H9  UNL     1      27.924   8.256  50.629  1.00  0.00     0.217 HD
ENDBRANCH  22  24
ENDBRANCH   2  17
TORSDOF 6
ENDMDL
MODEL 5
REMARK VINA RESULT:      -7.5      3.754      5.627
REMARK  6 active torsions:
REMARK  status: ('A' for Active; 'I' for Inactive)
REMARK    1  A    between atoms: N1_2  and  C2_3 
REMARK    2  A    between atoms: N1_2  and  C12_16 
REMARK    3  A    between atoms: C2_3  and  N2_13 
REMARK    4  A    between atoms: C3_4  and  C4_5 
REMARK    5  A    between atoms: C8_9  and  O1_10 
REMARK    6  A    between atoms: C11_14  and  N3_15 
ROOT
HETATM    1  C2  UNL     1      23.971   2.208  50.982  1.00  0.00     0.128 C 
HETATM    2  C3  UNL     1      24.981   1.765  51.671  1.00  0.00     0.033 C 
ENDROOT
BRANCH   1   3
HETATM    3  N1  UNL     1      23.879   2.875  49.745  1.00  0.00    -0.336 N 
HETATM    4  C1  UNL     1      22.810   2.551  48.822  1.00  0.00     0.158 C 
BRANCH   3   5
HETATM    5  C12 UNL     1      24.825   3.873  49.381  1.00  0.00     0.036 A 
HETATM    6  C13 UNL     1      26.177   3.588  49.369  1.00  0.00     0.030 A 
HETATM    7  C14 UNL     1      27.165   4.491  49.031  1.00  0.00     0.004 A 
HETATM    8  C15 UNL     1      26.746   5.769  48.683  1.00  0.00     0.019 A 
HETATM    9  C16 UNL     1      25.400   6.083  48.685  1.00  0.00     0.013 A 
HETATM   10 BR1  UNL     1      24.920   7.878  48.188  1.00  0.00    -0.051 Br
HETATM   11  C17 UNL     1      24.424   5.146  49.033  1.00  0.00     0.048 A 
ENDBRANCH   3   5
ENDBRANCH   1   3
BRANCH   1  12
HETATM   12  N2  UNL     1      22.701   1.986  51.571  1.00  0.00    -0.227 NA
HETATM   13  C11 UNL     1      22.159   2.877  52.326  1.00  0.00     0.202 C 
BRANCH  13  14
HETATM   14  N3  UNL     1      20.967   2.136  52.609  1.00  0.00    -0.394 N 
HETATM   15  H13 UNL     1      20.219   1.412  52.803  1.00  0.00     0.156 HD
HETATM   16  H14 UNL     1      20.041   1.693  52.821  1.00  0.00     0.156 HD
ENDBRANCH  13  14
ENDBRANCH   1  12
BRANCH   2  17
HETATM   17  C4  UNL     1      25.530   1.073  52.892  1.00  0.00     0.039 A 
HETATM   18  C5  UNL     1      26.634   0.164  52.543  1.00  0.00    -0.010 A 
HETATM   19  C6  UNL     1      27.847   0.381  53.025  1.00  0.00    -0.046 A 
HETATM   20  C7  UNL     1      29.269   0.442  53.453  1.00  0.00     0.103 A 
HETATM   21  C9  UNL     1      27.605   1.594  53.822  1.00  0.00    -0.021 A 
HETATM   22  C8  UNL     1      28.880   1.641  54.200  1.00  0.00     0.054 A 
HETATM   23  C10 UNL     1      26.203   2.079  53.787  1.00  0.00     0.054 A 
BRANCH  22  24
HETATM   24  O1  UNL     1      29.820   2.340  54.951  1.00  0.00    -0.364 OA
HETATM   25  H9  UNL     1      30.658   2.733  54.500  1.00  0.00     0.217 HD
ENDBRANCH  22  24
ENDBRANCH   2  17
TORSDOF 6
ENDMDL
MODEL 6
REMARK VINA RESULT:      -7.3      4.032      5.980
REMARK  6 active torsions:
REMARK  status: ('A' for Active; 'I' for Inactive)
REMARK    1  A    between atoms: N1_2  and  C2_3 
REMARK    2  A    between atoms: N1_2  and  C12_16 
REMARK    3  A    between atoms: C2_3  and  N2_13 
REMARK    4  A    between atoms: C3_4  and  C4_5 
REMARK    5  A    between atoms: C8_9  and  O1_10 
REMARK    6  A    between atoms: C11_14  and  N3_15 
ROOT
HETATM    1  C2  UNL     1      24.112   3.045  50.868  1.00  0.00     0.128 C 
HETATM    2  C3  UNL     1      24.780   2.087  51.442  1.00  0.00     0.033 C 
ENDROOT
BRANCH   1   3
HETATM    3  N1  UNL     1      24.050   3.501  49.537  1.00  0.00    -0.336 N 
HETATM    4  C1  UNL     1      23.168   2.853  48.587  1.00  0.00     0.158 C 
BRANCH   3   5
HETATM    5  C12 UNL     1      24.845   4.597  49.104  1.00  0.00     0.036 A 
HETATM    6  C13 UNL     1      24.258   5.803  48.773  1.00  0.00     0.030 A 
HETATM    7  C14 UNL     1      24.949   6.920  48.343  1.00  0.00     0.004 A 
HETATM    8  C15 UNL     1      26.328   6.796  48.245  1.00  0.00     0.019 A 
HETATM    9  C16 UNL     1      26.944   5.602  48.570  1.00  0.00     0.013 A 
HETATM   10 BR1  UNL     1      28.858   5.531  48.401  1.00  0.00    -0.051 Br
HETATM   11  C17 UNL     1      26.217   4.490  49.001  1.00  0.00     0.048 A 
ENDBRANCH   3   5
ENDBRANCH   1   3
BRANCH   1  12
HETATM   12  N2  UNL     1      23.271   3.789  51.733  1.00  0.00    -0.227 NA
HETATM   13  C11 UNL     1      23.711   4.836  52.340  1.00  0.00     0.202 C 
BRANCH  13  14
HETATM   14  N3  UNL     1      22.491   5.141  53.026  1.00  0.00    -0.394 N 
HETATM   15  H13 UNL     1      21.577   5.533  53.388  1.00  0.00     0.156 HD
HETATM   16  H14 UNL     1      21.620   5.274  53.594  1.00  0.00     0.156 HD
ENDBRANCH  13  14
ENDBRANCH   1  12
BRANCH   2  17
HETATM   17  C4  UNL     1      25.144   1.302  52.675  1.00  0.00     0.039 A 
HETATM   18  C5  UNL     1      26.104   0.230  52.364  1.00  0.00    -0.010 A 
HETATM   19  C6  UNL     1      27.308   0.242  52.912  1.00  0.00    -0.046 A 
HETATM   20  C7  UNL     1      28.697   0.067  53.412  1.00  0.00     0.103 A 
HETATM   21  C9  UNL     1      27.224   1.469  53.719  1.00  0.00    -0.021 A 
HETATM   22  C8  UNL     1      28.468   1.304  54.162  1.00  0.00     0.054 A 
HETATM   23  C10 UNL     1      25.922   2.175  53.623  1.00  0.00     0.054 A 
BRANCH  22  24
HETATM   24  O1  UNL     1      29.466   1.834  54.974  1.00  0.00    -0.364 OA
HETATM   25  H9  UNL     1      30.081   2.580  54.621  1.00  0.00     0.217 HD
ENDBRANCH  22  24
ENDBRANCH   2  17
TORSDOF 6
ENDMDL
MODEL 7
REMARK VINA RESULT:      -7.3      8.469      9.995
REMARK  6 active torsions:
REMARK  status: ('A' for Active; 'I' for Inactive)
REMARK    1  A    between atoms: N1_2  and  C2_3 
REMARK    2  A    between atoms: N1_2  and  C12_16 
REMARK    3  A    between atoms: C2_3  and  N2_13 
REMARK    4  A    between atoms: C3_4  and  C4_5 
REMARK    5  A    between atoms: C8_9  and  O1_10 
REMARK    6  A    between atoms: C11_14  and  N3_15 
ROOT
HETATM    1  C2  UNL     1      30.379   7.485  47.823  1.00  0.00     0.128 C 
HETATM    2  C3  UNL     1      31.513   6.998  47.411  1.00  0.00     0.033 C 
ENDROOT
BRANCH   1   3
HETATM    3  N1  UNL     1      29.063   7.388  47.332  1.00  0.00    -0.336 N 
HETATM    4  C1  UNL     1      28.701   8.043  46.091  1.00  0.00     0.158 C 
BRANCH   3   5
HETATM    5  C12 UNL     1      28.073   6.650  48.037  1.00  0.00     0.036 A 
HETATM    6  C13 UNL     1      28.244   5.301  48.281  1.00  0.00     0.030 A 
HETATM    7  C14 UNL     1      27.338   4.506  48.955  1.00  0.00     0.004 A 
HETATM    8  C15 UNL     1      26.183   5.129  49.410  1.00  0.00     0.019 A 
HETATM    9  C16 UNL     1      25.986   6.478  49.182  1.00  0.00     0.013 A 
HETATM   10 BR1  UNL     1      24.356   7.248  49.851  1.00  0.00    -0.051 Br
HETATM   11  C17 UNL     1      26.921   7.255  48.495  1.00  0.00     0.048 A 
ENDBRANCH   3   5
ENDBRANCH   1   3
BRANCH   1  12
HETATM   12  N2  UNL     1      30.460   8.273  48.999  1.00  0.00    -0.227 NA
HETATM   13  C11 UNL     1      30.575   9.554  48.928  1.00  0.00     0.202 C 
BRANCH  13  14
HETATM   14  N3  UNL     1      30.608   9.784  50.341  1.00  0.00    -0.394 N 
HETATM   15  H13 UNL     1      30.777  10.114  51.333  1.00  0.00     0.156 HD
HETATM   16  H14 UNL     1      30.557   9.868  51.385  1.00  0.00     0.156 HD
ENDBRANCH  13  14
ENDBRANCH   1  12
BRANCH   2  17
HETATM   17  C4  UNL     1      33.003   6.836  47.568  1.00  0.00     0.039 A 
HETATM   18  C5  UNL     1      33.329   5.749  48.506  1.00  0.00    -0.010 A 
HETATM   19  C6  UNL     1      34.000   4.690  48.083  1.00  0.00    -0.046 A 
HETATM   20  C7  UNL     1      34.736   3.426  47.818  1.00  0.00     0.103 A 
HETATM   21  C9  UNL     1      34.188   5.040  46.666  1.00  0.00    -0.021 A 
HETATM   22  C8  UNL     1      34.846   3.906  46.437  1.00  0.00     0.054 A 
HETATM   23  C10 UNL     1      33.600   6.346  46.276  1.00  0.00     0.054 A 
BRANCH  22  24
HETATM   24  O1  UNL     1      35.502   3.145  45.475  1.00  0.00    -0.364 OA
HETATM   25  H9  UNL     1      35.761   3.563  44.570  1.00  0.00     0.217 HD
ENDBRANCH  22  24
ENDBRANCH   2  17
TORSDOF 6
ENDMDL
MODEL 8
REMARK VINA RESULT:      -7.0      3.740      5.460
REMARK  6 active torsions:
REMARK  status: ('A' for Active; 'I' for Inactive)
REMARK    1  A    between atoms: N1_2  and  C2_3 
REMARK    2  A    between atoms: N1_2  and  C12_16 
REMARK    3  A    between atoms: C2_3  and  N2_13 
REMARK    4  A    between atoms: C3_4  and  C4_5 
REMARK    5  A    between atoms: C8_9  and  O1_10 
REMARK    6  A    between atoms: C11_14  and  N3_15 
ROOT
HETATM    1  C2  UNL     1      22.064   2.597  50.788  1.00  0.00     0.128 C 
HETATM    2  C3  UNL     1      23.245   2.973  50.395  1.00  0.00     0.033 C 
ENDROOT
BRANCH   1   3
HETATM    3  N1  UNL     1      21.544   2.246  52.049  1.00  0.00    -0.336 N 
HETATM    4  C1  UNL     1      20.405   2.962  52.589  1.00  0.00     0.158 C 
BRANCH   3   5
HETATM    5  C12 UNL     1      22.121   1.192  52.809  1.00  0.00     0.036 A 
HETATM    6  C13 UNL     1      21.356   0.475  53.709  1.00  0.00     0.030 A 
HETATM    7  C14 UNL     1      21.830  -0.562  54.488  1.00  0.00     0.004 A 
HETATM    8  C15 UNL     1      23.172  -0.888  54.339  1.00  0.00     0.019 A 
HETATM    9  C16 UNL     1      23.961  -0.189  53.445  1.00  0.00     0.013 A 
HETATM   10 BR1  UNL     1      25.806  -0.716  53.310  1.00  0.00    -0.051 Br
HETATM   11  C17 UNL     1      23.452   0.856  52.671  1.00  0.00     0.048 A 
ENDBRANCH   3   5
ENDBRANCH   1   3
BRANCH   1  12
HETATM   12  N2  UNL     1      21.090   2.518  49.762  1.00  0.00    -0.227 NA
HETATM   13  C11 UNL     1      21.003   1.474  49.014  1.00  0.00     0.202 C 
BRANCH  13  14
HETATM   14  N3  UNL     1      19.911   1.945  48.215  1.00  0.00    -0.394 N 
HETATM   15  H13 UNL     1      19.170   2.137  47.484  1.00  0.00     0.156 HD
HETATM   16  H14 UNL     1      19.091   2.366  47.715  1.00  0.00     0.156 HD
ENDBRANCH  13  14
ENDBRANCH   1  12
BRANCH   2  17
HETATM   17  C4  UNL     1      24.185   3.405  49.299  1.00  0.00     0.039 A 
HETATM   18  C5  UNL     1      23.685   4.603  48.605  1.00  0.00    -0.010 A 
HETATM   19  C6  UNL     1      24.385   5.726  48.639  1.00  0.00    -0.046 A 
HETATM   20  C7  UNL     1      25.006   7.073  48.551  1.00  0.00     0.103 A 
HETATM   21  C9  UNL     1      25.533   5.302  49.455  1.00  0.00    -0.021 A 
HETATM   22  C8  UNL     1      26.082   6.511  49.371  1.00  0.00     0.054 A 
HETATM   23  C10 UNL     1      25.479   3.887  49.898  1.00  0.00     0.054 A 
BRANCH  22  24
HETATM   24  O1  UNL     1      27.169   7.296  49.745  1.00  0.00    -0.364 OA
HETATM   25  H9  UNL     1      27.285   7.589  50.726  1.00  0.00     0.217 HD
ENDBRANCH  22  24
ENDBRANCH   2  17
TORSDOF 6
ENDMDL
MODEL 9
REMARK VINA RESULT:      -7.0      3.414      5.507
REMARK  6 active torsions:
REMARK  status: ('A' for Active; 'I' for Inactive)
REMARK    1  A    between atoms: N1_2  and  C2_3 
REMARK    2  A    between atoms: N1_2  and  C12_16 
REMARK    3  A    between atoms: C2_3  and  N2_13 
REMARK    4  A    between atoms: C3_4  and  C4_5 
REMARK    5  A    between atoms: C8_9  and  O1_10 
REMARK    6  A    between atoms: C11_14  and  N3_15 
ROOT
HETATM    1  C2  UNL     1      23.214   1.938  51.126  1.00  0.00     0.128 C 
HETATM    2  C3  UNL     1      24.230   1.726  51.911  1.00  0.00     0.033 C 
ENDROOT
BRANCH   1   3
HETATM    3  N1  UNL     1      23.083   2.608  49.895  1.00  0.00    -0.336 N 
HETATM    4  C1  UNL     1      22.229   2.062  48.859  1.00  0.00     0.158 C 
BRANCH   3   5
HETATM    5  C12 UNL     1      23.781   3.822  49.646  1.00  0.00     0.036 A 
HETATM    6  C13 UNL     1      23.126   5.036  49.721  1.00  0.00     0.030 A 
HETATM    7  C14 UNL     1      23.720   6.262  49.495  1.00  0.00     0.004 A 
HETATM    8  C15 UNL     1      25.071   6.247  49.173  1.00  0.00     0.019 A 
HETATM    9  C16 UNL     1      25.753   5.048  49.092  1.00  0.00     0.013 A 
HETATM   10 BR1  UNL     1      27.620   5.132  48.639  1.00  0.00    -0.051 Br
HETATM   11  C17 UNL     1      25.123   3.823  49.325  1.00  0.00     0.048 A 
ENDBRANCH   3   5
ENDBRANCH   1   3
BRANCH   1  12
HETATM   12  N2  UNL     1      21.986   1.396  51.580  1.00  0.00    -0.227 NA
HETATM   13  C11 UNL     1      21.833   0.124  51.710  1.00  0.00     0.202 C 
BRANCH  13  14
HETATM   14  N3  UNL     1      20.477   0.177  52.168  1.00  0.00    -0.394 N 
HETATM   15  H13 UNL     1      19.438   0.313  52.313  1.00  0.00     0.156 HD
HETATM   16  H14 UNL     1      19.522   0.165  52.599  1.00  0.00     0.156 HD
ENDBRANCH  13  14
ENDBRANCH   1  12
BRANCH   2  17
HETATM   17  C4  UNL     1      24.809   1.143  53.174  1.00  0.00     0.039 A 
HETATM   18  C5  UNL     1      25.460  -0.153  52.918  1.00  0.00    -0.010 A 
HETATM   19  C6  UNL     1      26.757  -0.295  53.132  1.00  0.00    -0.046 A 
HETATM   20  C7  UNL     1      28.187  -0.665  53.304  1.00  0.00     0.103 A 
HETATM   21  C9  UNL     1      27.102   1.058  53.599  1.00  0.00    -0.021 A 
HETATM   22  C8  UNL     1      28.380   0.718  53.750  1.00  0.00     0.054 A 
HETATM   23  C10 UNL     1      25.954   1.997  53.650  1.00  0.00     0.054 A 
BRANCH  22  24
HETATM   24  O1  UNL     1      29.640   1.168  54.131  1.00  0.00    -0.364 OA
HETATM   25  H9  UNL     1      30.041   0.884  55.036  1.00  0.00     0.217 HD
ENDBRANCH  22  24
ENDBRANCH   2  17
TORSDOF 6
ENDMDL
