MODEL 1
REMARK VINA RESULT:      -7.8      0.000      0.000
REMARK  5 active torsions:
REMARK  status: ('A' for Active; 'I' for Inactive)
REMARK    1  A    between atoms: O1_2  and  C2_3 
REMARK    2  A    between atoms: C2_3  and  C3_4 
REMARK    3  A    between atoms: C8_9  and  O2_10 
REMARK    4  A    between atoms: C17_21  and  O3_22 
REMARK    5  A    between atoms: C17_21  and  O4_23 
ROOT
HETATM    1  C3  UNL     1      24.073   0.032  53.334  1.00  0.00     0.001 A 
HETATM    2  C4  UNL     1      23.496   0.939  52.427  1.00  0.00     0.044 A 
HETATM    3  C5  UNL     1      24.309   1.720  51.640  1.00  0.00     0.068 A 
HETATM    4  C6  UNL     1      25.705   1.636  51.707  1.00  0.00     0.081 A 
HETATM    5  C7  UNL     1      26.248   0.751  52.594  1.00  0.00     0.070 A 
HETATM    6  C8  UNL     1      25.448  -0.039  53.395  1.00  0.00     0.076 A 
HETATM    7  N1  UNL     1      26.676   2.263  50.920  1.00  0.00    -0.276 NA
HETATM    8  C9  UNL     1      26.748   3.230  50.159  1.00  0.00     0.159 C 
HETATM    9  C10 UNL     1      26.628   4.434  49.283  1.00  0.00    -0.001 C 
HETATM   10  C11 UNL     1      25.730   5.431  48.968  1.00  0.00    -0.024 C 
HETATM   11  C12 UNL     1      24.708   4.993  49.893  1.00  0.00     0.069 C 
HETATM   12  C13 UNL     1      23.521   4.305  49.546  1.00  0.00     0.008 C 
HETATM   13  C14 UNL     1      22.863   3.859  48.499  1.00  0.00     0.012 C 
HETATM   14  C15 UNL     1      22.399   2.453  48.724  1.00  0.00     0.018 C 
HETATM   15  C16 UNL     1      22.681   1.821  49.887  1.00  0.00     0.097 C 
HETATM   16  N2  UNL     1      23.383   2.510  50.914  1.00  0.00    -0.295 N 
HETATM   17  C17 UNL     1      22.935   3.910  50.914  1.00  0.00     0.279 C 
ENDROOT
BRANCH  17  18
HETATM   18  O3  UNL     1      23.479   4.588  51.967  1.00  0.00    -0.344 OA
HETATM   19  H17 UNL     1      24.401   4.290  52.135  1.00  0.00     0.215 HD
ENDBRANCH  17  18
BRANCH  17  20
HETATM   20  O4  UNL     1      21.592   4.099  50.839  1.00  0.00    -0.339 OA
HETATM   21  C18 UNL     1      20.861   3.979  51.983  1.00  0.00     0.208 C 
ENDBRANCH  17  20
BRANCH   1  22
HETATM   22  C2  UNL     1      23.312  -0.882  54.253  1.00  0.00     0.208 C 
BRANCH  22  23
HETATM   23  O1  UNL     1      22.247  -1.372  53.528  1.00  0.00    -0.391 OA
HETATM   24  C1  UNL     1      21.063  -1.445  54.231  1.00  0.00     0.201 C 
ENDBRANCH  22  23
ENDBRANCH   1  22
BRANCH   6  25
HETATM   25  O2  UNL     1      26.054  -0.938  54.295  1.00  0.00    -0.360 OA
HETATM   26  H8  UNL     1      25.638  -1.862  54.371  1.00  0.00     0.217 HD
ENDBRANCH   6  25
TORSDOF 5
ENDMDL
MODEL 2
REMARK VINA RESULT:      -7.6      2.424      5.144
REMARK  5 active torsions:
REMARK  status: ('A' for Active; 'I' for Inactive)
REMARK    1  A    between atoms: O1_2  and  C2_3 
REMARK    2  A    between atoms: C2_3  and  C3_4 
REMARK    3  A    between atoms: C8_9  and  O2_10 
REMARK    4  A    between atoms: C17_21  and  O3_22 
REMARK    5  A    between atoms: C17_21  and  O4_23 
ROOT
HETATM    1  C3  UNL     1      25.549   0.826  52.814  1.00  0.00     0.001 A 
HETATM    2  C4  UNL     1      24.385   1.402  52.272  1.00  0.00     0.044 A 
HETATM    3  C5  UNL     1      23.155   0.888  52.607  1.00  0.00     0.068 A 
HETATM    4  C6  UNL     1      23.019  -0.196  53.483  1.00  0.00     0.081 A 
HETATM    5  C7  UNL     1      24.159  -0.744  53.999  1.00  0.00     0.070 A 
HETATM    6  C8  UNL     1      25.403  -0.244  53.672  1.00  0.00     0.076 A 
HETATM    7  N1  UNL     1      21.863  -0.774  54.015  1.00  0.00    -0.276 NA
HETATM    8  C9  UNL     1      20.657  -0.797  53.763  1.00  0.00     0.159 C 
HETATM    9  C10 UNL     1      19.243  -0.701  53.292  1.00  0.00    -0.001 C 
HETATM   10  C11 UNL     1      18.509  -0.213  52.231  1.00  0.00    -0.024 C 
HETATM   11  C12 UNL     1      19.652   0.264  51.483  1.00  0.00     0.069 C 
HETATM   12  C13 UNL     1      20.054   1.616  51.364  1.00  0.00     0.008 C 
HETATM   13  C14 UNL     1      19.693   2.829  51.723  1.00  0.00     0.012 C 
HETATM   14  C15 UNL     1      20.863   3.593  52.261  1.00  0.00     0.018 C 
HETATM   15  C16 UNL     1      22.083   3.011  52.328  1.00  0.00     0.097 C 
HETATM   16  N2  UNL     1      22.261   1.685  51.848  1.00  0.00    -0.295 N 
HETATM   17  C17 UNL     1      21.417   1.513  50.657  1.00  0.00     0.279 C 
ENDROOT
BRANCH  17  18
HETATM   18  O3  UNL     1      21.649   0.300  50.074  1.00  0.00    -0.344 OA
HETATM   19  H17 UNL     1      21.030  -0.380  50.425  1.00  0.00     0.215 HD
ENDBRANCH  17  18
BRANCH  17  20
HETATM   20  O4  UNL     1      21.469   2.521  49.747  1.00  0.00    -0.339 OA
HETATM   21  C18 UNL     1      22.310   2.385  48.684  1.00  0.00     0.208 C 
ENDBRANCH  17  20
BRANCH   1  22
HETATM   22  C2  UNL     1      26.954   1.281  52.540  1.00  0.00     0.208 C 
BRANCH  22  23
HETATM   23  O1  UNL     1      27.389   1.924  53.678  1.00  0.00    -0.391 OA
HETATM   24  C1  UNL     1      28.656   2.460  53.582  1.00  0.00     0.201 C 
ENDBRANCH  22  23
ENDBRANCH   1  22
BRANCH   6  25
HETATM   25  O2  UNL     1      26.550  -0.841  54.230  1.00  0.00    -0.360 OA
HETATM   26  H8  UNL     1      26.639  -1.849  54.131  1.00  0.00     0.217 HD
ENDBRANCH   6  25
TORSDOF 5
ENDMDL
MODEL 3
REMARK VINA RESULT:      -7.4      1.416      2.144
REMARK  5 active torsions:
REMARK  status: ('A' for Active; 'I' for Inactive)
REMARK    1  A    between atoms: O1_2  and  C2_3 
REMARK    2  A    between atoms: C2_3  and  C3_4 
REMARK    3  A    between atoms: C8_9  and  O2_10 
REMARK    4  A    between atoms: C17_21  and  O3_22 
REMARK    5  A    between atoms: C17_21  and  O4_23 
ROOT
HETATM    1  C3  UNL     1      21.478  -0.367  53.656  1.00  0.00     0.001 A 
HETATM    2  C4  UNL     1      21.569   0.552  52.593  1.00  0.00     0.044 A 
HETATM    3  C5  UNL     1      22.806   0.962  52.156  1.00  0.00     0.068 A 
HETATM    4  C6  UNL     1      23.990   0.486  52.732  1.00  0.00     0.081 A 
HETATM    5  C7  UNL     1      23.884  -0.404  53.763  1.00  0.00     0.070 A 
HETATM    6  C8  UNL     1      22.651  -0.824  54.219  1.00  0.00     0.076 A 
HETATM    7  N1  UNL     1      25.318   0.704  52.353  1.00  0.00    -0.276 NA
HETATM    8  C9  UNL     1      25.949   1.509  51.666  1.00  0.00     0.159 C 
HETATM    9  C10 UNL     1      26.526   2.580  50.799  1.00  0.00    -0.001 C 
HETATM   10  C11 UNL     1      26.155   3.748  50.168  1.00  0.00    -0.024 C 
HETATM   11  C12 UNL     1      24.793   3.741  50.656  1.00  0.00     0.069 C 
HETATM   12  C13 UNL     1      23.649   3.390  49.901  1.00  0.00     0.008 C 
HETATM   13  C14 UNL     1      23.291   3.029  48.688  1.00  0.00     0.012 C 
HETATM   14  C15 UNL     1      22.361   1.856  48.736  1.00  0.00     0.018 C 
HETATM   15  C16 UNL     1      22.007   1.316  49.926  1.00  0.00     0.097 C 
HETATM   16  N2  UNL     1      22.488   1.892  51.134  1.00  0.00    -0.295 N 
HETATM   17  C17 UNL     1      22.532   3.351  50.960  1.00  0.00     0.279 C 
ENDROOT
BRANCH  17  18
HETATM   18  O3  UNL     1      22.859   3.965  52.134  1.00  0.00    -0.344 OA
HETATM   19  H17 UNL     1      22.303   3.628  52.872  1.00  0.00     0.215 HD
ENDBRANCH  17  18
BRANCH  17  20
HETATM   20  O4  UNL     1      21.430   3.910  50.395  1.00  0.00    -0.339 OA
HETATM   21  C18 UNL     1      20.469   4.411  51.220  1.00  0.00     0.208 C 
ENDBRANCH  17  20
BRANCH   1  22
HETATM   22  C2  UNL     1      20.200  -0.902  54.236  1.00  0.00     0.208 C 
BRANCH  22  23
HETATM   23  O1  UNL     1      19.210  -0.645  53.313  1.00  0.00    -0.391 OA
HETATM   24  C1  UNL     1      18.134  -1.504  53.375  1.00  0.00     0.201 C 
ENDBRANCH  22  23
ENDBRANCH   1  22
BRANCH   6  25
HETATM   25  O2  UNL     1      22.591  -1.744  55.284  1.00  0.00    -0.360 OA
HETATM   26  H8  UNL     1      21.965  -2.537  55.173  1.00  0.00     0.217 HD
ENDBRANCH   6  25
TORSDOF 5
ENDMDL
MODEL 4
REMARK VINA RESULT:      -7.3      3.111      4.935
REMARK  5 active torsions:
REMARK  status: ('A' for Active; 'I' for Inactive)
REMARK    1  A    between atoms: O1_2  and  C2_3 
REMARK    2  A    between atoms: C2_3  and  C3_4 
REMARK    3  A    between atoms: C8_9  and  O2_10 
REMARK    4  A    between atoms: C17_21  and  O3_22 
REMARK    5  A    between atoms: C17_21  and  O4_23 
ROOT
HETATM    1  C3  UNL     1      18.027  -0.526  52.341  1.00  0.00     0.001 A 
HETATM    2  C4  UNL     1      18.861   0.358  51.632  1.00  0.00     0.044 A 
HETATM    3  C5  UNL     1      20.186   0.467  51.983  1.00  0.00     0.068 A 
HETATM    4  C6  UNL     1      20.740  -0.284  53.027  1.00  0.00     0.081 A 
HETATM    5  C7  UNL     1      19.916  -1.136  53.705  1.00  0.00     0.070 A 
HETATM    6  C8  UNL     1      18.582  -1.257  53.370  1.00  0.00     0.076 A 
HETATM    7  N1  UNL     1      22.070  -0.384  53.448  1.00  0.00    -0.276 NA
HETATM    8  C9  UNL     1      23.115   0.257  53.323  1.00  0.00     0.159 C 
HETATM    9  C10 UNL     1      24.266   1.171  53.058  1.00  0.00    -0.001 C 
HETATM   10  C11 UNL     1      24.536   2.402  52.499  1.00  0.00    -0.024 C 
HETATM   11  C12 UNL     1      23.160   2.713  52.181  1.00  0.00     0.069 C 
HETATM   12  C13 UNL     1      22.578   2.654  50.892  1.00  0.00     0.008 C 
HETATM   13  C14 UNL     1      22.885   2.404  49.638  1.00  0.00     0.012 C 
HETATM   14  C15 UNL     1      21.878   1.486  49.018  1.00  0.00     0.018 C 
HETATM   15  C16 UNL     1      20.832   1.031  49.747  1.00  0.00     0.097 C 
HETATM   16  N2  UNL     1      20.669   1.460  51.093  1.00  0.00    -0.295 N 
HETATM   17  C17 UNL     1      21.080   2.868  51.177  1.00  0.00     0.279 C 
ENDROOT
BRANCH  17  18
HETATM   18  O3  UNL     1      20.818   3.372  52.418  1.00  0.00    -0.344 OA
HETATM   19  H17 UNL     1      19.897   3.162  52.693  1.00  0.00     0.215 HD
ENDBRANCH  17  18
BRANCH  17  20
HETATM   20  O4  UNL     1      20.603   3.681  50.198  1.00  0.00    -0.339 OA
HETATM   21  C18 UNL     1      20.382   4.991  50.501  1.00  0.00     0.208 C 
ENDBRANCH  17  20
BRANCH   1  22
HETATM   22  C2  UNL     1      16.566  -0.749  52.070  1.00  0.00     0.208 C 
BRANCH  22  23
HETATM   23  O1  UNL     1      15.879  -0.189  53.125  1.00  0.00    -0.391 OA
HETATM   24  C1  UNL     1      14.824   0.618  52.757  1.00  0.00     0.201 C 
ENDBRANCH  22  23
ENDBRANCH   1  22
BRANCH   6  25
HETATM   25  O2  UNL     1      17.770  -2.149  54.098  1.00  0.00    -0.360 OA
HETATM   26  H8  UNL     1      17.861  -3.137  53.878  1.00  0.00     0.217 HD
ENDBRANCH   6  25
TORSDOF 5
ENDMDL
MODEL 5
REMARK VINA RESULT:      -7.2      1.449      1.738
REMARK  5 active torsions:
REMARK  status: ('A' for Active; 'I' for Inactive)
REMARK    1  A    between atoms: O1_2  and  C2_3 
REMARK    2  A    between atoms: C2_3  and  C3_4 
REMARK    3  A    between atoms: C8_9  and  O2_10 
REMARK    4  A    between atoms: C17_21  and  O3_22 
REMARK    5  A    between atoms: C17_21  and  O4_23 
ROOT
HETATM    1  C3  UNL     1      24.146   1.357  52.573  1.00  0.00     0.001 A 
HETATM    2  C4  UNL     1      23.693   2.415  51.764  1.00  0.00     0.044 A 
HETATM    3  C5  UNL     1      24.582   3.070  50.944  1.00  0.00     0.068 A 
HETATM    4  C6  UNL     1      25.934   2.712  50.883  1.00  0.00     0.081 A 
HETATM    5  C7  UNL     1      26.357   1.684  51.676  1.00  0.00     0.070 A 
HETATM    6  C8  UNL     1      25.481   1.016  52.508  1.00  0.00     0.076 A 
HETATM    7  N1  UNL     1      26.946   3.185  50.042  1.00  0.00    -0.276 NA
HETATM    8  C9  UNL     1      27.149   4.166  49.324  1.00  0.00     0.159 C 
HETATM    9  C10 UNL     1      27.205   5.423  48.519  1.00  0.00    -0.001 C 
HETATM   10  C11 UNL     1      26.502   6.594  48.331  1.00  0.00    -0.024 C 
HETATM   11  C12 UNL     1      25.489   6.306  49.322  1.00  0.00     0.069 C 
HETATM   12  C13 UNL     1      24.165   5.886  49.051  1.00  0.00     0.008 C 
HETATM   13  C14 UNL     1      23.351   5.643  48.047  1.00  0.00     0.012 C 
HETATM   14  C15 UNL     1      22.634   4.344  48.247  1.00  0.00     0.018 C 
HETATM   15  C16 UNL     1      22.874   3.597  49.350  1.00  0.00     0.097 C 
HETATM   16  N2  UNL     1      23.779   4.070  50.341  1.00  0.00    -0.295 N 
HETATM   17  C17 UNL     1      23.620   5.528  50.446  1.00  0.00     0.279 C 
ENDROOT
BRANCH  17  18
HETATM   18  O3  UNL     1      24.369   6.019  51.476  1.00  0.00    -0.344 OA
HETATM   19  H17 UNL     1      24.728   6.908  51.254  1.00  0.00     0.215 HD
ENDBRANCH  17  18
BRANCH  17  20
HETATM   20  O4  UNL     1      22.340   5.980  50.500  1.00  0.00    -0.339 OA
HETATM   21  C18 UNL     1      22.131   7.277  50.857  1.00  0.00     0.208 C 
ENDBRANCH  17  20
BRANCH   1  22
HETATM   22  C2  UNL     1      23.292   0.553  53.513  1.00  0.00     0.208 C 
BRANCH  22  23
HETATM   23  O1  UNL     1      23.207  -0.714  52.980  1.00  0.00    -0.391 OA
HETATM   24  C1  UNL     1      22.097  -1.428  53.380  1.00  0.00     0.201 C 
ENDBRANCH  22  23
ENDBRANCH   1  22
BRANCH   6  25
HETATM   25  O2  UNL     1      25.963  -0.038  53.308  1.00  0.00    -0.360 OA
HETATM   26  H8  UNL     1      26.887   0.078  53.715  1.00  0.00     0.217 HD
ENDBRANCH   6  25
TORSDOF 5
ENDMDL
MODEL 6
REMARK VINA RESULT:      -7.1      2.272      5.548
REMARK  5 active torsions:
REMARK  status: ('A' for Active; 'I' for Inactive)
REMARK    1  A    between atoms: O1_2  and  C2_3 
REMARK    2  A    between atoms: C2_3  and  C3_4 
REMARK    3  A    between atoms: C8_9  and  O2_10 
REMARK    4  A    between atoms: C17_21  and  O3_22 
REMARK    5  A    between atoms: C17_21  and  O4_23 
ROOT
HETATM    1  C3  UNL     1      25.359   4.685  49.545  1.00  0.00     0.001 A 
HETATM    2  C4  UNL     1      24.070   4.256  49.912  1.00  0.00     0.044 A 
HETATM    3  C5  UNL     1      23.928   3.179  50.755  1.00  0.00     0.068 A 
HETATM    4  C6  UNL     1      25.035   2.493  51.272  1.00  0.00     0.081 A 
HETATM    5  C7  UNL     1      26.278   2.923  50.905  1.00  0.00     0.070 A 
HETATM    6  C8  UNL     1      26.440   3.999  50.056  1.00  0.00     0.076 A 
HETATM    7  N1  UNL     1      25.085   1.461  52.214  1.00  0.00    -0.276 NA
HETATM    8  C9  UNL     1      24.315   0.628  52.694  1.00  0.00     0.159 C 
HETATM    9  C10 UNL     1      23.235  -0.299  53.147  1.00  0.00    -0.001 C 
HETATM   10  C11 UNL     1      21.936  -0.644  52.840  1.00  0.00    -0.024 C 
HETATM   11  C12 UNL     1      21.819   0.254  51.712  1.00  0.00     0.069 C 
HETATM   12  C13 UNL     1      21.116   1.482  51.705  1.00  0.00     0.008 C 
HETATM   13  C14 UNL     1      20.366   2.240  52.475  1.00  0.00     0.012 C 
HETATM   14  C15 UNL     1      20.813   3.667  52.414  1.00  0.00     0.018 C 
HETATM   15  C16 UNL     1      21.866   4.017  51.639  1.00  0.00     0.097 C 
HETATM   16  N2  UNL     1      22.521   3.033  50.849  1.00  0.00    -0.295 N 
HETATM   17  C17 UNL     1      21.504   2.098  50.348  1.00  0.00     0.279 C 
ENDROOT
BRANCH  17  18
HETATM   18  O3  UNL     1      22.059   1.208  49.474  1.00  0.00    -0.344 OA
HETATM   19  H17 UNL     1      21.364   0.781  48.923  1.00  0.00     0.215 HD
ENDBRANCH  17  18
BRANCH  17  20
HETATM   20  O4  UNL     1      20.382   2.666  49.835  1.00  0.00    -0.339 OA
HETATM   21  C18 UNL     1      20.218   2.658  48.483  1.00  0.00     0.208 C 
ENDBRANCH  17  20
BRANCH   1  22
HETATM   22  C2  UNL     1      25.664   5.842  48.637  1.00  0.00     0.208 C 
BRANCH  22  23
HETATM   23  O1  UNL     1      26.409   6.736  49.375  1.00  0.00    -0.391 OA
HETATM   24  C1  UNL     1      25.662   7.617  50.129  1.00  0.00     0.201 C 
ENDBRANCH  22  23
ENDBRANCH   1  22
BRANCH   6  25
HETATM   25  O2  UNL     1      27.742   4.406  49.706  1.00  0.00    -0.360 OA
HETATM   26  H8  UNL     1      27.958   4.456  48.714  1.00  0.00     0.217 HD
ENDBRANCH   6  25
TORSDOF 5
ENDMDL
MODEL 7
REMARK VINA RESULT:      -6.8      5.621      8.613
REMARK  5 active torsions:
REMARK  status: ('A' for Active; 'I' for Inactive)
REMARK    1  A    between atoms: O1_2  and  C2_3 
REMARK    2  A    between atoms: C2_3  and  C3_4 
REMARK    3  A    between atoms: C8_9  and  O2_10 
REMARK    4  A    between atoms: C17_21  and  O3_22 
REMARK    5  A    between atoms: C17_21  and  O4_23 
ROOT
HETATM    1  C3  UNL     1      26.192   6.571  48.664  1.00  0.00     0.001 A 
HETATM    2  C4  UNL     1      27.211   7.455  48.265  1.00  0.00     0.044 A 
HETATM    3  C5  UNL     1      28.488   6.978  48.080  1.00  0.00     0.068 A 
HETATM    4  C6  UNL     1      28.808   5.629  48.271  1.00  0.00     0.081 A 
HETATM    5  C7  UNL     1      27.807   4.785  48.659  1.00  0.00     0.070 A 
HETATM    6  C8  UNL     1      26.521   5.245  48.854  1.00  0.00     0.076 A 
HETATM    7  N1  UNL     1      30.008   4.953  48.029  1.00  0.00    -0.276 NA
HETATM    8  C9  UNL     1      31.197   5.236  47.867  1.00  0.00     0.159 C 
HETATM    9  C10 UNL     1      32.577   5.782  47.699  1.00  0.00    -0.001 C 
HETATM   10  C11 UNL     1      33.269   6.969  47.812  1.00  0.00    -0.024 C 
HETATM   11  C12 UNL     1      32.134   7.747  48.260  1.00  0.00     0.069 C 
HETATM   12  C13 UNL     1      31.399   8.663  47.471  1.00  0.00     0.008 C 
HETATM   13  C14 UNL     1      31.376   9.193  46.268  1.00  0.00     0.012 C 
HETATM   14  C15 UNL     1      29.989   9.165  45.702  1.00  0.00     0.018 C 
HETATM   15  C16 UNL     1      28.972   8.637  46.422  1.00  0.00     0.097 C 
HETATM   16  N2  UNL     1      29.215   8.145  47.734  1.00  0.00    -0.295 N 
HETATM   17  C17 UNL     1      30.206   9.021  48.375  1.00  0.00     0.279 C 
ENDROOT
BRANCH  17  18
HETATM   18  O3  UNL     1      30.378   8.675  49.684  1.00  0.00    -0.344 OA
HETATM   19  H17 UNL     1      29.937   9.324  50.278  1.00  0.00     0.215 HD
ENDBRANCH  17  18
BRANCH  17  20
HETATM   20  O4  UNL     1      29.989  10.356  48.237  1.00  0.00    -0.339 OA
HETATM   21  C18 UNL     1      30.551  11.196  49.150  1.00  0.00     0.208 C 
ENDBRANCH  17  20
BRANCH   1  22
HETATM   22  C2  UNL     1      24.757   6.949  48.903  1.00  0.00     0.208 C 
BRANCH  22  23
HETATM   23  O1  UNL     1      24.547   6.859  50.261  1.00  0.00    -0.391 OA
HETATM   24  C1  UNL     1      23.752   7.858  50.784  1.00  0.00     0.201 C 
ENDBRANCH  22  23
ENDBRANCH   1  22
BRANCH   6  25
HETATM   25  O2  UNL     1      25.520   4.338  49.254  1.00  0.00    -0.360 OA
HETATM   26  H8  UNL     1      25.640   3.890  50.159  1.00  0.00     0.217 HD
ENDBRANCH   6  25
TORSDOF 5
ENDMDL
MODEL 8
REMARK VINA RESULT:      -6.8      2.079      4.085
REMARK  5 active torsions:
REMARK  status: ('A' for Active; 'I' for Inactive)
REMARK    1  A    between atoms: O1_2  and  C2_3 
REMARK    2  A    between atoms: C2_3  and  C3_4 
REMARK    3  A    between atoms: C8_9  and  O2_10 
REMARK    4  A    between atoms: C17_21  and  O3_22 
REMARK    5  A    between atoms: C17_21  and  O4_23 
ROOT
HETATM    1  C3  UNL     1      20.429   1.258  52.477  1.00  0.00     0.001 A 
HETATM    2  C4  UNL     1      21.534   1.960  51.963  1.00  0.00     0.044 A 
HETATM    3  C5  UNL     1      22.803   1.469  52.167  1.00  0.00     0.068 A 
HETATM    4  C6  UNL     1      23.032   0.280  52.869  1.00  0.00     0.081 A 
HETATM    5  C7  UNL     1      21.948  -0.388  53.362  1.00  0.00     0.070 A 
HETATM    6  C8  UNL     1      20.667   0.090  53.171  1.00  0.00     0.076 A 
HETATM    7  N1  UNL     1      24.226  -0.418  53.077  1.00  0.00    -0.276 NA
HETATM    8  C9  UNL     1      25.436  -0.190  53.021  1.00  0.00     0.159 C 
HETATM    9  C10 UNL     1      26.847   0.283  52.897  1.00  0.00    -0.001 C 
HETATM   10  C11 UNL     1      27.562   1.445  52.695  1.00  0.00    -0.024 C 
HETATM   11  C12 UNL     1      26.405   2.312  52.652  1.00  0.00     0.069 C 
HETATM   12  C13 UNL     1      25.842   2.878  51.483  1.00  0.00     0.008 C 
HETATM   13  C14 UNL     1      26.030   2.946  50.184  1.00  0.00     0.012 C 
HETATM   14  C15 UNL     1      24.750   2.698  49.448  1.00  0.00     0.018 C 
HETATM   15  C16 UNL     1      23.611   2.442  50.133  1.00  0.00     0.097 C 
HETATM   16  N2  UNL     1      23.623   2.450  51.555  1.00  0.00    -0.295 N 
HETATM   17  C17 UNL     1      24.537   3.513  51.998  1.00  0.00     0.279 C 
ENDROOT
BRANCH  17  18
HETATM   18  O3  UNL     1      24.487   3.655  53.354  1.00  0.00    -0.344 OA
HETATM   19  H17 UNL     1      23.741   4.239  53.617  1.00  0.00     0.215 HD
ENDBRANCH  17  18
BRANCH  17  20
HETATM   20  O4  UNL     1      24.402   4.708  51.366  1.00  0.00    -0.339 OA
HETATM   21  C18 UNL     1      23.410   5.545  51.779  1.00  0.00     0.208 C 
ENDBRANCH  17  20
BRANCH   1  22
HETATM   22  C2  UNL     1      18.991   1.672  52.332  1.00  0.00     0.208 C 
BRANCH  22  23
HETATM   23  O1  UNL     1      18.980   3.049  52.292  1.00  0.00    -0.391 OA
HETATM   24  C1  UNL     1      18.273   3.584  51.236  1.00  0.00     0.201 C 
ENDBRANCH  22  23
ENDBRANCH   1  22
BRANCH   6  25
HETATM   25  O2  UNL     1      19.579  -0.633  53.698  1.00  0.00    -0.360 OA
HETATM   26  H8  UNL     1      19.725  -1.624  53.868  1.00  0.00     0.217 HD
ENDBRANCH   6  25
TORSDOF 5
ENDMDL
MODEL 9
REMARK VINA RESULT:      -6.5      2.043      3.221
REMARK  5 active torsions:
REMARK  status: ('A' for Active; 'I' for Inactive)
REMARK    1  A    between atoms: O1_2  and  C2_3 
REMARK    2  A    between atoms: C2_3  and  C3_4 
REMARK    3  A    between atoms: C8_9  and  O2_10 
REMARK    4  A    between atoms: C17_21  and  O3_22 
REMARK    5  A    between atoms: C17_21  and  O4_23 
ROOT
HETATM    1  C3  UNL     1      25.438   1.510  52.058  1.00  0.00     0.001 A 
HETATM    2  C4  UNL     1      24.113   1.601  51.594  1.00  0.00     0.044 A 
HETATM    3  C5  UNL     1      23.781   2.571  50.678  1.00  0.00     0.068 A 
HETATM    4  C6  UNL     1      24.727   3.476  50.182  1.00  0.00     0.081 A 
HETATM    5  C7  UNL     1      26.008   3.374  50.644  1.00  0.00     0.070 A 
HETATM    6  C8  UNL     1      26.360   2.409  51.566  1.00  0.00     0.076 A 
HETATM    7  N1  UNL     1      24.599   4.444  49.181  1.00  0.00    -0.276 NA
HETATM    8  C9  UNL     1      23.689   5.045  48.607  1.00  0.00     0.159 C 
HETATM    9  C10 UNL     1      22.454   5.663  48.037  1.00  0.00    -0.001 C 
HETATM   10  C11 UNL     1      21.093   5.702  48.249  1.00  0.00    -0.024 C 
HETATM   11  C12 UNL     1      21.113   4.858  49.423  1.00  0.00     0.069 C 
HETATM   12  C13 UNL     1      20.720   3.499  49.468  1.00  0.00     0.008 C 
HETATM   13  C14 UNL     1      20.225   2.548  48.707  1.00  0.00     0.012 C 
HETATM   14  C15 UNL     1      20.991   1.273  48.882  1.00  0.00     0.018 C 
HETATM   15  C16 UNL     1      22.040   1.223  49.735  1.00  0.00     0.097 C 
HETATM   16  N2  UNL     1      22.389   2.372  50.497  1.00  0.00    -0.295 N 
HETATM   17  C17 UNL     1      21.148   3.060  50.881  1.00  0.00     0.279 C 
ENDROOT
BRANCH  17  18
HETATM   18  O3  UNL     1      21.415   4.097  51.726  1.00  0.00    -0.344 OA
HETATM   19  H17 UNL     1      21.612   3.768  52.632  1.00  0.00     0.215 HD
ENDBRANCH  17  18
BRANCH  17  20
HETATM   20  O4  UNL     1      20.158   2.264  51.365  1.00  0.00    -0.339 OA
HETATM   21  C18 UNL     1      20.153   1.985  52.698  1.00  0.00     0.208 C 
ENDBRANCH  17  20
BRANCH   1  22
HETATM   22  C2  UNL     1      25.945   0.504  53.053  1.00  0.00     0.208 C 
BRANCH  22  23
HETATM   23  O1  UNL     1      26.877  -0.267  52.395  1.00  0.00    -0.391 OA
HETATM   24  C1  UNL     1      26.720  -1.626  52.569  1.00  0.00     0.201 C 
ENDBRANCH  22  23
ENDBRANCH   1  22
BRANCH   6  25
HETATM   25  O2  UNL     1      27.695   2.343  52.014  1.00  0.00    -0.360 OA
HETATM   26  H8  UNL     1      28.087   3.188  52.418  1.00  0.00     0.217 HD
ENDBRANCH   6  25
TORSDOF 5
ENDMDL
