MODEL 1
REMARK VINA RESULT:      -9.0      0.000      0.000
REMARK  6 active torsions:
REMARK  status: ('A' for Active; 'I' for Inactive)
REMARK    1  A    between atoms: C15_19  and  C16_20 
REMARK    2  A    between atoms: C16_20  and  C17_21 
REMARK    3  A    between atoms: C17_21  and  C18_22 
REMARK    4  A    between atoms: C18_22  and  C19_23 
REMARK    5  A    between atoms: C19_23  and  N2_24 
REMARK    6  A    between atoms: N2_24  and  O2_25 
ROOT
HETATM    1  C1  UNL     1      20.842  -1.219  54.235  1.00  0.00     0.042 C 
HETATM    2  C2  UNL     1      21.452  -0.472  53.342  1.00  0.00     0.020 C 
HETATM    3  C3  UNL     1      20.523  -0.139  52.252  1.00  0.00     0.061 C 
HETATM    4  C4  UNL     1      20.793   0.620  51.149  1.00  0.00     0.204 A 
HETATM    5 CL1  UNL     1      19.518   0.904  49.932  1.00  0.00    -0.126 Cl
HETATM    6  C5  UNL     1      21.364   1.482  50.084  1.00  0.00     0.203 A 
HETATM    7  F1  UNL     1      22.089   1.177  51.145  1.00  0.00    -0.345 F 
HETATM    8  C6  UNL     1      22.486   2.109  49.818  1.00  0.00     0.044 C 
HETATM    9  C7  UNL     1      23.834   2.486  50.144  1.00  0.00    -0.035 A 
HETATM   10  C8  UNL     1      24.776   3.251  49.572  1.00  0.00     0.014 A 
HETATM   11  C9  UNL     1      25.981   3.310  50.231  1.00  0.00     0.038 A 
HETATM   12  C10 UNL     1      26.248   2.632  51.426  1.00  0.00     0.077 A 
HETATM   13  C11 UNL     1      25.331   1.809  52.104  1.00  0.00     0.005 A 
HETATM   14  C12 UNL     1      24.231   1.891  51.295  1.00  0.00     0.024 A 
HETATM   15  C13 UNL     1      25.693   1.125  53.343  1.00  0.00     0.165 C 
HETATM   16  O1  UNL     1      25.236  -0.095  53.608  1.00  0.00    -0.362 OA
HETATM   17  C14 UNL     1      24.127  -0.697  53.260  1.00  0.00     0.291 C 
HETATM   18  N1  UNL     1      22.830  -0.186  53.657  1.00  0.00    -0.369 N 
HETATM   19  C15 UNL     1      27.232   0.972  53.231  1.00  0.00     0.044 C 
HETATM   20  C20 UNL     1      27.907   2.298  53.175  1.00  0.00     0.183 C 
HETATM   21  O3  UNL     1      27.555   2.859  51.895  1.00  0.00    -0.350 OA
HETATM   22  H11 UNL     1      22.819   0.595  54.354  1.00  0.00     0.161 HD
ENDROOT
BRANCH  19  23
HETATM   23  C16 UNL     1      27.782  -0.032  54.164  1.00  0.00     0.010 C 
BRANCH  23  24
HETATM   24  C17 UNL     1      29.253  -0.239  54.168  1.00  0.00     0.002 C 
BRANCH  24  25
HETATM   25  C18 UNL     1      29.554  -1.310  53.106  1.00  0.00     0.017 C 
BRANCH  25  26
HETATM   26  C19 UNL     1      29.794  -2.655  53.711  1.00  0.00     0.117 C 
BRANCH  26  27
HETATM   27  N2  UNL     1      28.664  -3.508  53.414  1.00  0.00    -0.209 NA
HETATM   28  H21 UNL     1      28.088  -3.533  54.304  1.00  0.00     0.153 HD
BRANCH  27  29
HETATM   29  O2  UNL     1      27.869  -3.040  52.444  1.00  0.00    -0.316 OA
HETATM   30  H22 UNL     1      28.375  -2.895  51.585  1.00  0.00     0.236 HD
ENDBRANCH  27  29
ENDBRANCH  26  27
ENDBRANCH  25  26
ENDBRANCH  24  25
ENDBRANCH  23  24
ENDBRANCH  19  23
TORSDOF 6
ENDMDL
MODEL 2
REMARK VINA RESULT:      -9.0      3.505      6.210
REMARK  6 active torsions:
REMARK  status: ('A' for Active; 'I' for Inactive)
REMARK    1  A    between atoms: C15_19  and  C16_20 
REMARK    2  A    between atoms: C16_20  and  C17_21 
REMARK    3  A    between atoms: C17_21  and  C18_22 
REMARK    4  A    between atoms: C18_22  and  C19_23 
REMARK    5  A    between atoms: C19_23  and  N2_24 
REMARK    6  A    between atoms: N2_24  and  O2_25 
ROOT
HETATM    1  C1  UNL     1      18.941   1.782  51.769  1.00  0.00     0.042 C 
HETATM    2  C2  UNL     1      20.199   1.491  52.012  1.00  0.00     0.020 C 
HETATM    3  C3  UNL     1      20.280   0.321  52.898  1.00  0.00     0.061 C 
HETATM    4  C4  UNL     1      21.415  -0.276  53.366  1.00  0.00     0.204 A 
HETATM    5 CL1  UNL     1      21.294  -1.695  54.442  1.00  0.00    -0.126 Cl
HETATM    6  C5  UNL     1      22.794  -0.715  53.697  1.00  0.00     0.203 A 
HETATM    7  F1  UNL     1      22.604   0.285  52.855  1.00  0.00    -0.345 F 
HETATM    8  C6  UNL     1      24.031  -0.394  53.396  1.00  0.00     0.044 C 
HETATM    9  C7  UNL     1      24.996   0.410  52.697  1.00  0.00    -0.035 A 
HETATM   10  C8  UNL     1      26.334   0.431  52.608  1.00  0.00     0.014 A 
HETATM   11  C9  UNL     1      26.867   1.428  51.825  1.00  0.00     0.038 A 
HETATM   12  C10 UNL     1      26.096   2.380  51.147  1.00  0.00     0.077 A 
HETATM   13  C11 UNL     1      24.692   2.443  51.176  1.00  0.00     0.005 A 
HETATM   14  C12 UNL     1      24.381   1.388  51.989  1.00  0.00     0.024 A 
HETATM   15  C13 UNL     1      23.961   3.477  50.447  1.00  0.00     0.165 C 
HETATM   16  O1  UNL     1      22.853   4.014  50.952  1.00  0.00    -0.362 OA
HETATM   17  C14 UNL     1      21.939   3.520  51.747  1.00  0.00     0.291 C 
HETATM   18  N1  UNL     1      21.141   2.372  51.366  1.00  0.00    -0.369 N 
HETATM   19  C15 UNL     1      24.980   4.642  50.361  1.00  0.00     0.044 C 
HETATM   20  C20 UNL     1      26.192   4.248  49.591  1.00  0.00     0.183 C 
HETATM   21  O3  UNL     1      26.882   3.289  50.417  1.00  0.00    -0.350 OA
HETATM   22  H11 UNL     1      21.220   2.045  50.374  1.00  0.00     0.161 HD
ENDROOT
BRANCH  19  23
HETATM   23  C16 UNL     1      24.352   5.936  50.026  1.00  0.00     0.010 C 
BRANCH  23  24
HETATM   24  C17 UNL     1      24.640   7.094  50.910  1.00  0.00     0.002 C 
BRANCH  24  25
HETATM   25  C18 UNL     1      24.662   8.343  50.013  1.00  0.00     0.017 C 
BRANCH  25  26
HETATM   26  C19 UNL     1      26.051   8.749  49.643  1.00  0.00     0.117 C 
BRANCH  26  27
HETATM   27  N2  UNL     1      26.911   8.566  50.791  1.00  0.00    -0.209 NA
HETATM   28  H21 UNL     1      27.620   7.834  50.498  1.00  0.00     0.153 HD
BRANCH  27  29
HETATM   29  O2  UNL     1      27.597   9.661  51.138  1.00  0.00    -0.316 OA
HETATM   30  H22 UNL     1      28.416   9.786  50.565  1.00  0.00     0.236 HD
ENDBRANCH  27  29
ENDBRANCH  26  27
ENDBRANCH  25  26
ENDBRANCH  24  25
ENDBRANCH  23  24
ENDBRANCH  19  23
TORSDOF 6
ENDMDL
MODEL 3
REMARK VINA RESULT:      -8.9      3.389      5.667
REMARK  6 active torsions:
REMARK  status: ('A' for Active; 'I' for Inactive)
REMARK    1  A    between atoms: C15_19  and  C16_20 
REMARK    2  A    between atoms: C16_20  and  C17_21 
REMARK    3  A    between atoms: C17_21  and  C18_22 
REMARK    4  A    between atoms: C18_22  and  C19_23 
REMARK    5  A    between atoms: C19_23  and  N2_24 
REMARK    6  A    between atoms: N2_24  and  O2_25 
ROOT
HETATM    1  C1  UNL     1      26.652   0.194  54.883  1.00  0.00     0.042 C 
HETATM    2  C2  UNL     1      25.659   0.391  54.045  1.00  0.00     0.020 C 
HETATM    3  C3  UNL     1      24.560  -0.539  54.345  1.00  0.00     0.061 C 
HETATM    4  C4  UNL     1      23.364  -0.632  53.693  1.00  0.00     0.204 A 
HETATM    5 CL1  UNL     1      22.158  -1.840  54.215  1.00  0.00    -0.126 Cl
HETATM    6  C5  UNL     1      22.170  -0.491  52.821  1.00  0.00     0.203 A 
HETATM    7  F1  UNL     1      23.190   0.338  52.684  1.00  0.00    -0.345 F 
HETATM    8  C6  UNL     1      21.750   0.274  51.840  1.00  0.00     0.044 C 
HETATM    9  C7  UNL     1      21.924   1.366  50.922  1.00  0.00    -0.035 A 
HETATM   10  C8  UNL     1      21.177   1.936  49.965  1.00  0.00     0.014 A 
HETATM   11  C9  UNL     1      21.768   2.972  49.280  1.00  0.00     0.038 A 
HETATM   12  C10 UNL     1      23.065   3.433  49.536  1.00  0.00     0.077 A 
HETATM   13  C11 UNL     1      23.925   2.905  50.515  1.00  0.00     0.005 A 
HETATM   14  C12 UNL     1      23.156   1.915  51.060  1.00  0.00     0.024 A 
HETATM   15  C13 UNL     1      25.271   3.438  50.712  1.00  0.00     0.165 C 
HETATM   16  O1  UNL     1      26.284   2.635  51.027  1.00  0.00    -0.362 OA
HETATM   17  C14 UNL     1      26.318   1.509  51.694  1.00  0.00     0.291 C 
HETATM   18  N1  UNL     1      25.902   1.435  53.080  1.00  0.00    -0.369 N 
HETATM   19  C15 UNL     1      25.631   4.026  49.323  1.00  0.00     0.044 C 
HETATM   20  C20 UNL     1      24.705   5.130  48.946  1.00  0.00     0.183 C 
HETATM   21  O3  UNL     1      23.432   4.502  48.699  1.00  0.00    -0.350 OA
HETATM   22  H11 UNL     1      25.714   2.342  53.570  1.00  0.00     0.161 HD
ENDROOT
BRANCH  19  23
HETATM   23  C16 UNL     1      27.078   4.263  49.153  1.00  0.00     0.010 C 
BRANCH  23  24
HETATM   24  C17 UNL     1      27.500   5.548  48.538  1.00  0.00     0.002 C 
BRANCH  24  25
HETATM   25  C18 UNL     1      28.990   5.402  48.184  1.00  0.00     0.017 C 
BRANCH  25  26
HETATM   26  C19 UNL     1      29.710   6.711  48.217  1.00  0.00     0.117 C 
BRANCH  26  27
HETATM   27  N2  UNL     1      30.570   6.741  49.380  1.00  0.00    -0.209 NA
HETATM   28  H21 UNL     1      30.037   7.293  50.111  1.00  0.00     0.153 HD
BRANCH  27  29
HETATM   29  O2  UNL     1      30.821   5.534  49.902  1.00  0.00    -0.316 OA
HETATM   30  H22 UNL     1      30.184   5.312  50.650  1.00  0.00     0.236 HD
ENDBRANCH  27  29
ENDBRANCH  26  27
ENDBRANCH  25  26
ENDBRANCH  24  25
ENDBRANCH  23  24
ENDBRANCH  19  23
TORSDOF 6
ENDMDL
MODEL 4
REMARK VINA RESULT:      -8.6      2.351      4.344
REMARK  6 active torsions:
REMARK  status: ('A' for Active; 'I' for Inactive)
REMARK    1  A    between atoms: C15_19  and  C16_20 
REMARK    2  A    between atoms: C16_20  and  C17_21 
REMARK    3  A    between atoms: C17_21  and  C18_22 
REMARK    4  A    between atoms: C18_22  and  C19_23 
REMARK    5  A    between atoms: C19_23  and  N2_24 
REMARK    6  A    between atoms: N2_24  and  O2_25 
ROOT
HETATM    1  C1  UNL     1      20.523   2.323  48.603  1.00  0.00     0.042 C 
HETATM    2  C2  UNL     1      20.570   1.643  49.726  1.00  0.00     0.020 C 
HETATM    3  C3  UNL     1      19.233   1.126  50.053  1.00  0.00     0.061 C 
HETATM    4  C4  UNL     1      18.888   0.374  51.140  1.00  0.00     0.204 A 
HETATM    5 CL1  UNL     1      17.196  -0.153  51.356  1.00  0.00    -0.126 Cl
HETATM    6  C5  UNL     1      18.817  -0.432  52.385  1.00  0.00     0.203 A 
HETATM    7  F1  UNL     1      19.981   0.025  51.959  1.00  0.00    -0.345 F 
HETATM    8  C6  UNL     1      19.627  -0.888  53.312  1.00  0.00     0.044 C 
HETATM    9  C7  UNL     1      20.935  -1.038  53.889  1.00  0.00    -0.035 A 
HETATM   10  C8  UNL     1      21.437  -1.670  54.960  1.00  0.00     0.014 A 
HETATM   11  C9  UNL     1      22.788  -1.515  55.167  1.00  0.00     0.038 A 
HETATM   12  C10 UNL     1      23.620  -0.756  54.336  1.00  0.00     0.077 A 
HETATM   13  C11 UNL     1      23.191  -0.058  53.193  1.00  0.00     0.005 A 
HETATM   14  C12 UNL     1      21.854  -0.343  53.177  1.00  0.00     0.024 A 
HETATM   15  C13 UNL     1      24.124   0.723  52.384  1.00  0.00     0.165 C 
HETATM   16  O1  UNL     1      23.746   1.868  51.822  1.00  0.00    -0.362 OA
HETATM   17  C14 UNL     1      22.579   2.276  51.392  1.00  0.00     0.291 C 
HETATM   18  N1  UNL     1      21.881   1.587  50.326  1.00  0.00    -0.369 N 
HETATM   19  C15 UNL     1      25.237   1.108  53.392  1.00  0.00     0.044 C 
HETATM   20  C20 UNL     1      25.927  -0.099  53.926  1.00  0.00     0.183 C 
HETATM   21  O3  UNL     1      24.959  -0.759  54.766  1.00  0.00    -0.350 OA
HETATM   22  H11 UNL     1      22.409   0.842  49.813  1.00  0.00     0.161 HD
ENDROOT
BRANCH  19  23
HETATM   23  C16 UNL     1      26.084   2.222  52.920  1.00  0.00     0.010 C 
BRANCH  23  24
HETATM   24  C17 UNL     1      27.463   1.900  52.473  1.00  0.00     0.002 C 
BRANCH  24  25
HETATM   25  C18 UNL     1      28.419   2.468  53.536  1.00  0.00     0.017 C 
BRANCH  25  26
HETATM   26  C19 UNL     1      29.135   1.391  54.284  1.00  0.00     0.117 C 
BRANCH  26  27
HETATM   27  N2  UNL     1      29.845   0.559  53.338  1.00  0.00    -0.209 NA
HETATM   28  H21 UNL     1      30.802   1.001  53.235  1.00  0.00     0.153 HD
BRANCH  27  29
HETATM   29  O2  UNL     1      30.034  -0.699  53.754  1.00  0.00    -0.316 OA
HETATM   30  H22 UNL     1      29.315  -1.317  53.414  1.00  0.00     0.236 HD
ENDBRANCH  27  29
ENDBRANCH  26  27
ENDBRANCH  25  26
ENDBRANCH  24  25
ENDBRANCH  23  24
ENDBRANCH  19  23
TORSDOF 6
ENDMDL
MODEL 5
REMARK VINA RESULT:      -8.5      3.012      5.057
REMARK  6 active torsions:
REMARK  status: ('A' for Active; 'I' for Inactive)
REMARK    1  A    between atoms: C15_19  and  C16_20 
REMARK    2  A    between atoms: C16_20  and  C17_21 
REMARK    3  A    between atoms: C17_21  and  C18_22 
REMARK    4  A    between atoms: C18_22  and  C19_23 
REMARK    5  A    between atoms: C19_23  and  N2_24 
REMARK    6  A    between atoms: N2_24  and  O2_25 
ROOT
HETATM    1  C1  UNL     1      27.543   4.656  48.711  1.00  0.00     0.042 C 
HETATM    2  C2  UNL     1      26.388   4.488  49.313  1.00  0.00     0.020 C 
HETATM    3  C3  UNL     1      25.486   5.601  48.984  1.00  0.00     0.061 C 
HETATM    4  C4  UNL     1      24.202   5.773  49.419  1.00  0.00     0.204 A 
HETATM    5 CL1  UNL     1      23.272   7.207  48.900  1.00  0.00    -0.126 Cl
HETATM    6  C5  UNL     1      22.851   5.684  50.028  1.00  0.00     0.203 A 
HETATM    7  F1  UNL     1      23.720   4.704  50.202  1.00  0.00    -0.345 F 
HETATM    8  C6  UNL     1      22.159   4.856  50.775  1.00  0.00     0.044 C 
HETATM    9  C7  UNL     1      22.019   3.630  51.512  1.00  0.00    -0.035 A 
HETATM   10  C8  UNL     1      21.036   3.045  52.211  1.00  0.00     0.014 A 
HETATM   11  C9  UNL     1      21.355   1.847  52.806  1.00  0.00     0.038 A 
HETATM   12  C10 UNL     1      22.614   1.243  52.711  1.00  0.00     0.077 A 
HETATM   13  C11 UNL     1      23.708   1.774  52.004  1.00  0.00     0.005 A 
HETATM   14  C12 UNL     1      23.182   2.934  51.506  1.00  0.00     0.024 A 
HETATM   15  C13 UNL     1      24.995   1.085  51.964  1.00  0.00     0.165 C 
HETATM   16  O1  UNL     1      26.136   1.769  51.973  1.00  0.00    -0.362 OA
HETATM   17  C14 UNL     1      26.432   2.961  51.523  1.00  0.00     0.291 C 
HETATM   18  N1  UNL     1      26.312   3.293  50.117  1.00  0.00    -0.369 N 
HETATM   19  C15 UNL     1      25.001   0.258  53.275  1.00  0.00     0.044 C 
HETATM   20  C20 UNL     1      23.897  -0.742  53.291  1.00  0.00     0.183 C 
HETATM   21  O3  UNL     1      22.681   0.023  53.408  1.00  0.00    -0.350 OA
HETATM   22  H11 UNL     1      26.122   2.503  49.456  1.00  0.00     0.161 HD
ENDROOT
BRANCH  19  23
HETATM   23  C16 UNL     1      26.348  -0.209  53.658  1.00  0.00     0.010 C 
BRANCH  23  24
HETATM   24  C17 UNL     1      26.871   0.203  54.986  1.00  0.00     0.002 C 
BRANCH  24  25
HETATM   25  C18 UNL     1      28.405   0.222  54.873  1.00  0.00     0.017 C 
BRANCH  25  26
HETATM   26  C19 UNL     1      28.866   0.556  53.492  1.00  0.00     0.117 C 
BRANCH  26  27
HETATM   27  N2  UNL     1      29.352   1.918  53.480  1.00  0.00    -0.209 NA
HETATM   28  H21 UNL     1      28.548   2.502  53.112  1.00  0.00     0.153 HD
BRANCH  27  29
HETATM   29  O2  UNL     1      29.664   2.396  54.691  1.00  0.00    -0.316 OA
HETATM   30  H22 UNL     1      29.393   3.360  54.793  1.00  0.00     0.236 HD
ENDBRANCH  27  29
ENDBRANCH  26  27
ENDBRANCH  25  26
ENDBRANCH  24  25
ENDBRANCH  23  24
ENDBRANCH  19  23
TORSDOF 6
ENDMDL
MODEL 6
REMARK VINA RESULT:      -8.3      3.372      6.688
REMARK  6 active torsions:
REMARK  status: ('A' for Active; 'I' for Inactive)
REMARK    1  A    between atoms: C15_19  and  C16_20 
REMARK    2  A    between atoms: C16_20  and  C17_21 
REMARK    3  A    between atoms: C17_21  and  C18_22 
REMARK    4  A    between atoms: C18_22  and  C19_23 
REMARK    5  A    between atoms: C19_23  and  N2_24 
REMARK    6  A    between atoms: N2_24  and  O2_25 
ROOT
HETATM    1  C1  UNL     1      21.904   4.345  49.089  1.00  0.00     0.042 C 
HETATM    2  C2  UNL     1      22.861   3.700  49.717  1.00  0.00     0.020 C 
HETATM    3  C3  UNL     1      24.172   4.178  49.254  1.00  0.00     0.061 C 
HETATM    4  C4  UNL     1      25.398   3.748  49.677  1.00  0.00     0.204 A 
HETATM    5 CL1  UNL     1      26.879   4.459  48.980  1.00  0.00    -0.126 Cl
HETATM    6  C5  UNL     1      26.564   3.104  50.332  1.00  0.00     0.203 A 
HETATM    7  F1  UNL     1      25.338   2.800  50.719  1.00  0.00    -0.345 F 
HETATM    8  C6  UNL     1      26.804   2.225  51.277  1.00  0.00     0.044 C 
HETATM    9  C7  UNL     1      26.367   1.306  52.292  1.00  0.00    -0.035 A 
HETATM   10  C8  UNL     1      26.975   0.505  53.179  1.00  0.00     0.014 A 
HETATM   11  C9  UNL     1      26.144  -0.259  53.965  1.00  0.00     0.038 A 
HETATM   12  C10 UNL     1      24.747  -0.232  53.876  1.00  0.00     0.077 A 
HETATM   13  C11 UNL     1      24.016   0.571  52.982  1.00  0.00     0.005 A 
HETATM   14  C12 UNL     1      25.014   1.230  52.318  1.00  0.00     0.024 A 
HETATM   15  C13 UNL     1      22.556   0.532  52.944  1.00  0.00     0.165 C 
HETATM   16  O1  UNL     1      21.900   0.651  51.793  1.00  0.00    -0.362 OA
HETATM   17  C14 UNL     1      22.201   1.285  50.689  1.00  0.00     0.291 C 
HETATM   18  N1  UNL     1      22.388   2.722  50.665  1.00  0.00    -0.369 N 
HETATM   19  C15 UNL     1      22.222  -0.890  53.463  1.00  0.00     0.044 C 
HETATM   20  C20 UNL     1      22.692  -1.081  54.863  1.00  0.00     0.183 C 
HETATM   21  O3  UNL     1      24.131  -1.106  54.789  1.00  0.00    -0.350 OA
HETATM   22  H11 UNL     1      22.128   3.250  51.531  1.00  0.00     0.161 HD
ENDROOT
BRANCH  19  23
HETATM   23  C16 UNL     1      20.843  -1.311  53.145  1.00  0.00     0.010 C 
BRANCH  23  24
HETATM   24  C17 UNL     1      19.730  -0.454  53.626  1.00  0.00     0.002 C 
BRANCH  24  25
HETATM   25  C18 UNL     1      18.784  -0.242  52.432  1.00  0.00     0.017 C 
BRANCH  25  26
HETATM   26  C19 UNL     1      17.429  -0.820  52.674  1.00  0.00     0.117 C 
BRANCH  26  27
HETATM   27  N2  UNL     1      17.429  -1.486  53.958  1.00  0.00    -0.209 NA
HETATM   28  H21 UNL     1      16.566  -1.131  54.461  1.00  0.00     0.153 HD
BRANCH  27  29
HETATM   29  O2  UNL     1      17.320  -2.818  53.881  1.00  0.00    -0.316 OA
HETATM   30  H22 UNL     1      17.500  -3.154  52.949  1.00  0.00     0.236 HD
ENDBRANCH  27  29
ENDBRANCH  26  27
ENDBRANCH  25  26
ENDBRANCH  24  25
ENDBRANCH  23  24
ENDBRANCH  19  23
TORSDOF 6
ENDMDL
MODEL 7
REMARK VINA RESULT:      -8.1      3.232      5.947
REMARK  6 active torsions:
REMARK  status: ('A' for Active; 'I' for Inactive)
REMARK    1  A    between atoms: C15_19  and  C16_20 
REMARK    2  A    between atoms: C16_20  and  C17_21 
REMARK    3  A    between atoms: C17_21  and  C18_22 
REMARK    4  A    between atoms: C18_22  and  C19_23 
REMARK    5  A    between atoms: C19_23  and  N2_24 
REMARK    6  A    between atoms: N2_24  and  O2_25 
ROOT
HETATM    1  C1  UNL     1      19.008   1.625  51.518  1.00  0.00     0.042 C 
HETATM    2  C2  UNL     1      20.253   1.348  51.834  1.00  0.00     0.020 C 
HETATM    3  C3  UNL     1      20.293   0.200  52.751  1.00  0.00     0.061 C 
HETATM    4  C4  UNL     1      21.404  -0.379  53.293  1.00  0.00     0.204 A 
HETATM    5 CL1  UNL     1      21.234  -1.773  54.395  1.00  0.00    -0.126 Cl
HETATM    6  C5  UNL     1      22.766  -0.801  53.707  1.00  0.00     0.203 A 
HETATM    7  F1  UNL     1      22.616   0.177  52.832  1.00  0.00    -0.345 F 
HETATM    8  C6  UNL     1      24.016  -0.480  53.464  1.00  0.00     0.044 C 
HETATM    9  C7  UNL     1      25.013   0.312  52.797  1.00  0.00    -0.035 A 
HETATM   10  C8  UNL     1      26.353   0.339  52.778  1.00  0.00     0.014 A 
HETATM   11  C9  UNL     1      26.922   1.321  52.001  1.00  0.00     0.038 A 
HETATM   12  C10 UNL     1      26.184   2.251  51.260  1.00  0.00     0.077 A 
HETATM   13  C11 UNL     1      24.779   2.306  51.213  1.00  0.00     0.005 A 
HETATM   14  C12 UNL     1      24.431   1.269  52.034  1.00  0.00     0.024 A 
HETATM   15  C13 UNL     1      24.083   3.318  50.422  1.00  0.00     0.165 C 
HETATM   16  O1  UNL     1      22.948   3.860  50.854  1.00  0.00    -0.362 OA
HETATM   17  C14 UNL     1      21.995   3.381  51.612  1.00  0.00     0.291 C 
HETATM   18  N1  UNL     1      21.224   2.219  51.217  1.00  0.00    -0.369 N 
HETATM   19  C15 UNL     1      25.100   4.487  50.361  1.00  0.00     0.044 C 
HETATM   20  C20 UNL     1      26.353   4.081  49.666  1.00  0.00     0.183 C 
HETATM   21  O3  UNL     1      27.003   3.147  50.550  1.00  0.00    -0.350 OA
HETATM   22  H11 UNL     1      21.357   1.869  50.239  1.00  0.00     0.161 HD
ENDROOT
BRANCH  19  23
HETATM   23  C16 UNL     1      24.484   5.768  49.962  1.00  0.00     0.010 C 
BRANCH  23  24
HETATM   24  C17 UNL     1      24.508   6.126  48.520  1.00  0.00     0.002 C 
BRANCH  24  25
HETATM   25  C18 UNL     1      23.047   6.139  48.041  1.00  0.00     0.017 C 
BRANCH  25  26
HETATM   26  C19 UNL     1      22.614   4.811  47.511  1.00  0.00     0.117 C 
BRANCH  26  27
HETATM   27  N2  UNL     1      21.311   4.495  48.054  1.00  0.00    -0.209 NA
HETATM   28  H21 UNL     1      20.629   4.642  47.255  1.00  0.00     0.153 HD
BRANCH  27  29
HETATM   29  O2  UNL     1      21.181   3.225  48.455  1.00  0.00    -0.316 OA
HETATM   30  H22 UNL     1      21.785   3.015  49.233  1.00  0.00     0.236 HD
ENDBRANCH  27  29
ENDBRANCH  26  27
ENDBRANCH  25  26
ENDBRANCH  24  25
ENDBRANCH  23  24
ENDBRANCH  19  23
TORSDOF 6
ENDMDL
MODEL 8
REMARK VINA RESULT:      -8.0      3.863      7.980
REMARK  6 active torsions:
REMARK  status: ('A' for Active; 'I' for Inactive)
REMARK    1  A    between atoms: C15_19  and  C16_20 
REMARK    2  A    between atoms: C16_20  and  C17_21 
REMARK    3  A    between atoms: C17_21  and  C18_22 
REMARK    4  A    between atoms: C18_22  and  C19_23 
REMARK    5  A    between atoms: C19_23  and  N2_24 
REMARK    6  A    between atoms: N2_24  and  O2_25 
ROOT
HETATM    1  C1  UNL     1      24.817   3.818  49.613  1.00  0.00     0.042 C 
HETATM    2  C2  UNL     1      24.536   2.875  50.483  1.00  0.00     0.020 C 
HETATM    3  C3  UNL     1      25.767   2.426  51.149  1.00  0.00     0.061 C 
HETATM    4  C4  UNL     1      25.875   1.465  52.113  1.00  0.00     0.204 A 
HETATM    5 CL1  UNL     1      27.476   1.063  52.794  1.00  0.00    -0.126 Cl
HETATM    6  C5  UNL     1      25.681   0.409  53.139  1.00  0.00     0.203 A 
HETATM    7  F1  UNL     1      24.635   0.934  52.526  1.00  0.00    -0.345 F 
HETATM    8  C6  UNL     1      24.696  -0.255  53.698  1.00  0.00     0.044 C 
HETATM    9  C7  UNL     1      23.299  -0.553  53.856  1.00  0.00    -0.035 A 
HETATM   10  C8  UNL     1      22.582  -1.374  54.636  1.00  0.00     0.014 A 
HETATM   11  C9  UNL     1      21.223  -1.367  54.423  1.00  0.00     0.038 A 
HETATM   12  C10 UNL     1      20.590  -0.569  53.464  1.00  0.00     0.077 A 
HETATM   13  C11 UNL     1      21.251   0.322  52.600  1.00  0.00     0.005 A 
HETATM   14  C12 UNL     1      22.556   0.159  52.974  1.00  0.00     0.024 A 
HETATM   15  C13 UNL     1      20.516   1.113  51.616  1.00  0.00     0.165 C 
HETATM   16  O1  UNL     1      21.036   1.366  50.418  1.00  0.00    -0.362 OA
HETATM   17  C14 UNL     1      22.277   1.496  50.024  1.00  0.00     0.291 C 
HETATM   18  N1  UNL     1      23.135   2.537  50.553  1.00  0.00    -0.369 N 
HETATM   19  C15 UNL     1      19.250   0.261  51.343  1.00  0.00     0.044 C 
HETATM   20  C20 UNL     1      18.427   0.103  52.574  1.00  0.00     0.183 C 
HETATM   21  O3  UNL     1      19.195  -0.748  53.448  1.00  0.00    -0.350 OA
HETATM   22  H11 UNL     1      22.683   3.271  51.149  1.00  0.00     0.161 HD
ENDROOT
BRANCH  19  23
HETATM   23  C16 UNL     1      18.550   0.647  50.102  1.00  0.00     0.010 C 
BRANCH  23  24
HETATM   24  C17 UNL     1      17.414   1.598  50.216  1.00  0.00     0.002 C 
BRANCH  24  25
HETATM   25  C18 UNL     1      17.800   2.849  49.409  1.00  0.00     0.017 C 
BRANCH  25  26
HETATM   26  C19 UNL     1      18.461   3.887  50.257  1.00  0.00     0.117 C 
BRANCH  26  27
HETATM   27  N2  UNL     1      19.792   4.129  49.744  1.00  0.00    -0.209 NA
HETATM   28  H21 UNL     1      19.693   4.946  49.076  1.00  0.00     0.153 HD
BRANCH  27  29
HETATM   29  O2  UNL     1      20.679   4.490  50.679  1.00  0.00    -0.316 OA
HETATM   30  H22 UNL     1      21.189   5.315  50.411  1.00  0.00     0.236 HD
ENDBRANCH  27  29
ENDBRANCH  26  27
ENDBRANCH  25  26
ENDBRANCH  24  25
ENDBRANCH  23  24
ENDBRANCH  19  23
TORSDOF 6
ENDMDL
MODEL 9
REMARK VINA RESULT:      -7.9      3.633      7.058
REMARK  6 active torsions:
REMARK  status: ('A' for Active; 'I' for Inactive)
REMARK    1  A    between atoms: C15_19  and  C16_20 
REMARK    2  A    between atoms: C16_20  and  C17_21 
REMARK    3  A    between atoms: C17_21  and  C18_22 
REMARK    4  A    between atoms: C18_22  and  C19_23 
REMARK    5  A    between atoms: C19_23  and  N2_24 
REMARK    6  A    between atoms: N2_24  and  O2_25 
ROOT
HETATM    1  C1  UNL     1      22.495   5.384  48.599  1.00  0.00     0.042 C 
HETATM    2  C2  UNL     1      23.280   4.558  49.255  1.00  0.00     0.020 C 
HETATM    3  C3  UNL     1      24.687   4.864  48.959  1.00  0.00     0.061 C 
HETATM    4  C4  UNL     1      25.787   4.224  49.455  1.00  0.00     0.204 A 
HETATM    5 CL1  UNL     1      27.420   4.752  48.962  1.00  0.00    -0.126 Cl
HETATM    6  C5  UNL     1      26.774   3.366  50.158  1.00  0.00     0.203 A 
HETATM    7  F1  UNL     1      25.483   3.224  50.402  1.00  0.00    -0.345 F 
HETATM    8  C6  UNL     1      26.785   2.395  51.041  1.00  0.00     0.044 C 
HETATM    9  C7  UNL     1      26.117   1.482  51.928  1.00  0.00    -0.035 A 
HETATM   10  C8  UNL     1      26.508   0.538  52.796  1.00  0.00     0.014 A 
HETATM   11  C9  UNL     1      25.498  -0.146  53.432  1.00  0.00     0.038 A 
HETATM   12  C10 UNL     1      24.137   0.098  53.216  1.00  0.00     0.077 A 
HETATM   13  C11 UNL     1      23.626   1.064  52.331  1.00  0.00     0.005 A 
HETATM   14  C12 UNL     1      24.772   1.610  51.821  1.00  0.00     0.024 A 
HETATM   15  C13 UNL     1      22.188   1.249  52.154  1.00  0.00     0.165 C 
HETATM   16  O1  UNL     1      21.680   1.548  50.962  1.00  0.00    -0.362 OA
HETATM   17  C14 UNL     1      22.182   2.207  49.950  1.00  0.00     0.291 C 
HETATM   18  N1  UNL     1      22.574   3.597  50.067  1.00  0.00    -0.369 N 
HETATM   19  C15 UNL     1      21.601  -0.139  52.516  1.00  0.00     0.044 C 
HETATM   20  C20 UNL     1      21.890  -0.499  53.931  1.00  0.00     0.183 C 
HETATM   21  O3  UNL     1      23.310  -0.736  53.990  1.00  0.00    -0.350 OA
HETATM   22  H11 UNL     1      22.303   4.095  50.948  1.00  0.00     0.161 HD
ENDROOT
BRANCH  19  23
HETATM   23  C16 UNL     1      20.217  -0.324  52.036  1.00  0.00     0.010 C 
BRANCH  23  24
HETATM   24  C17 UNL     1      19.145   0.462  52.700  1.00  0.00     0.002 C 
BRANCH  24  25
HETATM   25  C18 UNL     1      18.201   0.954  51.590  1.00  0.00     0.017 C 
BRANCH  25  26
HETATM   26  C19 UNL     1      18.444   2.385  51.235  1.00  0.00     0.117 C 
BRANCH  26  27
HETATM   27  N2  UNL     1      19.130   3.027  52.334  1.00  0.00    -0.209 NA
HETATM   28  H21 UNL     1      19.697   2.262  52.799  1.00  0.00     0.153 HD
BRANCH  27  29
HETATM   29  O2  UNL     1      19.990   3.981  51.957  1.00  0.00    -0.316 OA
HETATM   30  H22 UNL     1      19.930   4.793  52.548  1.00  0.00     0.236 HD
ENDBRANCH  27  29
ENDBRANCH  26  27
ENDBRANCH  25  26
ENDBRANCH  24  25
ENDBRANCH  23  24
ENDBRANCH  19  23
TORSDOF 6
ENDMDL
