MODEL 1
REMARK VINA RESULT:      -8.0      0.000      0.000
REMARK  3 active torsions:
REMARK  status: ('A' for Active; 'I' for Inactive)
REMARK    1  A    between atoms: C2_2  and  C3_3 
REMARK    2  A    between atoms: C4_5  and  C5_6 
REMARK    3  A    between atoms: C7_9  and  N2_10 
ROOT
HETATM    1  C5  UNL     1      24.493   4.214  49.253  1.00  0.00     0.238 C 
HETATM    2  C6  UNL     1      25.694   5.029  48.995  1.00  0.00     0.126 C 
HETATM    3  N1  UNL     1      26.179   6.184  49.374  1.00  0.00    -0.077 NA
HETATM    4  C7  UNL     1      25.557   7.093  50.285  1.00  0.00     0.736 C 
HETATM    5  N3  UNL     1      24.329   7.153  50.658  1.00  0.00     0.025 NA
HETATM    6  N4  UNL     1      23.246   6.348  50.283  1.00  0.00    -0.231 N 
HETATM    7  C8  UNL     1      22.097   7.106  50.658  1.00  0.00     0.119 A 
HETATM    8  C9  UNL     1      20.863   6.695  50.468  1.00  0.00     0.019 A 
HETATM    9  C10 UNL     1      20.254   5.497  49.896  1.00  0.00     0.003 A 
HETATM   10  C11 UNL     1      20.926   4.471  49.398  1.00  0.00     0.020 A 
HETATM   11  C12 UNL     1      22.377   4.292  49.303  1.00  0.00     0.018 A 
HETATM   12 BR1  UNL     1      22.790   2.599  48.488  1.00  0.00    -0.166 Br
HETATM   13  C13 UNL     1      23.382   5.074  49.672  1.00  0.00     0.066 A 
ENDROOT
BRANCH   1  14
HETATM   14  C4  UNL     1      24.865   3.206  50.313  1.00  0.00     0.011 C 
HETATM   15  C3  UNL     1      24.696   3.050  51.628  1.00  0.00     0.018 C 
HETATM   16 CL1  UNL     1      23.811   4.270  52.528  1.00  0.00    -0.088 Cl
BRANCH  15  17
HETATM   17  C2  UNL     1      25.145   1.960  52.539  1.00  0.00     0.002 C 
HETATM   18  C1  UNL     1      25.688   2.490  53.835  1.00  0.00     0.022 C 
HETATM   19  C14 UNL     1      23.999   1.031  52.873  1.00  0.00     0.043 C 
HETATM   20  C15 UNL     1      24.711  -0.241  53.187  1.00  0.00    -0.006 C 
HETATM   21  C16 UNL     1      25.920  -0.270  52.601  1.00  0.00     0.009 C 
HETATM   22 CL2  UNL     1      27.026  -1.614  52.757  1.00  0.00    -0.089 Cl
HETATM   23  C17 UNL     1      26.099   1.008  51.842  1.00  0.00     0.066 C 
ENDBRANCH  15  17
ENDBRANCH   1  14
BRANCH   4  24
HETATM   24  N2  UNL     1      26.470   8.042  50.822  1.00  0.00    -0.230 N 
HETATM   25  H7  UNL     1      26.911   7.785  51.754  1.00  0.00     0.174 HD
HETATM   26  H8  UNL     1      26.829   8.973  50.512  1.00  0.00     0.174 HD
ENDBRANCH   4  24
TORSDOF 3
ENDMDL
MODEL 2
REMARK VINA RESULT:      -7.8      3.868      5.232
REMARK  3 active torsions:
REMARK  status: ('A' for Active; 'I' for Inactive)
REMARK    1  A    between atoms: C2_2  and  C3_3 
REMARK    2  A    between atoms: C4_5  and  C5_6 
REMARK    3  A    between atoms: C7_9  and  N2_10 
ROOT
HETATM    1  C5  UNL     1      22.540   2.573  52.332  1.00  0.00     0.238 C 
HETATM    2  C6  UNL     1      21.386   2.268  53.196  1.00  0.00     0.126 C 
HETATM    3  N1  UNL     1      20.364   1.449  53.194  1.00  0.00    -0.077 NA
HETATM    4  C7  UNL     1      20.068   0.487  52.180  1.00  0.00     0.736 C 
HETATM    5  N3  UNL     1      20.497   0.426  50.970  1.00  0.00     0.025 NA
HETATM    6  N4  UNL     1      21.378   1.282  50.295  1.00  0.00    -0.231 N 
HETATM    7  C8  UNL     1      21.166   0.988  48.916  1.00  0.00     0.119 A 
HETATM    8  C9  UNL     1      21.808   1.590  47.939  1.00  0.00     0.019 A 
HETATM    9  C10 UNL     1      22.830   2.630  47.867  1.00  0.00     0.003 A 
HETATM   10  C11 UNL     1      23.369   3.236  48.914  1.00  0.00     0.020 A 
HETATM   11  C12 UNL     1      23.085   3.022  50.336  1.00  0.00     0.018 A 
HETATM   12 BR1  UNL     1      24.170   4.185  51.416  1.00  0.00    -0.166 Br
HETATM   13  C13 UNL     1      22.244   2.198  50.946  1.00  0.00     0.066 A 
ENDROOT
BRANCH   1  14
HETATM   14  C4  UNL     1      23.719   1.812  52.890  1.00  0.00     0.011 C 
HETATM   15  C3  UNL     1      24.033   0.544  53.165  1.00  0.00     0.018 C 
HETATM   16 CL1  UNL     1      22.856  -0.719  52.846  1.00  0.00    -0.088 Cl
BRANCH  15  17
HETATM   17  C2  UNL     1      25.280  -0.044  53.730  1.00  0.00     0.002 C 
HETATM   18  C1  UNL     1      25.012  -0.892  54.939  1.00  0.00     0.022 C 
HETATM   19  C14 UNL     1      25.974  -0.916  52.708  1.00  0.00     0.043 C 
HETATM   20  C15 UNL     1      27.394  -0.858  53.162  1.00  0.00    -0.006 C 
HETATM   21  C16 UNL     1      27.618   0.248  53.891  1.00  0.00     0.009 C 
HETATM   22 CL2  UNL     1      29.175   0.637  54.584  1.00  0.00    -0.089 Cl
HETATM   23  C17 UNL     1      26.337   1.017  53.973  1.00  0.00     0.066 C 
ENDBRANCH  15  17
ENDBRANCH   1  14
BRANCH   4  24
HETATM   24  N2  UNL     1      19.168  -0.520  52.625  1.00  0.00    -0.230 N 
HETATM   25  H7  UNL     1      18.933  -0.507  53.661  1.00  0.00     0.174 HD
HETATM   26  H8  UNL     1      18.658  -1.306  52.162  1.00  0.00     0.174 HD
ENDBRANCH   4  24
TORSDOF 3
ENDMDL
MODEL 3
REMARK VINA RESULT:      -7.3      3.595      6.514
REMARK  3 active torsions:
REMARK  status: ('A' for Active; 'I' for Inactive)
REMARK    1  A    between atoms: C2_2  and  C3_3 
REMARK    2  A    between atoms: C4_5  and  C5_6 
REMARK    3  A    between atoms: C7_9  and  N2_10 
ROOT
HETATM    1  C5  UNL     1      23.118   2.087  52.761  1.00  0.00     0.238 C 
HETATM    2  C6  UNL     1      23.300   3.542  52.609  1.00  0.00     0.126 C 
HETATM    3  N1  UNL     1      24.118   4.355  51.989  1.00  0.00    -0.077 NA
HETATM    4  C7  UNL     1      25.222   3.965  51.171  1.00  0.00     0.736 C 
HETATM    5  N3  UNL     1      25.835   2.836  51.120  1.00  0.00     0.025 NA
HETATM    6  N4  UNL     1      25.598   1.663  51.849  1.00  0.00    -0.231 N 
HETATM    7  C8  UNL     1      26.798   0.907  51.696  1.00  0.00     0.119 A 
HETATM    8  C9  UNL     1      26.984  -0.275  52.241  1.00  0.00     0.019 A 
HETATM    9  C10 UNL     1      26.182  -1.158  53.082  1.00  0.00     0.003 A 
HETATM   10  C11 UNL     1      24.956  -0.893  53.506  1.00  0.00     0.020 A 
HETATM   11  C12 UNL     1      24.141   0.297  53.246  1.00  0.00     0.018 A 
HETATM   12 BR1  UNL     1      22.432   0.140  54.115  1.00  0.00    -0.166 Br
HETATM   13  C13 UNL     1      24.392   1.395  52.545  1.00  0.00     0.066 A 
ENDROOT
BRANCH   1  14
HETATM   14  C4  UNL     1      22.065   1.670  51.763  1.00  0.00     0.011 C 
HETATM   15  C3  UNL     1      20.803   1.991  51.468  1.00  0.00     0.018 C 
HETATM   16 CL1  UNL     1      19.993   3.232  52.410  1.00  0.00    -0.088 Cl
BRANCH  15  17
HETATM   17  C2  UNL     1      19.889   1.461  50.418  1.00  0.00     0.002 C 
HETATM   18  C1  UNL     1      20.635   0.982  49.205  1.00  0.00     0.022 C 
HETATM   19  C14 UNL     1      19.084   0.294  50.945  1.00  0.00     0.043 C 
HETATM   20  C15 UNL     1      17.868   0.341  50.082  1.00  0.00    -0.006 C 
HETATM   21  C16 UNL     1      17.684   1.573  49.580  1.00  0.00     0.009 C 
HETATM   22 CL2  UNL     1      16.354   1.987  48.525  1.00  0.00    -0.089 Cl
HETATM   23  C17 UNL     1      18.788   2.450  50.085  1.00  0.00     0.066 C 
ENDBRANCH  15  17
ENDBRANCH   1  14
BRANCH   4  24
HETATM   24  N2  UNL     1      25.666   5.009  50.313  1.00  0.00    -0.230 N 
HETATM   25  H7  UNL     1      26.211   4.704  49.454  1.00  0.00     0.174 HD
HETATM   26  H8  UNL     1      25.585   6.051  50.322  1.00  0.00     0.174 HD
ENDBRANCH   4  24
TORSDOF 3
ENDMDL
MODEL 4
REMARK VINA RESULT:      -7.3      3.807      6.615
REMARK  3 active torsions:
REMARK  status: ('A' for Active; 'I' for Inactive)
REMARK    1  A    between atoms: C2_2  and  C3_3 
REMARK    2  A    between atoms: C4_5  and  C5_6 
REMARK    3  A    between atoms: C7_9  and  N2_10 
ROOT
HETATM    1  C5  UNL     1      22.737   2.701  52.020  1.00  0.00     0.238 C 
HETATM    2  C6  UNL     1      24.117   3.205  52.132  1.00  0.00     0.126 C 
HETATM    3  N1  UNL     1      25.319   2.709  52.287  1.00  0.00    -0.077 NA
HETATM    4  C7  UNL     1      25.641   1.322  52.405  1.00  0.00     0.736 C 
HETATM    5  N3  UNL     1      24.874   0.334  52.704  1.00  0.00     0.025 NA
HETATM    6  N4  UNL     1      23.504   0.330  52.997  1.00  0.00    -0.231 N 
HETATM    7  C8  UNL     1      23.287  -0.923  53.644  1.00  0.00     0.119 A 
HETATM    8  C9  UNL     1      22.114  -1.316  54.087  1.00  0.00     0.019 A 
HETATM    9  C10 UNL     1      20.773  -0.739  54.101  1.00  0.00     0.003 A 
HETATM   10  C11 UNL     1      20.453   0.445  53.602  1.00  0.00     0.020 A 
HETATM   11  C12 UNL     1      21.325   1.421  52.943  1.00  0.00     0.018 A 
HETATM   12 BR1  UNL     1      20.315   2.970  52.415  1.00  0.00    -0.166 Br
HETATM   13  C13 UNL     1      22.623   1.394  52.675  1.00  0.00     0.066 A 
ENDROOT
BRANCH   1  14
HETATM   14  C4  UNL     1      22.413   2.632  50.547  1.00  0.00     0.011 C 
HETATM   15  C3  UNL     1      22.216   3.486  49.539  1.00  0.00     0.018 C 
HETATM   16 CL1  UNL     1      22.331   5.211  49.844  1.00  0.00    -0.088 Cl
BRANCH  15  17
HETATM   17  C2  UNL     1      21.896   3.234  48.106  1.00  0.00     0.002 C 
HETATM   18  C1  UNL     1      22.507   1.957  47.603  1.00  0.00     0.022 C 
HETATM   19  C14 UNL     1      20.401   3.135  47.899  1.00  0.00     0.043 C 
HETATM   20  C15 UNL     1      20.258   3.537  46.470  1.00  0.00    -0.006 C 
HETATM   21  C16 UNL     1      21.304   4.284  46.076  1.00  0.00     0.009 C 
HETATM   22 CL2  UNL     1      21.464   4.927  44.459  1.00  0.00    -0.089 Cl
HETATM   23  C17 UNL     1      22.232   4.433  47.240  1.00  0.00     0.066 C 
ENDBRANCH  15  17
ENDBRANCH   1  14
BRANCH   4  24
HETATM   24  N2  UNL     1      27.013   1.053  52.149  1.00  0.00    -0.230 N 
HETATM   25  H7  UNL     1      27.605   1.889  51.866  1.00  0.00     0.174 HD
HETATM   26  H8  UNL     1      27.610   0.195  52.169  1.00  0.00     0.174 HD
ENDBRANCH   4  24
TORSDOF 3
ENDMDL
MODEL 5
REMARK VINA RESULT:      -7.2      4.135      7.319
REMARK  3 active torsions:
REMARK  status: ('A' for Active; 'I' for Inactive)
REMARK    1  A    between atoms: C2_2  and  C3_3 
REMARK    2  A    between atoms: C4_5  and  C5_6 
REMARK    3  A    between atoms: C7_9  and  N2_10 
ROOT
HETATM    1  C5  UNL     1      23.052   0.941  51.590  1.00  0.00     0.238 C 
HETATM    2  C6  UNL     1      21.874   0.597  50.774  1.00  0.00     0.126 C 
HETATM    3  N1  UNL     1      20.653   0.165  50.970  1.00  0.00    -0.077 NA
HETATM    4  C7  UNL     1      20.067  -0.132  52.239  1.00  0.00     0.736 C 
HETATM    5  N3  UNL     1      20.642  -0.354  53.367  1.00  0.00     0.025 NA
HETATM    6  N4  UNL     1      22.008  -0.367  53.680  1.00  0.00    -0.231 N 
HETATM    7  C8  UNL     1      22.076  -1.060  54.925  1.00  0.00     0.119 A 
HETATM    8  C9  UNL     1      23.201  -1.291  55.565  1.00  0.00     0.019 A 
HETATM    9  C10 UNL     1      24.608  -0.988  55.316  1.00  0.00     0.003 A 
HETATM   10  C11 UNL     1      25.066  -0.337  54.259  1.00  0.00     0.020 A 
HETATM   11  C12 UNL     1      24.311   0.214  53.130  1.00  0.00     0.018 A 
HETATM   12 BR1  UNL     1      25.501   1.062  51.880  1.00  0.00    -0.166 Br
HETATM   13  C13 UNL     1      23.012   0.214  52.863  1.00  0.00     0.066 A 
ENDROOT
BRANCH   1  14
HETATM   14  C4  UNL     1      23.030   2.437  51.786  1.00  0.00     0.011 C 
HETATM   15  C3  UNL     1      23.275   3.531  51.060  1.00  0.00     0.018 C 
HETATM   16 CL1  UNL     1      23.772   3.353  49.386  1.00  0.00    -0.088 Cl
BRANCH  15  17
HETATM   17  C2  UNL     1      23.200   4.973  51.427  1.00  0.00     0.002 C 
HETATM   18  C1  UNL     1      23.338   5.191  52.906  1.00  0.00     0.022 C 
HETATM   19  C14 UNL     1      24.300   5.758  50.747  1.00  0.00     0.043 C 
HETATM   20  C15 UNL     1      23.709   7.126  50.680  1.00  0.00    -0.006 C 
HETATM   21  C16 UNL     1      22.368   7.072  50.734  1.00  0.00     0.009 C 
HETATM   22 CL2  UNL     1      21.350   8.492  50.681  1.00  0.00    -0.089 Cl
HETATM   23  C17 UNL     1      21.965   5.634  50.843  1.00  0.00     0.066 C 
ENDBRANCH  15  17
ENDBRANCH   1  14
BRANCH   4  24
HETATM   24  N2  UNL     1      18.646  -0.179  52.189  1.00  0.00    -0.230 N 
HETATM   25  H7  UNL     1      18.175   0.612  51.658  1.00  0.00     0.174 HD
HETATM   26  H8  UNL     1      17.919  -0.828  52.565  1.00  0.00     0.174 HD
ENDBRANCH   4  24
TORSDOF 3
ENDMDL
MODEL 6
REMARK VINA RESULT:      -7.1      2.179      2.659
REMARK  3 active torsions:
REMARK  status: ('A' for Active; 'I' for Inactive)
REMARK    1  A    between atoms: C2_2  and  C3_3 
REMARK    2  A    between atoms: C4_5  and  C5_6 
REMARK    3  A    between atoms: C7_9  and  N2_10 
ROOT
HETATM    1  C5  UNL     1      23.496   3.483  49.259  1.00  0.00     0.238 C 
HETATM    2  C6  UNL     1      24.689   4.106  49.860  1.00  0.00     0.126 C 
HETATM    3  N1  UNL     1      24.988   5.211  50.497  1.00  0.00    -0.077 NA
HETATM    4  C7  UNL     1      24.075   6.262  50.818  1.00  0.00     0.736 C 
HETATM    5  N3  UNL     1      22.920   6.516  50.313  1.00  0.00     0.025 NA
HETATM    6  N4  UNL     1      22.223   5.837  49.305  1.00  0.00    -0.231 N 
HETATM    7  C8  UNL     1      21.234   6.770  48.874  1.00  0.00     0.119 A 
HETATM    8  C9  UNL     1      20.364   6.516  47.921  1.00  0.00     0.019 A 
HETATM    9  C10 UNL     1      20.090   5.372  47.057  1.00  0.00     0.003 A 
HETATM   10  C11 UNL     1      20.758   4.229  47.079  1.00  0.00     0.020 A 
HETATM   11  C12 UNL     1      21.884   3.849  47.936  1.00  0.00     0.018 A 
HETATM   12 BR1  UNL     1      22.459   2.059  47.530  1.00  0.00    -0.166 Br
HETATM   13  C13 UNL     1      22.523   4.515  48.889  1.00  0.00     0.066 A 
ENDROOT
BRANCH   1  14
HETATM   14  C4  UNL     1      22.944   2.518  50.280  1.00  0.00     0.011 C 
HETATM   15  C3  UNL     1      22.294   2.579  51.445  1.00  0.00     0.018 C 
HETATM   16 CL1  UNL     1      21.890   4.149  52.118  1.00  0.00    -0.088 Cl
BRANCH  15  17
HETATM   17  C2  UNL     1      21.813   1.492  52.343  1.00  0.00     0.002 C 
HETATM   18  C1  UNL     1      20.488   1.816  52.969  1.00  0.00     0.022 C 
HETATM   19  C14 UNL     1      21.649   0.196  51.579  1.00  0.00     0.043 C 
HETATM   20  C15 UNL     1      21.818  -0.823  52.654  1.00  0.00    -0.006 C 
HETATM   21  C16 UNL     1      22.518  -0.319  53.685  1.00  0.00     0.009 C 
HETATM   22 CL2  UNL     1      22.902  -1.240  55.121  1.00  0.00    -0.089 Cl
HETATM   23  C17 UNL     1      22.869   1.099  53.359  1.00  0.00     0.066 C 
ENDBRANCH  15  17
ENDBRANCH   1  14
BRANCH   4  24
HETATM   24  N2  UNL     1      24.562   7.117  51.845  1.00  0.00    -0.230 N 
HETATM   25  H7  UNL     1      25.210   6.666  52.556  1.00  0.00     0.174 HD
HETATM   26  H8  UNL     1      24.432   8.126  52.083  1.00  0.00     0.174 HD
ENDBRANCH   4  24
TORSDOF 3
ENDMDL
MODEL 7
REMARK VINA RESULT:      -7.1      6.445      9.338
REMARK  3 active torsions:
REMARK  status: ('A' for Active; 'I' for Inactive)
REMARK    1  A    between atoms: C2_2  and  C3_3 
REMARK    2  A    between atoms: C4_5  and  C5_6 
REMARK    3  A    between atoms: C7_9  and  N2_10 
ROOT
HETATM    1  C5  UNL     1      31.324   7.538  47.381  1.00  0.00     0.238 C 
HETATM    2  C6  UNL     1      31.415   8.767  46.572  1.00  0.00     0.126 C 
HETATM    3  N1  UNL     1      31.568   9.088  45.312  1.00  0.00    -0.077 NA
HETATM    4  C7  UNL     1      31.710   8.167  44.228  1.00  0.00     0.736 C 
HETATM    5  N3  UNL     1      32.034   6.924  44.257  1.00  0.00     0.025 NA
HETATM    6  N4  UNL     1      32.339   6.111  45.357  1.00  0.00    -0.231 N 
HETATM    7  C8  UNL     1      33.011   4.988  44.788  1.00  0.00     0.119 A 
HETATM    8  C9  UNL     1      33.472   3.983  45.498  1.00  0.00     0.019 A 
HETATM    9  C10 UNL     1      33.486   3.648  46.919  1.00  0.00     0.003 A 
HETATM   10  C11 UNL     1      32.967   4.397  47.879  1.00  0.00     0.020 A 
HETATM   11  C12 UNL     1      32.283   5.688  47.757  1.00  0.00     0.018 A 
HETATM   12 BR1  UNL     1      31.734   6.319  49.488  1.00  0.00    -0.166 Br
HETATM   13  C13 UNL     1      32.004   6.434  46.697  1.00  0.00     0.066 A 
ENDROOT
BRANCH   1  14
HETATM   14  C4  UNL     1      29.856   7.260  47.593  1.00  0.00     0.011 C 
HETATM   15  C3  UNL     1      28.842   7.785  48.286  1.00  0.00     0.018 C 
HETATM   16 CL1  UNL     1      29.129   9.203  49.280  1.00  0.00    -0.088 Cl
BRANCH  15  17
HETATM   17  C2  UNL     1      27.415   7.368  48.380  1.00  0.00     0.002 C 
HETATM   18  C1  UNL     1      26.622   7.777  47.172  1.00  0.00     0.022 C 
HETATM   19  C14 UNL     1      27.302   5.865  48.511  1.00  0.00     0.043 C 
HETATM   20  C15 UNL     1      25.997   5.712  49.217  1.00  0.00    -0.006 C 
HETATM   21  C16 UNL     1      25.686   6.829  49.896  1.00  0.00     0.009 C 
HETATM   22 CL2  UNL     1      24.224   7.000  50.838  1.00  0.00    -0.089 Cl
HETATM   23  C17 UNL     1      26.785   7.823  49.684  1.00  0.00     0.066 C 
ENDBRANCH  15  17
ENDBRANCH   1  14
BRANCH   4  24
HETATM   24  N2  UNL     1      31.447   8.764  42.964  1.00  0.00    -0.230 N 
HETATM   25  H7  UNL     1      30.667   9.485  42.946  1.00  0.00     0.174 HD
HETATM   26  H8  UNL     1      31.850   8.661  42.006  1.00  0.00     0.174 HD
ENDBRANCH   4  24
TORSDOF 3
ENDMDL
MODEL 8
REMARK VINA RESULT:      -7.1      3.642      7.032
REMARK  3 active torsions:
REMARK  status: ('A' for Active; 'I' for Inactive)
REMARK    1  A    between atoms: C2_2  and  C3_3 
REMARK    2  A    between atoms: C4_5  and  C5_6 
REMARK    3  A    between atoms: C7_9  and  N2_10 
ROOT
HETATM    1  C5  UNL     1      23.936   2.912  49.786  1.00  0.00     0.238 C 
HETATM    2  C6  UNL     1      22.762   2.200  49.250  1.00  0.00     0.126 C 
HETATM    3  N1  UNL     1      21.824   1.405  49.699  1.00  0.00    -0.077 NA
HETATM    4  C7  UNL     1      21.686   0.956  51.049  1.00  0.00     0.736 C 
HETATM    5  N3  UNL     1      22.557   0.946  51.994  1.00  0.00     0.025 NA
HETATM    6  N4  UNL     1      23.892   1.372  51.975  1.00  0.00    -0.231 N 
HETATM    7  C8  UNL     1      24.473   0.754  53.123  1.00  0.00     0.119 A 
HETATM    8  C9  UNL     1      25.734   0.902  53.464  1.00  0.00     0.019 A 
HETATM    9  C10 UNL     1      26.871   1.632  52.912  1.00  0.00     0.003 A 
HETATM   10  C11 UNL     1      26.833   2.380  51.820  1.00  0.00     0.020 A 
HETATM   11  C12 UNL     1      25.693   2.645  50.938  1.00  0.00     0.018 A 
HETATM   12 BR1  UNL     1      26.218   3.809  49.499  1.00  0.00    -0.166 Br
HETATM   13  C13 UNL     1      24.435   2.229  50.984  1.00  0.00     0.066 A 
ENDROOT
BRANCH   1  14
HETATM   14  C4  UNL     1      23.497   4.326  50.077  1.00  0.00     0.011 C 
HETATM   15  C3  UNL     1      23.054   5.382  49.390  1.00  0.00     0.018 C 
HETATM   16 CL1  UNL     1      22.873   5.256  47.648  1.00  0.00    -0.088 Cl
BRANCH  15  17
HETATM   17  C2  UNL     1      22.656   6.741  49.853  1.00  0.00     0.002 C 
HETATM   18  C1  UNL     1      23.368   7.143  51.113  1.00  0.00     0.022 C 
HETATM   19  C14 UNL     1      22.970   7.782  48.801  1.00  0.00     0.043 C 
HETATM   20  C15 UNL     1      21.978   8.850  49.115  1.00  0.00    -0.006 C 
HETATM   21  C16 UNL     1      20.925   8.346  49.779  1.00  0.00     0.009 C 
HETATM   22 CL2  UNL     1      19.571   9.318  50.306  1.00  0.00    -0.089 Cl
HETATM   23  C17 UNL     1      21.148   6.876  49.956  1.00  0.00     0.066 C 
ENDBRANCH  15  17
ENDBRANCH   1  14
BRANCH   4  24
HETATM   24  N2  UNL     1      20.383   0.460  51.332  1.00  0.00    -0.230 N 
HETATM   25  H7  UNL     1      20.078   0.510  52.349  1.00  0.00     0.174 HD
HETATM   26  H8  UNL     1      19.618   0.037  50.759  1.00  0.00     0.174 HD
ENDBRANCH   4  24
TORSDOF 3
ENDMDL
MODEL 9
REMARK VINA RESULT:      -7.1      7.861     10.700
REMARK  3 active torsions:
REMARK  status: ('A' for Active; 'I' for Inactive)
REMARK    1  A    between atoms: C2_2  and  C3_3 
REMARK    2  A    between atoms: C4_5  and  C5_6 
REMARK    3  A    between atoms: C7_9  and  N2_10 
ROOT
HETATM    1  C5  UNL     1      32.882   7.585  46.352  1.00  0.00     0.238 C 
HETATM    2  C6  UNL     1      32.761   8.296  45.067  1.00  0.00     0.126 C 
HETATM    3  N1  UNL     1      32.655   7.990  43.798  1.00  0.00    -0.077 NA
HETATM    4  C7  UNL     1      32.625   6.668  43.257  1.00  0.00     0.736 C 
HETATM    5  N3  UNL     1      33.002   5.563  43.795  1.00  0.00     0.025 NA
HETATM    6  N4  UNL     1      33.549   5.334  45.065  1.00  0.00    -0.231 N 
HETATM    7  C8  UNL     1      34.146   4.043  44.963  1.00  0.00     0.119 A 
HETATM    8  C9  UNL     1      34.779   3.457  45.954  1.00  0.00     0.019 A 
HETATM    9  C10 UNL     1      35.082   3.815  47.337  1.00  0.00     0.003 A 
HETATM   10  C11 UNL     1      34.726   4.948  47.921  1.00  0.00     0.020 A 
HETATM   11  C12 UNL     1      33.975   6.070  47.350  1.00  0.00     0.018 A 
HETATM   12 BR1  UNL     1      33.744   7.457  48.662  1.00  0.00    -0.166 Br
HETATM   13  C13 UNL     1      33.464   6.256  46.140  1.00  0.00     0.066 A 
ENDROOT
BRANCH   1  14
HETATM   14  C4  UNL     1      31.496   7.512  46.945  1.00  0.00     0.011 C 
HETATM   15  C3  UNL     1      30.608   8.351  47.485  1.00  0.00     0.018 C 
HETATM   16 CL1  UNL     1      31.011  10.055  47.615  1.00  0.00    -0.088 Cl
BRANCH  15  17
HETATM   17  C2  UNL     1      29.247   8.098  48.034  1.00  0.00     0.002 C 
HETATM   18  C1  UNL     1      28.949   8.954  49.232  1.00  0.00     0.022 C 
HETATM   19  C14 UNL     1      28.185   8.386  46.995  1.00  0.00     0.043 C 
HETATM   20  C15 UNL     1      27.066   7.509  47.443  1.00  0.00    -0.006 C 
HETATM   21  C16 UNL     1      27.525   6.489  48.188  1.00  0.00     0.009 C 
HETATM   22 CL2  UNL     1      26.485   5.266  48.879  1.00  0.00    -0.089 Cl
HETATM   23  C17 UNL     1      29.013   6.621  48.288  1.00  0.00     0.066 C 
ENDBRANCH  15  17
ENDBRANCH   1  14
BRANCH   4  24
HETATM   24  N2  UNL     1      32.097   6.626  41.938  1.00  0.00    -0.230 N 
HETATM   25  H7  UNL     1      32.581   7.247  41.225  1.00  0.00     0.174 HD
HETATM   26  H8  UNL     1      31.312   6.113  41.476  1.00  0.00     0.174 HD
ENDBRANCH   4  24
TORSDOF 3
ENDMDL
