MODEL 1
REMARK VINA RESULT:      -8.8      0.000      0.000
REMARK  2 active torsions:
REMARK  status: ('A' for Active; 'I' for Inactive)
REMARK       I    between atoms: C1_2  and  N1_3 
REMARK       I    between atoms: C1_2  and  N3_10 
REMARK    1  A    between atoms: N1_3  and  C2_4 
REMARK    2  A    between atoms: N3_10  and  C7_11 
ROOT
HETATM    1  C7  UNL     1      24.872   1.035  52.033  1.00  0.00     0.045 A 
HETATM    2  C8  UNL     1      26.163   0.513  52.192  1.00  0.00     0.030 A 
HETATM    3  C9  UNL     1      26.439  -0.428  53.188  1.00  0.00     0.003 A 
HETATM    4  C10 UNL     1      25.448  -0.882  54.049  1.00  0.00     0.018 A 
HETATM    5  C11 UNL     1      24.177  -0.344  53.861  1.00  0.00     0.042 A 
HETATM    6  C12 UNL     1      23.911   0.588  52.880  1.00  0.00     0.007 A 
HETATM    7  C13 UNL     1      22.532   0.970  53.080  1.00  0.00     0.125 C 
HETATM    8  C14 UNL     1      21.456   0.581  52.107  1.00  0.00     0.050 C 
HETATM    9  C15 UNL     1      20.659   0.529  53.449  1.00  0.00     0.129 C 
HETATM   10  N4  UNL     1      21.926  -0.056  53.961  1.00  0.00    -0.339 N 
HETATM   11  C16 UNL     1      22.970  -0.789  54.592  1.00  0.00     0.255 C 
HETATM   12  O2  UNL     1      22.801  -1.584  55.521  1.00  0.00    -0.267 OA
ENDROOT
BRANCH   1  13
HETATM   13  N3  UNL     1      24.567   1.991  51.030  1.00  0.00    -0.308 N 
HETATM   14  C1  UNL     1      25.549   2.941  50.650  1.00  0.00     0.326 C 
HETATM   15  O1  UNL     1      26.651   2.867  51.245  1.00  0.00    -0.247 OA
HETATM   16  N1  UNL     1      25.441   3.955  49.691  1.00  0.00    -0.293 N 
HETATM   17  H1  UNL     1      24.489   3.908  49.277  1.00  0.00     0.172 HD
HETATM   18  H6  UNL     1      23.646   2.063  50.524  1.00  0.00     0.170 HD
BRANCH  16  19
HETATM   19  C2  UNL     1      26.358   4.931  49.256  1.00  0.00     0.131 A 
HETATM   20  C3  UNL     1      27.584   4.735  48.675  1.00  0.00     0.050 A 
HETATM   21  C4  UNL     1      28.448   5.724  48.266  1.00  0.00     0.005 A 
HETATM   22  C5  UNL     1      28.045   7.026  48.456  1.00  0.00     0.019 A 
HETATM   23  C6  UNL     1      26.824   7.225  49.035  1.00  0.00     0.119 A 
HETATM   24  N2  UNL     1      26.029   6.217  49.411  1.00  0.00    -0.243 NA
ENDBRANCH  16  19
ENDBRANCH   1  13
TORSDOF 2
ENDMDL
MODEL 2
REMARK VINA RESULT:      -8.7      2.257      3.609
REMARK  2 active torsions:
REMARK  status: ('A' for Active; 'I' for Inactive)
REMARK       I    between atoms: C1_2  and  N1_3 
REMARK       I    between atoms: C1_2  and  N3_10 
REMARK    1  A    between atoms: N1_3  and  C2_4 
REMARK    2  A    between atoms: N3_10  and  C7_11 
ROOT
HETATM    1  C7  UNL     1      23.078   0.739  52.203  1.00  0.00     0.045 A 
HETATM    2  C8  UNL     1      21.765   0.386  52.541  1.00  0.00     0.030 A 
HETATM    3  C9  UNL     1      21.503  -0.424  53.651  1.00  0.00     0.003 A 
HETATM    4  C10 UNL     1      22.529  -0.902  54.456  1.00  0.00     0.018 A 
HETATM    5  C11 UNL     1      23.820  -0.529  54.091  1.00  0.00     0.042 A 
HETATM    6  C12 UNL     1      24.074   0.266  52.994  1.00  0.00     0.007 A 
HETATM    7  C13 UNL     1      25.514   0.330  52.892  1.00  0.00     0.125 C 
HETATM    8  C14 UNL     1      26.270   1.595  53.183  1.00  0.00     0.050 C 
HETATM    9  C15 UNL     1      27.289   0.529  53.697  1.00  0.00     0.129 C 
HETATM   10  N4  UNL     1      26.056  -0.139  54.189  1.00  0.00    -0.339 N 
HETATM   11  C16 UNL     1      25.029  -0.834  54.889  1.00  0.00     0.255 C 
HETATM   12  O2  UNL     1      25.210  -1.503  55.910  1.00  0.00    -0.267 OA
ENDROOT
BRANCH   1  13
HETATM   13  N3  UNL     1      23.370   1.560  51.083  1.00  0.00    -0.308 N 
HETATM   14  C1  UNL     1      23.452   2.966  51.251  1.00  0.00     0.326 C 
HETATM   15  O1  UNL     1      23.254   3.397  52.412  1.00  0.00    -0.247 OA
HETATM   16  N1  UNL     1      23.726   3.935  50.279  1.00  0.00    -0.293 N 
HETATM   17  H1  UNL     1      23.867   3.450  49.370  1.00  0.00     0.172 HD
HETATM   18  H6  UNL     1      23.536   1.209  50.104  1.00  0.00     0.170 HD
BRANCH  16  19
HETATM   19  C2  UNL     1      23.825   5.337  50.359  1.00  0.00     0.131 A 
HETATM   20  C3  UNL     1      22.806   6.249  50.451  1.00  0.00     0.050 A 
HETATM   21  C4  UNL     1      22.954   7.615  50.528  1.00  0.00     0.005 A 
HETATM   22  C5  UNL     1      24.237   8.109  50.511  1.00  0.00     0.019 A 
HETATM   23  C6  UNL     1      25.255   7.202  50.420  1.00  0.00     0.119 A 
HETATM   24  N2  UNL     1      25.044   5.883  50.349  1.00  0.00    -0.243 NA
ENDBRANCH  16  19
ENDBRANCH   1  13
TORSDOF 2
ENDMDL
MODEL 3
REMARK VINA RESULT:      -8.6      2.503      7.472
REMARK  2 active torsions:
REMARK  status: ('A' for Active; 'I' for Inactive)
REMARK       I    between atoms: C1_2  and  N1_3 
REMARK       I    between atoms: C1_2  and  N3_10 
REMARK    1  A    between atoms: N1_3  and  C2_4 
REMARK    2  A    between atoms: N3_10  and  C7_11 
ROOT
HETATM    1  C7  UNL     1      24.142   0.511  53.139  1.00  0.00     0.045 A 
HETATM    2  C8  UNL     1      25.012  -0.577  53.286  1.00  0.00     0.030 A 
HETATM    3  C9  UNL     1      26.250  -0.599  52.636  1.00  0.00     0.003 A 
HETATM    4  C10 UNL     1      26.662   0.453  51.829  1.00  0.00     0.018 A 
HETATM    5  C11 UNL     1      25.774   1.519  51.708  1.00  0.00     0.042 A 
HETATM    6  C12 UNL     1      24.552   1.534  52.347  1.00  0.00     0.007 A 
HETATM    7  C13 UNL     1      23.895   2.736  51.887  1.00  0.00     0.125 C 
HETATM    8  C14 UNL     1      23.667   3.908  52.797  1.00  0.00     0.050 C 
HETATM    9  C15 UNL     1      23.911   4.644  51.442  1.00  0.00     0.129 C 
HETATM   10  N4  UNL     1      24.940   3.585  51.268  1.00  0.00    -0.339 N 
HETATM   11  C16 UNL     1      26.082   2.779  50.997  1.00  0.00     0.255 C 
HETATM   12  O2  UNL     1      27.046   3.142  50.318  1.00  0.00    -0.267 OA
ENDROOT
BRANCH   1  13
HETATM   13  N3  UNL     1      22.881   0.558  53.787  1.00  0.00    -0.308 N 
HETATM   14  C1  UNL     1      21.720   0.144  53.085  1.00  0.00     0.326 C 
HETATM   15  O1  UNL     1      21.895  -0.245  51.905  1.00  0.00    -0.247 OA
HETATM   16  N1  UNL     1      20.399   0.117  53.546  1.00  0.00    -0.293 N 
HETATM   17  H1  UNL     1      20.391   0.461  54.526  1.00  0.00     0.172 HD
HETATM   18  H6  UNL     1      22.721   0.883  54.777  1.00  0.00     0.170 HD
BRANCH  16  19
HETATM   19  C2  UNL     1      19.199  -0.276  52.921  1.00  0.00     0.131 A 
HETATM   20  C3  UNL     1      18.646   0.227  51.772  1.00  0.00     0.050 A 
HETATM   21  C4  UNL     1      17.467  -0.190  51.198  1.00  0.00     0.005 A 
HETATM   22  C5  UNL     1      16.784  -1.201  51.833  1.00  0.00     0.019 A 
HETATM   23  C6  UNL     1      17.332  -1.704  52.979  1.00  0.00     0.119 A 
HETATM   24  N2  UNL     1      18.486  -1.253  53.486  1.00  0.00    -0.243 NA
ENDBRANCH  16  19
ENDBRANCH   1  13
TORSDOF 2
ENDMDL
MODEL 4
REMARK VINA RESULT:      -8.6      2.222      3.697
REMARK  2 active torsions:
REMARK  status: ('A' for Active; 'I' for Inactive)
REMARK       I    between atoms: C1_2  and  N1_3 
REMARK       I    between atoms: C1_2  and  N3_10 
REMARK    1  A    between atoms: N1_3  and  C2_4 
REMARK    2  A    between atoms: N3_10  and  C7_11 
ROOT
HETATM    1  C7  UNL     1      24.329   2.147  52.887  1.00  0.00     0.045 A 
HETATM    2  C8  UNL     1      23.071   1.538  52.981  1.00  0.00     0.030 A 
HETATM    3  C9  UNL     1      22.953   0.151  53.111  1.00  0.00     0.003 A 
HETATM    4  C10 UNL     1      24.072  -0.669  53.155  1.00  0.00     0.018 A 
HETATM    5  C11 UNL     1      25.306  -0.030  53.061  1.00  0.00     0.042 A 
HETATM    6  C12 UNL     1      25.418   1.337  52.929  1.00  0.00     0.007 A 
HETATM    7  C13 UNL     1      26.829   1.591  52.755  1.00  0.00     0.125 C 
HETATM    8  C14 UNL     1      27.646   2.269  53.818  1.00  0.00     0.050 C 
HETATM    9  C15 UNL     1      28.705   1.283  53.230  1.00  0.00     0.129 C 
HETATM   10  N4  UNL     1      27.540   0.361  53.176  1.00  0.00    -0.339 N 
HETATM   11  C16 UNL     1      26.609  -0.715  53.212  1.00  0.00     0.255 C 
HETATM   12  O2  UNL     1      26.920  -1.902  53.343  1.00  0.00    -0.267 OA
ENDROOT
BRANCH   1  13
HETATM   13  N3  UNL     1      24.476   3.552  52.755  1.00  0.00    -0.308 N 
HETATM   14  C1  UNL     1      24.596   4.122  51.462  1.00  0.00     0.326 C 
HETATM   15  O1  UNL     1      24.564   3.321  50.498  1.00  0.00    -0.247 OA
HETATM   16  N1  UNL     1      24.748   5.473  51.128  1.00  0.00    -0.293 N 
HETATM   17  H1  UNL     1      24.760   6.025  52.008  1.00  0.00     0.172 HD
HETATM   18  H6  UNL     1      24.505   4.235  53.557  1.00  0.00     0.170 HD
BRANCH  16  19
HETATM   19  C2  UNL     1      24.873   6.118  49.882  1.00  0.00     0.131 A 
HETATM   20  C3  UNL     1      23.886   6.380  48.967  1.00  0.00     0.050 A 
HETATM   21  C4  UNL     1      24.058   7.016  47.759  1.00  0.00     0.005 A 
HETATM   22  C5  UNL     1      25.332   7.425  47.442  1.00  0.00     0.019 A 
HETATM   23  C6  UNL     1      26.318   7.165  48.351  1.00  0.00     0.119 A 
HETATM   24  N2  UNL     1      26.084   6.542  49.512  1.00  0.00    -0.243 NA
ENDBRANCH  16  19
ENDBRANCH   1  13
TORSDOF 2
ENDMDL
MODEL 5
REMARK VINA RESULT:      -8.5      4.237      5.601
REMARK  2 active torsions:
REMARK  status: ('A' for Active; 'I' for Inactive)
REMARK       I    between atoms: C1_2  and  N1_3 
REMARK       I    between atoms: C1_2  and  N3_10 
REMARK    1  A    between atoms: N1_3  and  C2_4 
REMARK    2  A    between atoms: N3_10  and  C7_11 
ROOT
HETATM    1  C7  UNL     1      22.343   0.431  53.183  1.00  0.00     0.045 A 
HETATM    2  C8  UNL     1      22.112  -0.404  54.284  1.00  0.00     0.030 A 
HETATM    3  C9  UNL     1      20.883  -1.048  54.452  1.00  0.00     0.003 A 
HETATM    4  C10 UNL     1      19.851  -0.888  53.535  1.00  0.00     0.018 A 
HETATM    5  C11 UNL     1      20.116  -0.053  52.452  1.00  0.00     0.042 A 
HETATM    6  C12 UNL     1      21.329   0.583  52.294  1.00  0.00     0.007 A 
HETATM    7  C13 UNL     1      21.170   1.426  51.132  1.00  0.00     0.125 C 
HETATM    8  C14 UNL     1      21.879   1.134  49.840  1.00  0.00     0.050 C 
HETATM    9  C15 UNL     1      20.542   1.735  49.301  1.00  0.00     0.129 C 
HETATM   10  N4  UNL     1      19.957   0.954  50.423  1.00  0.00    -0.339 N 
HETATM   11  C16 UNL     1      19.195   0.145  51.312  1.00  0.00     0.255 C 
HETATM   12  O2  UNL     1      18.045  -0.245  51.088  1.00  0.00    -0.267 OA
ENDROOT
BRANCH   1  13
HETATM   13  N3  UNL     1      23.582   1.095  52.991  1.00  0.00    -0.308 N 
HETATM   14  C1  UNL     1      24.793   0.381  53.180  1.00  0.00     0.326 C 
HETATM   15  O1  UNL     1      24.680  -0.823  53.514  1.00  0.00    -0.247 OA
HETATM   16  N1  UNL     1      26.102   0.855  53.040  1.00  0.00    -0.293 N 
HETATM   17  H1  UNL     1      26.056   1.856  52.764  1.00  0.00     0.172 HD
HETATM   18  H6  UNL     1      23.689   2.105  52.711  1.00  0.00     0.170 HD
BRANCH  16  19
HETATM   19  C2  UNL     1      27.348   0.220  53.206  1.00  0.00     0.131 A 
HETATM   20  C3  UNL     1      27.663  -1.092  52.962  1.00  0.00     0.050 A 
HETATM   21  C4  UNL     1      28.899  -1.668  53.141  1.00  0.00     0.005 A 
HETATM   22  C5  UNL     1      29.909  -0.857  53.605  1.00  0.00     0.019 A 
HETATM   23  C6  UNL     1      29.598   0.451  53.849  1.00  0.00     0.119 A 
HETATM   24  N2  UNL     1      28.372   0.951  53.654  1.00  0.00    -0.243 NA
ENDBRANCH  16  19
ENDBRANCH   1  13
TORSDOF 2
ENDMDL
MODEL 6
REMARK VINA RESULT:      -8.4      2.414      3.705
REMARK  2 active torsions:
REMARK  status: ('A' for Active; 'I' for Inactive)
REMARK       I    between atoms: C1_2  and  N1_3 
REMARK       I    between atoms: C1_2  and  N3_10 
REMARK    1  A    between atoms: N1_3  and  C2_4 
REMARK    2  A    between atoms: N3_10  and  C7_11 
ROOT
HETATM    1  C7  UNL     1      21.791   0.748  51.812  1.00  0.00     0.045 A 
HETATM    2  C8  UNL     1      20.397   0.636  51.886  1.00  0.00     0.030 A 
HETATM    3  C9  UNL     1      19.791  -0.122  52.893  1.00  0.00     0.003 A 
HETATM    4  C10 UNL     1      20.545  -0.784  53.854  1.00  0.00     0.018 A 
HETATM    5  C11 UNL     1      21.927  -0.648  53.750  1.00  0.00     0.042 A 
HETATM    6  C12 UNL     1      22.521   0.096  52.753  1.00  0.00     0.007 A 
HETATM    7  C13 UNL     1      23.941  -0.100  52.922  1.00  0.00     0.125 C 
HETATM    8  C14 UNL     1      24.840   1.005  53.401  1.00  0.00     0.050 C 
HETATM    9  C15 UNL     1      25.539  -0.232  54.050  1.00  0.00     0.129 C 
HETATM   10  N4  UNL     1      24.137  -0.669  54.277  1.00  0.00    -0.339 N 
HETATM   11  C16 UNL     1      22.890  -1.172  54.745  1.00  0.00     0.255 C 
HETATM   12  O2  UNL     1      22.753  -1.870  55.753  1.00  0.00    -0.267 OA
ENDROOT
BRANCH   1  13
HETATM   13  N3  UNL     1      22.430   1.510  50.800  1.00  0.00    -0.308 N 
HETATM   14  C1  UNL     1      22.648   2.897  51.004  1.00  0.00     0.326 C 
HETATM   15  O1  UNL     1      22.248   3.365  52.097  1.00  0.00    -0.247 OA
HETATM   16  N1  UNL     1      23.254   3.811  50.135  1.00  0.00    -0.293 N 
HETATM   17  H1  UNL     1      23.536   3.300  49.274  1.00  0.00     0.172 HD
HETATM   18  H6  UNL     1      22.769   1.128  49.878  1.00  0.00     0.170 HD
BRANCH  16  19
HETATM   19  C2  UNL     1      23.508   5.191  50.258  1.00  0.00     0.131 A 
HETATM   20  C3  UNL     1      24.690   5.802  50.588  1.00  0.00     0.050 A 
HETATM   21  C4  UNL     1      24.890   7.159  50.696  1.00  0.00     0.005 A 
HETATM   22  C5  UNL     1      23.808   7.974  50.451  1.00  0.00     0.019 A 
HETATM   23  C6  UNL     1      22.630   7.367  50.122  1.00  0.00     0.119 A 
HETATM   24  N2  UNL     1      22.501   6.038  50.032  1.00  0.00    -0.243 NA
ENDBRANCH  16  19
ENDBRANCH   1  13
TORSDOF 2
ENDMDL
MODEL 7
REMARK VINA RESULT:      -8.3      3.112      6.021
REMARK  2 active torsions:
REMARK  status: ('A' for Active; 'I' for Inactive)
REMARK       I    between atoms: C1_2  and  N1_3 
REMARK       I    between atoms: C1_2  and  N3_10 
REMARK    1  A    between atoms: N1_3  and  C2_4 
REMARK    2  A    between atoms: N3_10  and  C7_11 
ROOT
HETATM    1  C7  UNL     1      24.451   3.745  50.893  1.00  0.00     0.045 A 
HETATM    2  C8  UNL     1      24.924   4.934  50.322  1.00  0.00     0.030 A 
HETATM    3  C9  UNL     1      24.416   5.397  49.105  1.00  0.00     0.003 A 
HETATM    4  C10 UNL     1      23.427   4.702  48.422  1.00  0.00     0.018 A 
HETATM    5  C11 UNL     1      22.979   3.527  49.019  1.00  0.00     0.042 A 
HETATM    6  C12 UNL     1      23.485   3.071  50.217  1.00  0.00     0.007 A 
HETATM    7  C13 UNL     1      22.854   1.791  50.438  1.00  0.00     0.125 C 
HETATM    8  C14 UNL     1      21.837   1.589  51.525  1.00  0.00     0.050 C 
HETATM    9  C15 UNL     1      21.280   0.623  50.431  1.00  0.00     0.129 C 
HETATM   10  N4  UNL     1      21.694   1.721  49.518  1.00  0.00    -0.339 N 
HETATM   11  C16 UNL     1      21.850   2.716  48.512  1.00  0.00     0.255 C 
HETATM   12  O2  UNL     1      21.154   2.794  47.496  1.00  0.00    -0.267 OA
ENDROOT
BRANCH   1  13
HETATM   13  N3  UNL     1      24.950   3.254  52.127  1.00  0.00    -0.308 N 
HETATM   14  C1  UNL     1      25.990   2.289  52.124  1.00  0.00     0.326 C 
HETATM   15  O1  UNL     1      26.407   1.928  50.998  1.00  0.00    -0.247 OA
HETATM   16  N1  UNL     1      26.609   1.688  53.225  1.00  0.00    -0.293 N 
HETATM   17  H1  UNL     1      26.175   2.070  54.089  1.00  0.00     0.172 HD
HETATM   18  H6  UNL     1      24.607   3.549  53.078  1.00  0.00     0.170 HD
BRANCH  16  19
HETATM   19  C2  UNL     1      27.639   0.731  53.311  1.00  0.00     0.131 A 
HETATM   20  C3  UNL     1      27.544  -0.625  53.137  1.00  0.00     0.050 A 
HETATM   21  C4  UNL     1      28.582  -1.523  53.231  1.00  0.00     0.005 A 
HETATM   22  C5  UNL     1      29.826  -1.014  53.526  1.00  0.00     0.019 A 
HETATM   23  C6  UNL     1      29.924   0.337  53.700  1.00  0.00     0.119 A 
HETATM   24  N2  UNL     1      28.873   1.158  53.594  1.00  0.00    -0.243 NA
ENDBRANCH  16  19
ENDBRANCH   1  13
TORSDOF 2
ENDMDL
MODEL 8
REMARK VINA RESULT:      -8.2      3.686      5.464
REMARK  2 active torsions:
REMARK  status: ('A' for Active; 'I' for Inactive)
REMARK       I    between atoms: C1_2  and  N1_3 
REMARK       I    between atoms: C1_2  and  N3_10 
REMARK    1  A    between atoms: N1_3  and  C2_4 
REMARK    2  A    between atoms: N3_10  and  C7_11 
ROOT
HETATM    1  C7  UNL     1      22.820   2.237  51.925  1.00  0.00     0.045 A 
HETATM    2  C8  UNL     1      23.047   3.151  50.888  1.00  0.00     0.030 A 
HETATM    3  C9  UNL     1      22.171   3.237  49.802  1.00  0.00     0.003 A 
HETATM    4  C10 UNL     1      21.047   2.426  49.714  1.00  0.00     0.018 A 
HETATM    5  C11 UNL     1      20.851   1.532  50.763  1.00  0.00     0.042 A 
HETATM    6  C12 UNL     1      21.720   1.447  51.830  1.00  0.00     0.007 A 
HETATM    7  C13 UNL     1      21.237   0.347  52.631  1.00  0.00     0.125 C 
HETATM    8  C14 UNL     1      20.614   0.565  53.980  1.00  0.00     0.050 C 
HETATM    9  C15 UNL     1      19.784  -0.660  53.478  1.00  0.00     0.129 C 
HETATM   10  N4  UNL     1      19.854   0.064  52.181  1.00  0.00    -0.339 N 
HETATM   11  C16 UNL     1      19.652   0.676  50.912  1.00  0.00     0.255 C 
HETATM   12  O2  UNL     1      18.675   0.473  50.187  1.00  0.00    -0.267 OA
ENDROOT
BRANCH   1  13
HETATM   13  N3  UNL     1      23.694   2.131  53.038  1.00  0.00    -0.308 N 
HETATM   14  C1  UNL     1      24.946   1.483  52.882  1.00  0.00     0.326 C 
HETATM   15  O1  UNL     1      25.200   1.037  51.737  1.00  0.00    -0.247 OA
HETATM   16  N1  UNL     1      25.937   1.279  53.849  1.00  0.00    -0.293 N 
HETATM   17  H1  UNL     1      25.605   1.691  54.743  1.00  0.00     0.172 HD
HETATM   18  H6  UNL     1      23.491   2.501  54.003  1.00  0.00     0.170 HD
BRANCH  16  19
HETATM   19  C2  UNL     1      27.196   0.653  53.779  1.00  0.00     0.131 A 
HETATM   20  C3  UNL     1      27.484  -0.611  53.333  1.00  0.00     0.050 A 
HETATM   21  C4  UNL     1      28.735  -1.181  53.283  1.00  0.00     0.005 A 
HETATM   22  C5  UNL     1      29.791  -0.414  53.720  1.00  0.00     0.019 A 
HETATM   23  C6  UNL     1      29.507   0.846  54.166  1.00  0.00     0.119 A 
HETATM   24  N2  UNL     1      28.265   1.342  54.187  1.00  0.00    -0.243 NA
ENDBRANCH  16  19
ENDBRANCH   1  13
TORSDOF 2
ENDMDL
MODEL 9
REMARK VINA RESULT:      -8.1      2.796      7.308
REMARK  2 active torsions:
REMARK  status: ('A' for Active; 'I' for Inactive)
REMARK       I    between atoms: C1_2  and  N1_3 
REMARK       I    between atoms: C1_2  and  N3_10 
REMARK    1  A    between atoms: N1_3  and  C2_4 
REMARK    2  A    between atoms: N3_10  and  C7_11 
ROOT
HETATM    1  C7  UNL     1      23.440   0.614  53.076  1.00  0.00     0.045 A 
HETATM    2  C8  UNL     1      24.159  -0.530  53.445  1.00  0.00     0.030 A 
HETATM    3  C9  UNL     1      25.498  -0.688  53.075  1.00  0.00     0.003 A 
HETATM    4  C10 UNL     1      26.162   0.281  52.333  1.00  0.00     0.018 A 
HETATM    5  C11 UNL     1      25.418   1.405  51.985  1.00  0.00     0.042 A 
HETATM    6  C12 UNL     1      24.096   1.554  52.349  1.00  0.00     0.007 A 
HETATM    7  C13 UNL     1      23.660   2.776  51.715  1.00  0.00     0.125 C 
HETATM    8  C14 UNL     1      23.353   4.013  52.510  1.00  0.00     0.050 C 
HETATM    9  C15 UNL     1      23.939   4.649  51.209  1.00  0.00     0.129 C 
HETATM   10  N4  UNL     1      24.882   3.503  51.299  1.00  0.00    -0.339 N 
HETATM   11  C16 UNL     1      25.978   2.595  51.308  1.00  0.00     0.255 C 
HETATM   12  O2  UNL     1      27.092   2.842  50.835  1.00  0.00    -0.267 OA
ENDROOT
BRANCH   1  13
HETATM   13  N3  UNL     1      22.081   0.797  53.439  1.00  0.00    -0.308 N 
HETATM   14  C1  UNL     1      21.059   0.401  52.539  1.00  0.00     0.326 C 
HETATM   15  O1  UNL     1      21.440  -0.098  51.453  1.00  0.00    -0.247 OA
HETATM   16  N1  UNL     1      19.674   0.499  52.713  1.00  0.00    -0.293 N 
HETATM   17  H1  UNL     1      19.494   0.925  53.644  1.00  0.00     0.172 HD
HETATM   18  H6  UNL     1      21.750   1.215  54.348  1.00  0.00     0.170 HD
BRANCH  16  19
HETATM   19  C2  UNL     1      18.599   0.133  51.879  1.00  0.00     0.131 A 
HETATM   20  C3  UNL     1      17.592  -0.757  52.147  1.00  0.00     0.050 A 
HETATM   21  C4  UNL     1      16.560  -1.083  51.297  1.00  0.00     0.005 A 
HETATM   22  C5  UNL     1      16.537  -0.460  50.070  1.00  0.00     0.019 A 
HETATM   23  C6  UNL     1      17.540   0.428  49.801  1.00  0.00     0.119 A 
HETATM   24  N2  UNL     1      18.517   0.702  50.673  1.00  0.00    -0.243 NA
ENDBRANCH  16  19
ENDBRANCH   1  13
TORSDOF 2
ENDMDL
