MODEL 1
REMARK VINA RESULT:      -7.8      0.000      0.000
REMARK  0 active torsions:
REMARK  status: ('A' for Active; 'I' for Inactive)
ROOT
HETATM    1  C1  UNL     1      22.378   6.399  48.159  1.00  0.00     0.155 C 
HETATM    2  N1  UNL     1      22.950   6.564  49.479  1.00  0.00    -0.355 N 
HETATM    3  C2  UNL     1      23.400   7.762  50.103  1.00  0.00     0.107 C 
HETATM    4  C3  UNL     1      24.076   7.632  51.208  1.00  0.00     0.105 C 
HETATM    5  N2  UNL     1      24.298   6.306  51.679  1.00  0.00    -0.359 N 
HETATM    6  P1  UNL     1      23.241   5.301  50.665  1.00  0.00     0.051 P 
HETATM    7  C4  UNL     1      21.917   4.835  51.437  1.00  0.00     0.042 C 
HETATM    8  C5  UNL     1      21.798   3.473  52.020  1.00  0.00     0.133 C 
HETATM    9  C6  UNL     1      20.426   2.907  51.736  1.00  0.00     0.076 C 
HETATM   10  C7  UNL     1      20.417   1.476  52.159  1.00  0.00     0.091 C 
HETATM   11  N3  UNL     1      20.428   1.388  53.458  1.00  0.00    -0.277 NA
HETATM   12  C8  UNL     1      20.425   0.136  54.103  1.00  0.00     0.112 C 
HETATM   13  C9  UNL     1      21.271  -0.813  54.449  1.00  0.00    -0.002 C 
HETATM   14  C10 UNL     1      22.670  -1.268  54.448  1.00  0.00     0.088 C 
HETATM   15  C11 UNL     1      23.512  -0.245  53.773  1.00  0.00     0.058 A 
HETATM   16  C12 UNL     1      24.893  -0.186  53.857  1.00  0.00     0.048 A 
HETATM   17  C13 UNL     1      25.632   0.802  53.199  1.00  0.00     0.138 A 
HETATM   18  N4  UNL     1      24.978   1.739  52.448  1.00  0.00    -0.075 NA
HETATM   19  C14 UNL     1      23.636   1.645  52.392  1.00  0.00     0.725 A 
HETATM   20  N5  UNL     1      22.938   0.698  53.024  1.00  0.00    -0.067 NA
HETATM   21  N6  UNL     1      22.880   2.604  51.617  1.00  0.00    -0.205 N 
HETATM   22  C15 UNL     1      23.308   2.667  50.257  1.00  0.00     0.150 C 
HETATM   23  C16 UNL     1      24.148   3.900  49.969  1.00  0.00     0.096 C 
HETATM   24  H6  UNL     1      24.919   5.973  52.431  1.00  0.00     0.165 HD
ENDROOT
TORSDOF 0
ENDMDL
MODEL 2
REMARK VINA RESULT:      -7.7      1.629      2.240
REMARK  0 active torsions:
REMARK  status: ('A' for Active; 'I' for Inactive)
ROOT
HETATM    1  C1  UNL     1      23.881   6.662  47.387  1.00  0.00     0.155 C 
HETATM    2  N1  UNL     1      24.329   6.957  48.733  1.00  0.00    -0.355 N 
HETATM    3  C2  UNL     1      24.484   8.229  49.353  1.00  0.00     0.107 C 
HETATM    4  C3  UNL     1      25.105   8.254  50.496  1.00  0.00     0.105 C 
HETATM    5  N2  UNL     1      25.568   7.009  51.009  1.00  0.00    -0.359 N 
HETATM    6  P1  UNL     1      24.803   5.795  49.962  1.00  0.00     0.051 P 
HETATM    7  C4  UNL     1      23.561   5.073  50.669  1.00  0.00     0.042 C 
HETATM    8  C5  UNL     1      23.692   3.723  51.277  1.00  0.00     0.133 C 
HETATM    9  C6  UNL     1      22.486   2.881  50.931  1.00  0.00     0.076 C 
HETATM   10  C7  UNL     1      22.747   1.485  51.385  1.00  0.00     0.091 C 
HETATM   11  N3  UNL     1      22.700   1.416  52.685  1.00  0.00    -0.277 NA
HETATM   12  C8  UNL     1      22.917   0.197  53.357  1.00  0.00     0.112 C 
HETATM   13  C9  UNL     1      23.919  -0.552  53.771  1.00  0.00    -0.002 C 
HETATM   14  C10 UNL     1      25.380  -0.706  53.858  1.00  0.00     0.088 C 
HETATM   15  C11 UNL     1      26.030   0.461  53.207  1.00  0.00     0.058 A 
HETATM   16  C12 UNL     1      27.362   0.807  53.366  1.00  0.00     0.048 A 
HETATM   17  C13 UNL     1      27.918   1.919  52.728  1.00  0.00     0.138 A 
HETATM   18  N4  UNL     1      27.130   2.691  51.920  1.00  0.00    -0.075 NA
HETATM   19  C14 UNL     1      25.843   2.321  51.792  1.00  0.00     0.725 A 
HETATM   20  N5  UNL     1      25.319   1.256  52.406  1.00  0.00    -0.067 NA
HETATM   21  N6  UNL     1      24.952   3.093  50.954  1.00  0.00    -0.205 N 
HETATM   22  C15 UNL     1      25.437   3.228  49.619  1.00  0.00     0.150 C 
HETATM   23  C16 UNL     1      26.020   4.605  49.350  1.00  0.00     0.096 C 
HETATM   24  H6  UNL     1      26.199   6.821  51.802  1.00  0.00     0.165 HD
ENDROOT
TORSDOF 0
ENDMDL
MODEL 3
REMARK VINA RESULT:      -7.6      1.380      1.540
REMARK  0 active torsions:
REMARK  status: ('A' for Active; 'I' for Inactive)
ROOT
HETATM    1  C1  UNL     1      19.858   5.360  48.286  1.00  0.00     0.155 C 
HETATM    2  N1  UNL     1      20.581   5.841  49.445  1.00  0.00    -0.355 N 
HETATM    3  C2  UNL     1      20.707   7.180  49.915  1.00  0.00     0.107 C 
HETATM    4  C3  UNL     1      21.584   7.394  50.851  1.00  0.00     0.105 C 
HETATM    5  N2  UNL     1      22.330   6.271  51.310  1.00  0.00    -0.359 N 
HETATM    6  P1  UNL     1      21.504   4.875  50.585  1.00  0.00     0.051 P 
HETATM    7  C4  UNL     1      20.591   4.088  51.640  1.00  0.00     0.042 C 
HETATM    8  C5  UNL     1      21.057   2.832  52.283  1.00  0.00     0.133 C 
HETATM    9  C6  UNL     1      19.932   1.824  52.322  1.00  0.00     0.076 C 
HETATM   10  C7  UNL     1      20.491   0.521  52.788  1.00  0.00     0.091 C 
HETATM   11  N3  UNL     1      20.779   0.580  54.056  1.00  0.00    -0.277 NA
HETATM   12  C8  UNL     1      21.325  -0.529  54.730  1.00  0.00     0.112 C 
HETATM   13  C9  UNL     1      22.493  -1.110  54.920  1.00  0.00    -0.002 C 
HETATM   14  C10 UNL     1      23.936  -1.082  54.633  1.00  0.00     0.088 C 
HETATM   15  C11 UNL     1      24.234   0.081  53.756  1.00  0.00     0.058 A 
HETATM   16  C12 UNL     1      25.501   0.595  53.538  1.00  0.00     0.048 A 
HETATM   17  C13 UNL     1      25.720   1.693  52.702  1.00  0.00     0.138 A 
HETATM   18  N4  UNL     1      24.656   2.281  52.077  1.00  0.00    -0.075 NA
HETATM   19  C14 UNL     1      23.442   1.751  52.315  1.00  0.00     0.725 A 
HETATM   20  N5  UNL     1      23.242   0.701  53.116  1.00  0.00    -0.067 NA
HETATM   21  N6  UNL     1      22.272   2.324  51.687  1.00  0.00    -0.205 N 
HETATM   22  C15 UNL     1      22.384   2.378  50.266  1.00  0.00     0.150 C 
HETATM   23  C16 UNL     1      22.683   3.779  49.760  1.00  0.00     0.096 C 
HETATM   24  H6  UNL     1      23.159   6.239  51.922  1.00  0.00     0.165 HD
ENDROOT
TORSDOF 0
ENDMDL
MODEL 4
REMARK VINA RESULT:      -7.4      1.572      3.676
REMARK  0 active torsions:
REMARK  status: ('A' for Active; 'I' for Inactive)
ROOT
HETATM    1  C1  UNL     1      22.964   6.424  48.877  1.00  0.00     0.155 C 
HETATM    2  N1  UNL     1      22.567   5.110  48.417  1.00  0.00    -0.355 N 
HETATM    3  C2  UNL     1      22.282   4.689  47.086  1.00  0.00     0.107 C 
HETATM    4  C3  UNL     1      21.735   3.517  46.945  1.00  0.00     0.105 C 
HETATM    5  N2  UNL     1      21.476   2.775  48.133  1.00  0.00    -0.359 N 
HETATM    6  P1  UNL     1      22.330   3.676  49.403  1.00  0.00     0.051 P 
HETATM    7  C4  UNL     1      23.699   2.969  49.839  1.00  0.00     0.042 C 
HETATM    8  C5  UNL     1      23.788   2.146  51.073  1.00  0.00     0.133 C 
HETATM    9  C6  UNL     1      25.073   2.454  51.808  1.00  0.00     0.076 C 
HETATM   10  C7  UNL     1      25.029   1.763  53.129  1.00  0.00     0.091 C 
HETATM   11  N3  UNL     1      25.167   0.477  52.972  1.00  0.00    -0.277 NA
HETATM   12  C8  UNL     1      25.157  -0.396  54.077  1.00  0.00     0.112 C 
HETATM   13  C9  UNL     1      24.292  -1.007  54.862  1.00  0.00    -0.002 C 
HETATM   14  C10 UNL     1      22.873  -1.239  55.176  1.00  0.00     0.088 C 
HETATM   15  C11 UNL     1      22.033  -0.467  54.224  1.00  0.00     0.058 A 
HETATM   16  C12 UNL     1      20.680  -0.680  54.020  1.00  0.00     0.048 A 
HETATM   17  C13 UNL     1      19.941   0.078  53.108  1.00  0.00     0.138 A 
HETATM   18  N4  UNL     1      20.566   1.062  52.393  1.00  0.00    -0.075 NA
HETATM   19  C14 UNL     1      21.881   1.236  52.620  1.00  0.00     0.725 A 
HETATM   20  N5  UNL     1      22.580   0.506  53.494  1.00  0.00    -0.067 NA
HETATM   21  N6  UNL     1      22.606   2.257  51.897  1.00  0.00    -0.205 N 
HETATM   22  C15 UNL     1      22.026   3.552  52.050  1.00  0.00     0.150 C 
HETATM   23  C16 UNL     1      21.248   3.987  50.819  1.00  0.00     0.096 C 
HETATM   24  H6  UNL     1      20.926   1.913  48.260  1.00  0.00     0.165 HD
ENDROOT
TORSDOF 0
ENDMDL
MODEL 5
REMARK VINA RESULT:      -7.4      2.728      4.853
REMARK  0 active torsions:
REMARK  status: ('A' for Active; 'I' for Inactive)
ROOT
HETATM    1  C1  UNL     1      17.176   0.250  50.136  1.00  0.00     0.155 C 
HETATM    2  N1  UNL     1      17.685   1.455  50.759  1.00  0.00    -0.355 N 
HETATM    3  C2  UNL     1      16.955   2.589  51.217  1.00  0.00     0.107 C 
HETATM    4  C3  UNL     1      17.647   3.641  51.544  1.00  0.00     0.105 C 
HETATM    5  N2  UNL     1      19.062   3.552  51.411  1.00  0.00    -0.359 N 
HETATM    6  P1  UNL     1      19.365   1.827  51.113  1.00  0.00     0.051 P 
HETATM    7  C4  UNL     1      19.925   1.072  52.410  1.00  0.00     0.042 C 
HETATM    8  C5  UNL     1      21.372   0.775  52.569  1.00  0.00     0.133 C 
HETATM    9  C6  UNL     1      21.557  -0.624  53.110  1.00  0.00     0.076 C 
HETATM   10  C7  UNL     1      23.011  -0.952  53.065  1.00  0.00     0.091 C 
HETATM   11  N3  UNL     1      23.655  -0.277  53.973  1.00  0.00    -0.277 NA
HETATM   12  C8  UNL     1      25.049  -0.413  54.129  1.00  0.00     0.112 C 
HETATM   13  C9  UNL     1      26.164   0.043  53.596  1.00  0.00    -0.002 C 
HETATM   14  C10 UNL     1      26.768   0.917  52.577  1.00  0.00     0.088 C 
HETATM   15  C11 UNL     1      25.685   1.576  51.800  1.00  0.00     0.058 A 
HETATM   16  C12 UNL     1      25.866   2.679  50.983  1.00  0.00     0.048 A 
HETATM   17  C13 UNL     1      24.808   3.258  50.276  1.00  0.00     0.138 A 
HETATM   18  N4  UNL     1      23.555   2.722  50.390  1.00  0.00    -0.075 NA
HETATM   19  C14 UNL     1      23.422   1.651  51.194  1.00  0.00     0.725 A 
HETATM   20  N5  UNL     1      24.439   1.105  51.866  1.00  0.00    -0.067 NA
HETATM   21  N6  UNL     1      22.125   1.035  51.362  1.00  0.00    -0.205 N 
HETATM   22  C15 UNL     1      21.539   0.645  50.121  1.00  0.00     0.150 C 
HETATM   23  C16 UNL     1      20.437   1.593  49.676  1.00  0.00     0.096 C 
HETATM   24  H6  UNL     1      19.774   4.295  51.469  1.00  0.00     0.165 HD
ENDROOT
TORSDOF 0
ENDMDL
MODEL 6
REMARK VINA RESULT:      -7.3      3.459      5.851
REMARK  0 active torsions:
REMARK  status: ('A' for Active; 'I' for Inactive)
ROOT
HETATM    1  C1  UNL     1      27.199   0.917  55.320  1.00  0.00     0.155 C 
HETATM    2  N1  UNL     1      26.994   0.055  54.174  1.00  0.00    -0.355 N 
HETATM    3  C2  UNL     1      27.890  -0.900  53.616  1.00  0.00     0.107 C 
HETATM    4  C3  UNL     1      27.570  -1.401  52.458  1.00  0.00     0.105 C 
HETATM    5  N2  UNL     1      26.359  -0.942  51.867  1.00  0.00    -0.359 N 
HETATM    6  P1  UNL     1      25.559  -0.029  53.164  1.00  0.00     0.051 P 
HETATM    7  C4  UNL     1      24.355  -0.846  53.834  1.00  0.00     0.042 C 
HETATM    8  C5  UNL     1      22.940  -0.579  53.469  1.00  0.00     0.133 C 
HETATM    9  C6  UNL     1      22.078  -0.570  54.711  1.00  0.00     0.076 C 
HETATM   10  C7  UNL     1      20.715  -0.104  54.328  1.00  0.00     0.091 C 
HETATM   11  N3  UNL     1      20.100  -1.022  53.639  1.00  0.00    -0.277 NA
HETATM   12  C8  UNL     1      18.792  -0.817  53.159  1.00  0.00     0.112 C 
HETATM   13  C9  UNL     1      18.176  -0.237  52.148  1.00  0.00    -0.002 C 
HETATM   14  C10 UNL     1      18.323   0.538  50.905  1.00  0.00     0.088 C 
HETATM   15  C11 UNL     1      19.767   0.796  50.663  1.00  0.00     0.058 A 
HETATM   16  C12 UNL     1      20.296   1.218  49.455  1.00  0.00     0.048 A 
HETATM   17  C13 UNL     1      21.665   1.445  49.286  1.00  0.00     0.138 A 
HETATM   18  N4  UNL     1      22.511   1.247  50.341  1.00  0.00    -0.075 NA
HETATM   19  C14 UNL     1      21.957   0.837  51.497  1.00  0.00     0.725 A 
HETATM   20  N5  UNL     1      20.648   0.622  51.649  1.00  0.00    -0.067 NA
HETATM   21  N6  UNL     1      22.794   0.606  52.653  1.00  0.00    -0.205 N 
HETATM   22  C15 UNL     1      23.577   1.747  52.999  1.00  0.00     0.150 C 
HETATM   23  C16 UNL     1      25.032   1.601  52.583  1.00  0.00     0.096 C 
HETATM   24  H6  UNL     1      25.999  -1.087  50.912  1.00  0.00     0.165 HD
ENDROOT
TORSDOF 0
ENDMDL
MODEL 7
REMARK VINA RESULT:      -7.0      2.176      4.133
REMARK  0 active torsions:
REMARK  status: ('A' for Active; 'I' for Inactive)
ROOT
HETATM    1  C1  UNL     1      19.809   6.297  49.297  1.00  0.00     0.155 C 
HETATM    2  N1  UNL     1      19.685   4.917  48.874  1.00  0.00    -0.355 N 
HETATM    3  C2  UNL     1      19.051   4.404  47.706  1.00  0.00     0.107 C 
HETATM    4  C3  UNL     1      18.877   3.116  47.649  1.00  0.00     0.105 C 
HETATM    5  N2  UNL     1      19.336   2.350  48.758  1.00  0.00    -0.359 N 
HETATM    6  P1  UNL     1      20.296   3.500  49.714  1.00  0.00     0.051 P 
HETATM    7  C4  UNL     1      21.872   3.281  49.530  1.00  0.00     0.042 C 
HETATM    8  C5  UNL     1      22.677   2.551  50.544  1.00  0.00     0.133 C 
HETATM    9  C6  UNL     1      23.985   3.270  50.780  1.00  0.00     0.076 C 
HETATM   10  C7  UNL     1      24.668   2.624  51.938  1.00  0.00     0.091 C 
HETATM   11  N3  UNL     1      25.118   1.449  51.601  1.00  0.00    -0.277 NA
HETATM   12  C8  UNL     1      25.802   0.638  52.527  1.00  0.00     0.112 C 
HETATM   13  C9  UNL     1      25.538  -0.206  53.504  1.00  0.00    -0.002 C 
HETATM   14  C10 UNL     1      24.495  -0.879  54.293  1.00  0.00     0.088 C 
HETATM   15  C11 UNL     1      23.160  -0.436  53.811  1.00  0.00     0.058 A 
HETATM   16  C12 UNL     1      21.968  -1.079  54.102  1.00  0.00     0.048 A 
HETATM   17  C13 UNL     1      20.741  -0.615  53.618  1.00  0.00     0.138 A 
HETATM   18  N4  UNL     1      20.711   0.505  52.836  1.00  0.00    -0.075 NA
HETATM   19  C14 UNL     1      21.890   1.100  52.577  1.00  0.00     0.725 A 
HETATM   20  N5  UNL     1      23.058   0.649  53.043  1.00  0.00    -0.067 NA
HETATM   21  N6  UNL     1      21.932   2.288  51.755  1.00  0.00    -0.205 N 
HETATM   22  C15 UNL     1      21.091   3.328  52.253  1.00  0.00     0.150 C 
HETATM   23  C16 UNL     1      19.806   3.468  51.454  1.00  0.00     0.096 C 
HETATM   24  H6  UNL     1      19.169   1.359  48.985  1.00  0.00     0.165 HD
ENDROOT
TORSDOF 0
ENDMDL
MODEL 8
REMARK VINA RESULT:      -7.0      2.267      3.427
REMARK  0 active torsions:
REMARK  status: ('A' for Active; 'I' for Inactive)
ROOT
HETATM    1  C1  UNL     1      25.970   8.115  46.763  1.00  0.00     0.155 C 
HETATM    2  N1  UNL     1      26.086   8.226  48.203  1.00  0.00    -0.355 N 
HETATM    3  C2  UNL     1      26.736   9.241  48.961  1.00  0.00     0.107 C 
HETATM    4  C3  UNL     1      26.895   9.014  50.233  1.00  0.00     0.105 C 
HETATM    5  N2  UNL     1      26.404   7.776  50.736  1.00  0.00    -0.359 N 
HETATM    6  P1  UNL     1      25.440   7.114  49.399  1.00  0.00     0.051 P 
HETATM    7  C4  UNL     1      23.865   7.281  49.640  1.00  0.00     0.042 C 
HETATM    8  C5  UNL     1      23.031   6.151  50.126  1.00  0.00     0.133 C 
HETATM    9  C6  UNL     1      21.727   6.105  49.363  1.00  0.00     0.076 C 
HETATM   10  C7  UNL     1      21.014   4.850  49.737  1.00  0.00     0.091 C 
HETATM   11  N3  UNL     1      20.555   4.935  50.953  1.00  0.00    -0.277 NA
HETATM   12  C8  UNL     1      19.843   3.870  51.538  1.00  0.00     0.112 C 
HETATM   13  C9  UNL     1      20.076   2.728  52.153  1.00  0.00    -0.002 C 
HETATM   14  C10 UNL     1      21.096   1.789  52.647  1.00  0.00     0.088 C 
HETATM   15  C11 UNL     1      22.445   2.326  52.330  1.00  0.00     0.058 A 
HETATM   16  C12 UNL     1      23.622   1.877  52.904  1.00  0.00     0.048 A 
HETATM   17  C13 UNL     1      24.865   2.422  52.567  1.00  0.00     0.138 A 
HETATM   18  N4  UNL     1      24.925   3.428  51.642  1.00  0.00    -0.075 NA
HETATM   19  C14 UNL     1      23.759   3.835  51.109  1.00  0.00     0.725 A 
HETATM   20  N5  UNL     1      22.576   3.308  51.438  1.00  0.00    -0.067 NA
HETATM   21  N6  UNL     1      23.749   4.896  50.126  1.00  0.00    -0.205 N 
HETATM   22  C15 UNL     1      24.592   4.616  49.010  1.00  0.00     0.150 C 
HETATM   23  C16 UNL     1      25.895   5.397  49.057  1.00  0.00     0.096 C 
HETATM   24  H6  UNL     1      26.554   7.337  51.656  1.00  0.00     0.165 HD
ENDROOT
TORSDOF 0
ENDMDL
MODEL 9
REMARK VINA RESULT:      -6.8      2.158      2.620
REMARK  0 active torsions:
REMARK  status: ('A' for Active; 'I' for Inactive)
ROOT
HETATM    1  C1  UNL     1      19.732   3.738  46.017  1.00  0.00     0.155 C 
HETATM    2  N1  UNL     1      20.274   4.484  47.134  1.00  0.00    -0.355 N 
HETATM    3  C2  UNL     1      20.355   5.897  47.296  1.00  0.00     0.107 C 
HETATM    4  C3  UNL     1      21.077   6.335  48.286  1.00  0.00     0.105 C 
HETATM    5  N2  UNL     1      21.714   5.359  49.104  1.00  0.00    -0.359 N 
HETATM    6  P1  UNL     1      20.983   3.821  48.598  1.00  0.00     0.051 P 
HETATM    7  C4  UNL     1      19.896   3.287  49.646  1.00  0.00     0.042 C 
HETATM    8  C5  UNL     1      20.225   2.221  50.628  1.00  0.00     0.133 C 
HETATM    9  C6  UNL     1      19.085   1.232  50.719  1.00  0.00     0.076 C 
HETATM   10  C7  UNL     1      19.534   0.081  51.555  1.00  0.00     0.091 C 
HETATM   11  N3  UNL     1      19.619   0.436  52.805  1.00  0.00    -0.277 NA
HETATM   12  C8  UNL     1      20.026  -0.480  53.795  1.00  0.00     0.112 C 
HETATM   13  C9  UNL     1      21.135  -0.984  54.296  1.00  0.00    -0.002 C 
HETATM   14  C10 UNL     1      22.606  -1.002  54.244  1.00  0.00     0.088 C 
HETATM   15  C11 UNL     1      23.065  -0.069  53.182  1.00  0.00     0.058 A 
HETATM   16  C12 UNL     1      24.363   0.399  53.057  1.00  0.00     0.048 A 
HETATM   17  C13 UNL     1      24.736   1.277  52.036  1.00  0.00     0.138 A 
HETATM   18  N4  UNL     1      23.798   1.689  51.130  1.00  0.00    -0.075 NA
HETATM   19  C14 UNL     1      22.550   1.211  51.287  1.00  0.00     0.725 A 
HETATM   20  N5  UNL     1      22.201   0.372  52.267  1.00  0.00    -0.067 NA
HETATM   21  N6  UNL     1      21.507   1.606  50.367  1.00  0.00    -0.205 N 
HETATM   22  C15 UNL     1      21.844   1.331  49.008  1.00  0.00     0.150 C 
HETATM   23  C16 UNL     1      22.252   2.582  48.246  1.00  0.00     0.096 C 
HETATM   24  H6  UNL     1      22.435   5.482  49.830  1.00  0.00     0.165 HD
ENDROOT
TORSDOF 0
ENDMDL
