MODEL 1
REMARK VINA RESULT:      -9.1      0.000      0.000
REMARK  6 active torsions:
REMARK  status: ('A' for Active; 'I' for Inactive)
REMARK    1  A    between atoms: C2_2  and  C3_3 
REMARK    2  A    between atoms: C2_2  and  N2_9 
REMARK    3  A    between atoms: C10_16  and  N5_17 
REMARK    4  A    between atoms: N5_17  and  C11_18 
REMARK    5  A    between atoms: C18_27  and  O3_28 
REMARK    6  A    between atoms: O3_28  and  C19_29 
ROOT
HETATM    1  N2  UNL     1      24.188   0.419  53.000  1.00  0.00    -0.351 N 
HETATM    2  C6  UNL     1      24.334   1.806  52.605  1.00  0.00     0.170 C 
HETATM    3  C7  UNL     1      23.153   2.365  51.899  1.00  0.00     0.035 A 
HETATM    4  C8  UNL     1      21.937   1.735  51.762  1.00  0.00     0.074 A 
HETATM    5  N3  UNL     1      20.885   2.326  51.140  1.00  0.00    -0.241 NA
HETATM    6  C9  UNL     1      21.061   3.555  50.654  1.00  0.00     0.235 A 
HETATM    7  N4  UNL     1      22.228   4.160  50.783  1.00  0.00    -0.224 NA
HETATM    8  C10 UNL     1      23.306   3.638  51.386  1.00  0.00     0.139 A 
HETATM    9  C17 UNL     1      21.862   0.381  52.290  1.00  0.00     0.088 C 
HETATM   10  C18 UNL     1      22.921  -0.216  52.865  1.00  0.00     0.151 C 
ENDROOT
BRANCH   8  11
HETATM   11  N5  UNL     1      24.482   4.422  51.447  1.00  0.00    -0.340 N 
HETATM   12  H12 UNL     1      24.640   4.764  52.424  1.00  0.00     0.167 HD
BRANCH  11  13
HETATM   13  C11 UNL     1      25.428   4.805  50.466  1.00  0.00     0.035 A 
HETATM   14  C12 UNL     1      26.347   3.979  49.861  1.00  0.00     0.032 A 
HETATM   15  C13 UNL     1      27.259   4.373  48.905  1.00  0.00     0.046 A 
HETATM   16  C14 UNL     1      27.217   5.684  48.560  1.00  0.00     0.138 A 
HETATM   17  F1  UNL     1      28.072   6.159  47.633  1.00  0.00    -0.204 F 
HETATM   18  C15 UNL     1      26.331   6.577  49.115  1.00  0.00     0.074 A 
HETATM   19 CL1  UNL     1      26.331   8.244  48.627  1.00  0.00    -0.081 Cl
HETATM   20  C16 UNL     1      25.449   6.120  50.062  1.00  0.00     0.056 A 
ENDBRANCH  11  13
ENDBRANCH   8  11
BRANCH   1  21
HETATM   21  C2  UNL     1      25.268  -0.350  53.500  1.00  0.00     0.107 C 
HETATM   22  C1  UNL     1      25.909   0.214  54.756  1.00  0.00     0.034 C 
BRANCH  21  23
HETATM   23  C3  UNL     1      26.393  -0.696  52.607  1.00  0.00     0.133 C 
HETATM   24  C4  UNL     1      27.643  -0.036  53.208  1.00  0.00     0.208 C 
HETATM   25  O1  UNL     1      28.690  -0.998  53.104  1.00  0.00    -0.302 OA
HETATM   26  C5  UNL     1      28.053  -2.258  53.026  1.00  0.00     0.361 C 
HETATM   27  O2  UNL     1      28.810  -3.181  53.507  1.00  0.00    -0.239 OA
HETATM   28  N1  UNL     1      26.752  -2.050  52.419  1.00  0.00    -0.328 N 
HETATM   29  H8  UNL     1      26.561  -3.034  52.046  1.00  0.00     0.165 HD
ENDBRANCH  21  23
ENDBRANCH   1  21
BRANCH  10  30
HETATM   30  O3  UNL     1      22.544  -1.500  53.278  1.00  0.00    -0.269 OA
BRANCH  30  31
HETATM   31  C19 UNL     1      21.931  -1.677  54.536  1.00  0.00     0.405 C 
HETATM   32  O4  UNL     1      22.624  -1.565  55.602  1.00  0.00    -0.276 OA
ENDBRANCH  30  31
ENDBRANCH  10  30
TORSDOF 6
ENDMDL
MODEL 2
REMARK VINA RESULT:      -8.8      4.223      6.730
REMARK  6 active torsions:
REMARK  status: ('A' for Active; 'I' for Inactive)
REMARK    1  A    between atoms: C2_2  and  C3_3 
REMARK    2  A    between atoms: C2_2  and  N2_9 
REMARK    3  A    between atoms: C10_16  and  N5_17 
REMARK    4  A    between atoms: N5_17  and  C11_18 
REMARK    5  A    between atoms: C18_27  and  O3_28 
REMARK    6  A    between atoms: O3_28  and  C19_29 
ROOT
HETATM    1  N2  UNL     1      22.286   2.869  51.780  1.00  0.00    -0.351 N 
HETATM    2  C6  UNL     1      23.192   1.760  52.002  1.00  0.00     0.170 C 
HETATM    3  C7  UNL     1      22.707   0.768  52.995  1.00  0.00     0.035 A 
HETATM    4  C8  UNL     1      21.449   0.749  53.551  1.00  0.00     0.074 A 
HETATM    5  N3  UNL     1      21.059  -0.216  54.422  1.00  0.00    -0.241 NA
HETATM    6  C9  UNL     1      21.943  -1.165  54.733  1.00  0.00     0.235 A 
HETATM    7  N4  UNL     1      23.152  -1.148  54.201  1.00  0.00    -0.224 NA
HETATM    8  C10 UNL     1      23.601  -0.228  53.335  1.00  0.00     0.139 A 
HETATM    9  C17 UNL     1      20.575   1.853  53.179  1.00  0.00     0.088 C 
HETATM   10  C18 UNL     1      20.982   2.831  52.350  1.00  0.00     0.151 C 
ENDROOT
BRANCH   8  11
HETATM   11  N5  UNL     1      24.924  -0.358  52.850  1.00  0.00    -0.340 N 
HETATM   12  H12 UNL     1      24.952  -1.023  52.043  1.00  0.00     0.167 HD
BRANCH  11  13
HETATM   13  C11 UNL     1      26.150   0.226  53.250  1.00  0.00     0.035 A 
HETATM   14  C12 UNL     1      26.345   1.544  53.593  1.00  0.00     0.032 A 
HETATM   15  C13 UNL     1      27.549   2.092  53.983  1.00  0.00     0.046 A 
HETATM   16  C14 UNL     1      28.599   1.235  54.018  1.00  0.00     0.138 A 
HETATM   17  F1  UNL     1      29.816   1.681  54.387  1.00  0.00    -0.204 F 
HETATM   18  C15 UNL     1      28.491  -0.096  53.691  1.00  0.00     0.074 A 
HETATM   19 CL1  UNL     1      29.878  -1.140  53.758  1.00  0.00    -0.081 Cl
HETATM   20  C16 UNL     1      27.264  -0.579  53.311  1.00  0.00     0.056 A 
ENDBRANCH  11  13
ENDBRANCH   8  11
BRANCH   1  21
HETATM   21  C2  UNL     1      22.650   4.015  51.029  1.00  0.00     0.107 C 
HETATM   22  C1  UNL     1      22.704   3.788  49.528  1.00  0.00     0.034 C 
BRANCH  21  23
HETATM   23  C3  UNL     1      23.893   4.739  51.361  1.00  0.00     0.133 C 
HETATM   24  C4  UNL     1      24.619   4.988  50.030  1.00  0.00     0.208 C 
HETATM   25  O1  UNL     1      25.114   6.324  50.091  1.00  0.00    -0.302 OA
HETATM   26  C5  UNL     1      24.300   6.997  51.031  1.00  0.00     0.361 C 
HETATM   27  O2  UNL     1      24.236   8.253  50.760  1.00  0.00    -0.239 OA
HETATM   28  N1  UNL     1      23.824   6.008  51.980  1.00  0.00    -0.328 N 
HETATM   29  H8  UNL     1      23.602   6.642  52.812  1.00  0.00     0.165 HD
ENDBRANCH  21  23
ENDBRANCH   1  21
BRANCH  10  30
HETATM   30  O3  UNL     1      19.930   3.738  52.176  1.00  0.00    -0.269 OA
BRANCH  30  31
HETATM   31  C19 UNL     1      18.726   3.306  51.581  1.00  0.00     0.405 C 
HETATM   32  O4  UNL     1      17.610   3.757  52.006  1.00  0.00    -0.276 OA
ENDBRANCH  30  31
ENDBRANCH  10  30
TORSDOF 6
ENDMDL
MODEL 3
REMARK VINA RESULT:      -8.7      4.898      7.204
REMARK  6 active torsions:
REMARK  status: ('A' for Active; 'I' for Inactive)
REMARK    1  A    between atoms: C2_2  and  C3_3 
REMARK    2  A    between atoms: C2_2  and  N2_9 
REMARK    3  A    between atoms: C10_16  and  N5_17 
REMARK    4  A    between atoms: N5_17  and  C11_18 
REMARK    5  A    between atoms: C18_27  and  O3_28 
REMARK    6  A    between atoms: O3_28  and  C19_29 
ROOT
HETATM    1  N2  UNL     1      20.515   0.523  51.382  1.00  0.00    -0.351 N 
HETATM    2  C6  UNL     1      21.912   0.356  51.726  1.00  0.00     0.170 C 
HETATM    3  C7  UNL     1      22.141  -0.283  53.047  1.00  0.00     0.035 A 
HETATM    4  C8  UNL     1      21.166  -0.850  53.836  1.00  0.00     0.074 A 
HETATM    5  N3  UNL     1      21.455  -1.457  55.015  1.00  0.00    -0.241 NA
HETATM    6  C9  UNL     1      22.731  -1.490  55.400  1.00  0.00     0.235 A 
HETATM    7  N4  UNL     1      23.668  -0.947  54.645  1.00  0.00    -0.224 NA
HETATM    8  C10 UNL     1      23.455  -0.334  53.471  1.00  0.00     0.139 A 
HETATM    9  C17 UNL     1      19.802  -0.721  53.346  1.00  0.00     0.088 C 
HETATM   10  C18 UNL     1      19.517  -0.079  52.199  1.00  0.00     0.151 C 
ENDROOT
BRANCH   8  11
HETATM   11  N5  UNL     1      24.572   0.192  52.779  1.00  0.00    -0.340 N 
HETATM   12  H12 UNL     1      24.256   0.794  51.984  1.00  0.00     0.167 HD
BRANCH  11  13
HETATM   13  C11 UNL     1      25.967   0.046  52.967  1.00  0.00     0.035 A 
HETATM   14  C12 UNL     1      26.677  -1.130  52.883  1.00  0.00     0.032 A 
HETATM   15  C13 UNL     1      28.038  -1.249  53.068  1.00  0.00     0.046 A 
HETATM   16  C14 UNL     1      28.694  -0.097  53.355  1.00  0.00     0.138 A 
HETATM   17  F1  UNL     1      30.026  -0.117  53.553  1.00  0.00    -0.204 F 
HETATM   18  C15 UNL     1      28.062   1.119  53.458  1.00  0.00     0.074 A 
HETATM   19 CL1  UNL     1      28.963   2.557  53.828  1.00  0.00    -0.081 Cl
HETATM   20  C16 UNL     1      26.704   1.170  53.261  1.00  0.00     0.056 A 
ENDBRANCH  11  13
ENDBRANCH   8  11
BRANCH   1  21
HETATM   21  C2  UNL     1      20.089   1.287  50.266  1.00  0.00     0.107 C 
HETATM   22  C1  UNL     1      20.977   1.156  49.042  1.00  0.00     0.034 C 
BRANCH  21  23
HETATM   23  C3  UNL     1      19.850   2.736  50.424  1.00  0.00     0.133 C 
HETATM   24  C4  UNL     1      18.748   3.107  49.420  1.00  0.00     0.208 C 
HETATM   25  O1  UNL     1      17.867   3.993  50.105  1.00  0.00    -0.302 OA
HETATM   26  C5  UNL     1      18.041   3.726  51.483  1.00  0.00     0.361 C 
HETATM   27  O2  UNL     1      16.965   3.988  52.137  1.00  0.00    -0.239 OA
HETATM   28  N1  UNL     1      19.398   3.245  51.663  1.00  0.00    -0.328 N 
HETATM   29  H8  UNL     1      19.540   3.472  52.699  1.00  0.00     0.165 HD
ENDBRANCH  21  23
ENDBRANCH   1  21
BRANCH  10  30
HETATM   30  O3  UNL     1      18.133  -0.126  51.990  1.00  0.00    -0.269 OA
BRANCH  30  31
HETATM   31  C19 UNL     1      17.310  -0.807  52.911  1.00  0.00     0.405 C 
HETATM   32  O4  UNL     1      16.119  -0.397  53.122  1.00  0.00    -0.276 OA
ENDBRANCH  30  31
ENDBRANCH  10  30
TORSDOF 6
ENDMDL
MODEL 4
REMARK VINA RESULT:      -8.7      1.714      2.301
REMARK  6 active torsions:
REMARK  status: ('A' for Active; 'I' for Inactive)
REMARK    1  A    between atoms: C2_2  and  C3_3 
REMARK    2  A    between atoms: C2_2  and  N2_9 
REMARK    3  A    between atoms: C10_16  and  N5_17 
REMARK    4  A    between atoms: N5_17  and  C11_18 
REMARK    5  A    between atoms: C18_27  and  O3_28 
REMARK    6  A    between atoms: O3_28  and  C19_29 
ROOT
HETATM    1  N2  UNL     1      25.444   0.602  52.461  1.00  0.00    -0.351 N 
HETATM    2  C6  UNL     1      25.439   1.755  51.583  1.00  0.00     0.170 C 
HETATM    3  C7  UNL     1      24.093   2.337  51.350  1.00  0.00     0.035 A 
HETATM    4  C8  UNL     1      22.944   1.976  52.016  1.00  0.00     0.074 A 
HETATM    5  N3  UNL     1      21.753   2.583  51.782  1.00  0.00    -0.241 NA
HETATM    6  C9  UNL     1      21.721   3.556  50.871  1.00  0.00     0.235 A 
HETATM    7  N4  UNL     1      22.822   3.903  50.229  1.00  0.00    -0.224 NA
HETATM    8  C10 UNL     1      24.029   3.349  50.412  1.00  0.00     0.139 A 
HETATM    9  C17 UNL     1      23.079   0.875  52.959  1.00  0.00     0.088 C 
HETATM   10  C18 UNL     1      24.252   0.248  53.155  1.00  0.00     0.151 C 
ENDROOT
BRANCH   8  11
HETATM   11  N5  UNL     1      25.114   3.842  49.648  1.00  0.00    -0.340 N 
HETATM   12  H12 UNL     1      25.526   3.077  49.067  1.00  0.00     0.167 HD
BRANCH  11  13
HETATM   13  C11 UNL     1      25.704   5.124  49.545  1.00  0.00     0.035 A 
HETATM   14  C12 UNL     1      25.278   6.266  50.184  1.00  0.00     0.032 A 
HETATM   15  C13 UNL     1      25.870   7.506  50.071  1.00  0.00     0.046 A 
HETATM   16  C14 UNL     1      26.953   7.566  49.257  1.00  0.00     0.138 A 
HETATM   17  F1  UNL     1      27.597   8.738  49.086  1.00  0.00    -0.204 F 
HETATM   18  C15 UNL     1      27.445   6.475  48.582  1.00  0.00     0.074 A 
HETATM   19 CL1  UNL     1      28.838   6.622  47.555  1.00  0.00    -0.081 Cl
HETATM   20  C16 UNL     1      26.809   5.268  48.738  1.00  0.00     0.056 A 
ENDBRANCH  11  13
ENDBRANCH   8  11
BRANCH   1  21
HETATM   21  C2  UNL     1      26.589  -0.212  52.647  1.00  0.00     0.107 C 
HETATM   22  C1  UNL     1      26.377  -1.677  52.307  1.00  0.00     0.034 C 
BRANCH  21  23
HETATM   23  C3  UNL     1      27.281  -0.209  53.952  1.00  0.00     0.133 C 
HETATM   24  C4  UNL     1      28.720  -0.673  53.681  1.00  0.00     0.208 C 
HETATM   25  O1  UNL     1      29.564   0.171  54.459  1.00  0.00    -0.302 OA
HETATM   26  C5  UNL     1      28.826   1.356  54.686  1.00  0.00     0.361 C 
HETATM   27  O2  UNL     1      29.613   2.362  54.833  1.00  0.00    -0.239 OA
HETATM   28  N1  UNL     1      27.419   0.999  54.673  1.00  0.00    -0.328 N 
HETATM   29  H8  UNL     1      27.016   1.814  55.236  1.00  0.00     0.165 HD
ENDBRANCH  21  23
ENDBRANCH   1  21
BRANCH  10  30
HETATM   30  O3  UNL     1      24.071  -0.754  54.117  1.00  0.00    -0.269 OA
BRANCH  30  31
HETATM   31  C19 UNL     1      22.822  -0.889  54.758  1.00  0.00     0.405 C 
HETATM   32  O4  UNL     1      22.529  -1.979  55.355  1.00  0.00    -0.276 OA
ENDBRANCH  30  31
ENDBRANCH  10  30
TORSDOF 6
ENDMDL
MODEL 5
REMARK VINA RESULT:      -8.6      4.575      6.695
REMARK  6 active torsions:
REMARK  status: ('A' for Active; 'I' for Inactive)
REMARK    1  A    between atoms: C2_2  and  C3_3 
REMARK    2  A    between atoms: C2_2  and  N2_9 
REMARK    3  A    between atoms: C10_16  and  N5_17 
REMARK    4  A    between atoms: N5_17  and  C11_18 
REMARK    5  A    between atoms: C18_27  and  O3_28 
REMARK    6  A    between atoms: O3_28  and  C19_29 
ROOT
HETATM    1  N2  UNL     1      20.912   0.651  51.478  1.00  0.00    -0.351 N 
HETATM    2  C6  UNL     1      22.310   0.521  51.837  1.00  0.00     0.170 C 
HETATM    3  C7  UNL     1      22.543  -0.149  53.142  1.00  0.00     0.035 A 
HETATM    4  C8  UNL     1      21.579  -0.771  53.901  1.00  0.00     0.074 A 
HETATM    5  N3  UNL     1      21.873  -1.403  55.065  1.00  0.00    -0.241 NA
HETATM    6  C9  UNL     1      23.144  -1.404  55.466  1.00  0.00     0.235 A 
HETATM    7  N4  UNL     1      24.072  -0.807  54.740  1.00  0.00    -0.224 NA
HETATM    8  C10 UNL     1      23.852  -0.168  53.582  1.00  0.00     0.139 A 
HETATM    9  C17 UNL     1      20.217  -0.674  53.396  1.00  0.00     0.088 C 
HETATM   10  C18 UNL     1      19.925  -0.009  52.264  1.00  0.00     0.151 C 
ENDROOT
BRANCH   8  11
HETATM   11  N5  UNL     1      24.960   0.416  52.921  1.00  0.00    -0.340 N 
HETATM   12  H12 UNL     1      24.634   1.019  52.131  1.00  0.00     0.167 HD
BRANCH  11  13
HETATM   13  C11 UNL     1      26.356   0.323  53.134  1.00  0.00     0.035 A 
HETATM   14  C12 UNL     1      27.200   1.367  53.435  1.00  0.00     0.032 A 
HETATM   15  C13 UNL     1      28.559   1.255  53.641  1.00  0.00     0.046 A 
HETATM   16  C14 UNL     1      29.067   0.002  53.527  1.00  0.00     0.138 A 
HETATM   17  F1  UNL     1      30.386  -0.204  53.711  1.00  0.00    -0.204 F 
HETATM   18  C15 UNL     1      28.295  -1.095  53.230  1.00  0.00     0.074 A 
HETATM   19 CL1  UNL     1      29.011  -2.673  53.100  1.00  0.00    -0.081 Cl
HETATM   20  C16 UNL     1      26.948  -0.915  53.037  1.00  0.00     0.056 A 
ENDBRANCH  11  13
ENDBRANCH   8  11
BRANCH   1  21
HETATM   21  C2  UNL     1      20.475   1.432  50.379  1.00  0.00     0.107 C 
HETATM   22  C1  UNL     1      21.119   1.065  49.055  1.00  0.00     0.034 C 
BRANCH  21  23
HETATM   23  C3  UNL     1      20.550   2.905  50.457  1.00  0.00     0.133 C 
HETATM   24  C4  UNL     1      20.070   3.291  51.865  1.00  0.00     0.208 C 
HETATM   25  O1  UNL     1      20.956   4.310  52.322  1.00  0.00    -0.302 OA
HETATM   26  C5  UNL     1      22.152   4.144  51.586  1.00  0.00     0.361 C 
HETATM   27  O2  UNL     1      23.165   4.559  52.262  1.00  0.00    -0.239 OA
HETATM   28  N1  UNL     1      21.797   3.555  50.308  1.00  0.00    -0.328 N 
HETATM   29  H8  UNL     1      22.642   3.854  49.724  1.00  0.00     0.165 HD
ENDBRANCH  21  23
ENDBRANCH   1  21
BRANCH  10  30
HETATM   30  O3  UNL     1      18.547  -0.097  52.033  1.00  0.00    -0.269 OA
BRANCH  30  31
HETATM   31  C19 UNL     1      17.782  -1.058  52.728  1.00  0.00     0.405 C 
HETATM   32  O4  UNL     1      16.705  -0.708  53.317  1.00  0.00    -0.276 OA
ENDBRANCH  30  31
ENDBRANCH  10  30
TORSDOF 6
ENDMDL
MODEL 6
REMARK VINA RESULT:      -8.5      4.686      7.433
REMARK  6 active torsions:
REMARK  status: ('A' for Active; 'I' for Inactive)
REMARK    1  A    between atoms: C2_2  and  C3_3 
REMARK    2  A    between atoms: C2_2  and  N2_9 
REMARK    3  A    between atoms: C10_16  and  N5_17 
REMARK    4  A    between atoms: N5_17  and  C11_18 
REMARK    5  A    between atoms: C18_27  and  O3_28 
REMARK    6  A    between atoms: O3_28  and  C19_29 
ROOT
HETATM    1  N2  UNL     1      24.921   3.743  49.845  1.00  0.00    -0.351 N 
HETATM    2  C6  UNL     1      25.393   3.021  51.009  1.00  0.00     0.170 C 
HETATM    3  C7  UNL     1      24.398   2.081  51.588  1.00  0.00     0.035 A 
HETATM    4  C8  UNL     1      23.192   1.748  51.015  1.00  0.00     0.074 A 
HETATM    5  N3  UNL     1      22.350   0.847  51.580  1.00  0.00    -0.241 NA
HETATM    6  C9  UNL     1      22.725   0.281  52.728  1.00  0.00     0.235 A 
HETATM    7  N4  UNL     1      23.882   0.600  53.280  1.00  0.00    -0.224 NA
HETATM    8  C10 UNL     1      24.761   1.479  52.776  1.00  0.00     0.139 A 
HETATM    9  C17 UNL     1      22.858   2.454  49.786  1.00  0.00     0.088 C 
HETATM   10  C18 UNL     1      23.677   3.379  49.254  1.00  0.00     0.151 C 
ENDROOT
BRANCH   8  11
HETATM   11  N5  UNL     1      25.963   1.704  53.489  1.00  0.00    -0.340 N 
HETATM   12  H12 UNL     1      25.897   2.590  54.041  1.00  0.00     0.167 HD
BRANCH  11  13
HETATM   13  C11 UNL     1      27.173   0.975  53.574  1.00  0.00     0.035 A 
HETATM   14  C12 UNL     1      28.392   1.473  53.974  1.00  0.00     0.032 A 
HETATM   15  C13 UNL     1      29.560   0.744  54.051  1.00  0.00     0.046 A 
HETATM   16  C14 UNL     1      29.460  -0.561  53.696  1.00  0.00     0.138 A 
HETATM   17  F1  UNL     1      30.551  -1.351  53.740  1.00  0.00    -0.204 F 
HETATM   18  C15 UNL     1      28.283  -1.138  53.285  1.00  0.00     0.074 A 
HETATM   19 CL1  UNL     1      28.226  -2.818  52.844  1.00  0.00    -0.081 Cl
HETATM   20  C16 UNL     1      27.155  -0.357  53.230  1.00  0.00     0.056 A 
ENDBRANCH  11  13
ENDBRANCH   8  11
BRANCH   1  21
HETATM   21  C2  UNL     1      25.638   4.823  49.273  1.00  0.00     0.107 C 
HETATM   22  C1  UNL     1      27.101   4.525  48.995  1.00  0.00     0.034 C 
BRANCH  21  23
HETATM   23  C3  UNL     1      25.627   6.141  49.940  1.00  0.00     0.133 C 
HETATM   24  C4  UNL     1      25.276   7.172  48.857  1.00  0.00     0.208 C 
HETATM   25  O1  UNL     1      24.351   8.078  49.455  1.00  0.00    -0.302 OA
HETATM   26  C5  UNL     1      23.750   7.371  50.522  1.00  0.00     0.361 C 
HETATM   27  O2  UNL     1      22.562   7.809  50.746  1.00  0.00    -0.239 OA
HETATM   28  N1  UNL     1      24.712   6.390  50.989  1.00  0.00    -0.328 N 
HETATM   29  H8  UNL     1      24.349   6.232  51.982  1.00  0.00     0.165 HD
ENDBRANCH  21  23
ENDBRANCH   1  21
BRANCH  10  30
HETATM   30  O3  UNL     1      23.095   3.873  48.081  1.00  0.00    -0.269 OA
BRANCH  30  31
HETATM   31  C19 UNL     1      22.247   4.999  48.142  1.00  0.00     0.405 C 
HETATM   32  O4  UNL     1      22.387   5.946  47.297  1.00  0.00    -0.276 OA
ENDBRANCH  30  31
ENDBRANCH  10  30
TORSDOF 6
ENDMDL
MODEL 7
REMARK VINA RESULT:      -8.4      4.296      6.715
REMARK  6 active torsions:
REMARK  status: ('A' for Active; 'I' for Inactive)
REMARK    1  A    between atoms: C2_2  and  C3_3 
REMARK    2  A    between atoms: C2_2  and  N2_9 
REMARK    3  A    between atoms: C10_16  and  N5_17 
REMARK    4  A    between atoms: N5_17  and  C11_18 
REMARK    5  A    between atoms: C18_27  and  O3_28 
REMARK    6  A    between atoms: O3_28  and  C19_29 
ROOT
HETATM    1  N2  UNL     1      25.448   2.692  51.255  1.00  0.00    -0.351 N 
HETATM    2  C6  UNL     1      24.057   2.686  51.660  1.00  0.00     0.170 C 
HETATM    3  C7  UNL     1      23.227   3.728  51.002  1.00  0.00     0.035 A 
HETATM    4  C8  UNL     1      23.638   4.534  49.965  1.00  0.00     0.074 A 
HETATM    5  N3  UNL     1      22.810   5.437  49.382  1.00  0.00    -0.241 NA
HETATM    6  C9  UNL     1      21.564   5.528  49.848  1.00  0.00     0.235 A 
HETATM    7  N4  UNL     1      21.168   4.756  50.844  1.00  0.00    -0.224 NA
HETATM    8  C10 UNL     1      21.931   3.844  51.464  1.00  0.00     0.139 A 
HETATM    9  C17 UNL     1      25.028   4.385  49.560  1.00  0.00     0.088 C 
HETATM   10  C18 UNL     1      25.857   3.520  50.172  1.00  0.00     0.151 C 
ENDROOT
BRANCH   8  11
HETATM   11  N5  UNL     1      21.351   3.090  52.512  1.00  0.00    -0.340 N 
HETATM   12  H12 UNL     1      21.610   3.499  53.439  1.00  0.00     0.167 HD
BRANCH  11  13
HETATM   13  C11 UNL     1      20.529   1.938  52.518  1.00  0.00     0.035 A 
HETATM   14  C12 UNL     1      19.349   1.781  51.828  1.00  0.00     0.032 A 
HETATM   15  C13 UNL     1      18.564   0.648  51.847  1.00  0.00     0.046 A 
HETATM   16  C14 UNL     1      19.022  -0.370  52.618  1.00  0.00     0.138 A 
HETATM   17  F1  UNL     1      18.321  -1.517  52.698  1.00  0.00    -0.204 F 
HETATM   18  C15 UNL     1      20.190  -0.296  53.339  1.00  0.00     0.074 A 
HETATM   19 CL1  UNL     1      20.719  -1.639  54.307  1.00  0.00    -0.081 Cl
HETATM   20  C16 UNL     1      20.926   0.860  53.277  1.00  0.00     0.056 A 
ENDBRANCH  11  13
ENDBRANCH   8  11
BRANCH   1  21
HETATM   21  C2  UNL     1      26.438   1.916  51.910  1.00  0.00     0.107 C 
HETATM   22  C1  UNL     1      26.370   0.430  51.606  1.00  0.00     0.034 C 
BRANCH  21  23
HETATM   23  C3  UNL     1      26.585   2.010  53.376  1.00  0.00     0.133 C 
HETATM   24  C4  UNL     1      26.965   0.605  53.866  1.00  0.00     0.208 C 
HETATM   25  O1  UNL     1      27.985   0.786  54.845  1.00  0.00    -0.302 OA
HETATM   26  C5  UNL     1      28.578   2.038  54.560  1.00  0.00     0.361 C 
HETATM   27  O2  UNL     1      29.807   2.057  54.940  1.00  0.00    -0.239 OA
HETATM   28  N1  UNL     1      27.565   2.866  53.932  1.00  0.00    -0.328 N 
HETATM   29  H8  UNL     1      27.961   3.836  54.142  1.00  0.00     0.165 HD
ENDBRANCH  21  23
ENDBRANCH   1  21
BRANCH  10  30
HETATM   30  O3  UNL     1      27.115   3.596  49.563  1.00  0.00    -0.269 OA
BRANCH  30  31
HETATM   31  C19 UNL     1      27.439   4.715  48.767  1.00  0.00     0.405 C 
HETATM   32  O4  UNL     1      28.642   4.887  48.373  1.00  0.00    -0.276 OA
ENDBRANCH  30  31
ENDBRANCH  10  30
TORSDOF 6
ENDMDL
MODEL 8
REMARK VINA RESULT:      -8.2      4.666      7.285
REMARK  6 active torsions:
REMARK  status: ('A' for Active; 'I' for Inactive)
REMARK    1  A    between atoms: C2_2  and  C3_3 
REMARK    2  A    between atoms: C2_2  and  N2_9 
REMARK    3  A    between atoms: C10_16  and  N5_17 
REMARK    4  A    between atoms: N5_17  and  C11_18 
REMARK    5  A    between atoms: C18_27  and  O3_28 
REMARK    6  A    between atoms: O3_28  and  C19_29 
ROOT
HETATM    1  N2  UNL     1      23.481   5.251  50.372  1.00  0.00    -0.351 N 
HETATM    2  C6  UNL     1      24.078   3.945  50.560  1.00  0.00     0.170 C 
HETATM    3  C7  UNL     1      23.276   3.024  51.406  1.00  0.00     0.035 A 
HETATM    4  C8  UNL     1      21.996   3.264  51.850  1.00  0.00     0.074 A 
HETATM    5  N3  UNL     1      21.305   2.357  52.585  1.00  0.00    -0.241 NA
HETATM    6  C9  UNL     1      21.909   1.204  52.875  1.00  0.00     0.235 A 
HETATM    7  N4  UNL     1      23.138   0.972  52.451  1.00  0.00    -0.224 NA
HETATM    8  C10 UNL     1      23.876   1.821  51.721  1.00  0.00     0.139 A 
HETATM    9  C17 UNL     1      21.445   4.569  51.515  1.00  0.00     0.088 C 
HETATM   10  C18 UNL     1      22.150   5.482  50.824  1.00  0.00     0.151 C 
ENDROOT
BRANCH   8  11
HETATM   11  N5  UNL     1      25.178   1.416  51.339  1.00  0.00    -0.340 N 
HETATM   12  H12 UNL     1      25.322   1.577  50.315  1.00  0.00     0.167 HD
BRANCH  11  13
HETATM   13  C11 UNL     1      26.256   0.859  52.066  1.00  0.00     0.035 A 
HETATM   14  C12 UNL     1      26.516  -0.482  52.230  1.00  0.00     0.032 A 
HETATM   15  C13 UNL     1      27.575  -1.004  52.941  1.00  0.00     0.046 A 
HETATM   16  C14 UNL     1      28.403  -0.094  53.512  1.00  0.00     0.138 A 
HETATM   17  F1  UNL     1      29.466  -0.512  54.227  1.00  0.00    -0.204 F 
HETATM   18  C15 UNL     1      28.217   1.263  53.398  1.00  0.00     0.074 A 
HETATM   19 CL1  UNL     1      29.317   2.375  54.154  1.00  0.00    -0.081 Cl
HETATM   20  C16 UNL     1      27.143   1.718  52.675  1.00  0.00     0.056 A 
ENDBRANCH  11  13
ENDBRANCH   8  11
BRANCH   1  21
HETATM   21  C2  UNL     1      24.176   6.330  49.771  1.00  0.00     0.107 C 
HETATM   22  C1  UNL     1      24.063   6.381  48.257  1.00  0.00     0.034 C 
BRANCH  21  23
HETATM   23  C3  UNL     1      25.610   6.527  50.064  1.00  0.00     0.133 C 
HETATM   24  C4  UNL     1      26.285   6.861  48.726  1.00  0.00     0.208 C 
HETATM   25  O1  UNL     1      27.202   7.918  48.995  1.00  0.00    -0.302 OA
HETATM   26  C5  UNL     1      26.728   8.556  50.164  1.00  0.00     0.361 C 
HETATM   27  O2  UNL     1      27.071   9.795  50.179  1.00  0.00    -0.239 OA
HETATM   28  N1  UNL     1      26.013   7.560  50.942  1.00  0.00    -0.328 N 
HETATM   29  H8  UNL     1      26.073   8.004  51.913  1.00  0.00     0.165 HD
ENDBRANCH  21  23
ENDBRANCH   1  21
BRANCH  10  30
HETATM   30  O3  UNL     1      21.360   6.625  50.651  1.00  0.00    -0.269 OA
BRANCH  30  31
HETATM   31  C19 UNL     1      20.296   6.605  49.725  1.00  0.00     0.405 C 
HETATM   32  O4  UNL     1      20.527   6.341  48.498  1.00  0.00    -0.276 OA
ENDBRANCH  30  31
ENDBRANCH  10  30
TORSDOF 6
ENDMDL
MODEL 9
REMARK VINA RESULT:      -7.8      5.870      8.932
REMARK  6 active torsions:
REMARK  status: ('A' for Active; 'I' for Inactive)
REMARK    1  A    between atoms: C2_2  and  C3_3 
REMARK    2  A    between atoms: C2_2  and  N2_9 
REMARK    3  A    between atoms: C10_16  and  N5_17 
REMARK    4  A    between atoms: N5_17  and  C11_18 
REMARK    5  A    between atoms: C18_27  and  O3_28 
REMARK    6  A    between atoms: O3_28  and  C19_29 
ROOT
HETATM    1  N2  UNL     1      28.143   6.222  48.175  1.00  0.00    -0.351 N 
HETATM    2  C6  UNL     1      27.648   5.004  48.783  1.00  0.00     0.170 C 
HETATM    3  C7  UNL     1      26.203   5.037  49.122  1.00  0.00     0.035 A 
HETATM    4  C8  UNL     1      25.323   6.030  48.757  1.00  0.00     0.074 A 
HETATM    5  N3  UNL     1      24.002   5.973  49.066  1.00  0.00    -0.241 NA
HETATM    6  C9  UNL     1      23.570   4.912  49.747  1.00  0.00     0.235 A 
HETATM    7  N4  UNL     1      24.413   3.959  50.100  1.00  0.00    -0.224 NA
HETATM    8  C10 UNL     1      25.725   3.950  49.827  1.00  0.00     0.139 A 
HETATM    9  C17 UNL     1      25.904   7.165  48.054  1.00  0.00     0.088 C 
HETATM   10  C18 UNL     1      27.221   7.236  47.790  1.00  0.00     0.151 C 
ENDROOT
BRANCH   8  11
HETATM   11  N5  UNL     1      26.492   2.846  50.270  1.00  0.00    -0.340 N 
HETATM   12  H12 UNL     1      27.105   2.496  49.498  1.00  0.00     0.167 HD
BRANCH  11  13
HETATM   13  C11 UNL     1      26.564   2.170  51.512  1.00  0.00     0.035 A 
HETATM   14  C12 UNL     1      27.551   2.319  52.459  1.00  0.00     0.032 A 
HETATM   15  C13 UNL     1      27.600   1.651  53.664  1.00  0.00     0.046 A 
HETATM   16  C14 UNL     1      26.581   0.788  53.898  1.00  0.00     0.138 A 
HETATM   17  F1  UNL     1      26.546   0.090  55.051  1.00  0.00    -0.204 F 
HETATM   18  C15 UNL     1      25.556   0.579  53.006  1.00  0.00     0.074 A 
HETATM   19 CL1  UNL     1      24.280  -0.543  53.370  1.00  0.00    -0.081 Cl
HETATM   20  C16 UNL     1      25.565   1.276  51.824  1.00  0.00     0.056 A 
ENDBRANCH  11  13
ENDBRANCH   8  11
BRANCH   1  21
HETATM   21  C2  UNL     1      29.524   6.464  47.964  1.00  0.00     0.107 C 
HETATM   22  C1  UNL     1      30.344   5.216  47.692  1.00  0.00     0.034 C 
BRANCH  21  23
HETATM   23  C3  UNL     1      30.293   7.226  48.969  1.00  0.00     0.133 C 
HETATM   24  C4  UNL     1      31.681   7.473  48.359  1.00  0.00     0.208 C 
HETATM   25  O1  UNL     1      32.020   8.821  48.672  1.00  0.00    -0.302 OA
HETATM   26  C5  UNL     1      30.793   9.489  48.893  1.00  0.00     0.361 C 
HETATM   27  O2  UNL     1      30.896  10.738  48.604  1.00  0.00    -0.239 OA
HETATM   28  N1  UNL     1      29.844   8.504  49.378  1.00  0.00    -0.328 N 
HETATM   29  H8  UNL     1      29.150   9.145  49.878  1.00  0.00     0.165 HD
ENDBRANCH  21  23
ENDBRANCH   1  21
BRANCH  10  30
HETATM   30  O3  UNL     1      27.477   8.429  47.103  1.00  0.00    -0.269 OA
BRANCH  30  31
HETATM   31  C19 UNL     1      26.889   9.632  47.548  1.00  0.00     0.405 C 
HETATM   32  O4  UNL     1      27.566  10.442  48.265  1.00  0.00    -0.276 OA
ENDBRANCH  30  31
ENDBRANCH  10  30
TORSDOF 6
ENDMDL
