MODEL 1
REMARK VINA RESULT:      -6.9      0.000      0.000
REMARK  7 active torsions:
REMARK  status: ('A' for Active; 'I' for Inactive)
REMARK    1  A    between atoms: C4_4  and  N1_5 
REMARK    2  A    between atoms: N2_8  and  C7_9 
REMARK    3  A    between atoms: C7_9  and  C8_10 
REMARK    4  A    between atoms: C9_11  and  C10_12 
REMARK    5  A    between atoms: C11_13  and  C12_14 
REMARK    6  A    between atoms: C12_14  and  N3_15 
REMARK    7  A    between atoms: N3_15  and  C13_16 
ROOT
HETATM    1  C8  UNL     1      24.147   0.720  53.103  1.00  0.00     0.003 C 
HETATM    2  C9  UNL     1      23.612  -0.257  53.832  1.00  0.00    -0.002 C 
ENDROOT
BRANCH   1   3
HETATM    3  C7  UNL     1      25.419   1.342  53.474  1.00  0.00     0.300 C 
BRANCH   3   4
HETATM    4  N2  UNL     1      26.570   0.692  52.934  1.00  0.00     0.096 N 
HETATM    5  C2  UNL     1      27.178  -0.298  53.765  1.00  0.00     0.221 C 
HETATM    6  C1  UNL     1      27.989  -1.216  52.842  1.00  0.00     0.043 C 
HETATM    7  C3  UNL     1      28.048   0.251  54.867  1.00  0.00     0.070 C 
HETATM    8  C4  UNL     1      29.072   1.231  54.344  1.00  0.00     0.221 C 
HETATM    9  C5  UNL     1      28.390   2.272  53.485  1.00  0.00     0.065 C 
HETATM   10  C6  UNL     1      27.511   1.671  52.437  1.00  0.00     0.275 C 
BRANCH   8  11
HETATM   11  N1  UNL     1      30.068   0.493  53.583  1.00  0.00     0.083 N 
HETATM   12  H8  UNL     1      30.471   1.158  52.887  1.00  0.00     0.313 HD
HETATM   13  H9  UNL     1      29.557  -0.274  53.092  1.00  0.00     0.313 HD
ENDBRANCH   8  11
ENDBRANCH   3   4
ENDBRANCH   1   3
BRANCH   2  14
HETATM   14  C10 UNL     1      22.358  -0.959  53.579  1.00  0.00    -0.003 C 
HETATM   15  C11 UNL     1      21.317  -1.034  54.392  1.00  0.00    -0.007 C 
BRANCH  15  16
HETATM   16  C12 UNL     1      20.123  -1.785  53.986  1.00  0.00     0.147 C 
BRANCH  16  17
HETATM   17  N3  UNL     1      19.028  -0.850  53.801  1.00  0.00    -0.387 N 
HETATM   18  H22 UNL     1      18.510  -0.282  54.508  1.00  0.00     0.160 HD
BRANCH  17  19
HETATM   19  C13 UNL     1      18.448  -0.541  52.520  1.00  0.00     0.024 A 
HETATM   20  C14 UNL     1      17.359  -0.776  51.773  1.00  0.00     0.006 A 
HETATM   21  C15 UNL     1      17.429  -0.096  50.469  1.00  0.00     0.056 A 
HETATM   22  C16 UNL     1      18.749   0.595  50.557  1.00  0.00    -0.021 A 
HETATM   23  C17 UNL     1      19.325   0.335  51.732  1.00  0.00     0.025 A 
ENDBRANCH  17  19
ENDBRANCH  16  17
ENDBRANCH  15  16
ENDBRANCH   2  14
TORSDOF 7
ENDMDL
MODEL 2
REMARK VINA RESULT:      -6.8      5.390      9.802
REMARK  7 active torsions:
REMARK  status: ('A' for Active; 'I' for Inactive)
REMARK    1  A    between atoms: C4_4  and  N1_5 
REMARK    2  A    between atoms: N2_8  and  C7_9 
REMARK    3  A    between atoms: C7_9  and  C8_10 
REMARK    4  A    between atoms: C9_11  and  C10_12 
REMARK    5  A    between atoms: C11_13  and  C12_14 
REMARK    6  A    between atoms: C12_14  and  N3_15 
REMARK    7  A    between atoms: N3_15  and  C13_16 
ROOT
HETATM    1  C8  UNL     1      26.787   3.000  50.788  1.00  0.00     0.003 C 
HETATM    2  C9  UNL     1      26.486   3.416  49.559  1.00  0.00    -0.002 C 
ENDROOT
BRANCH   1   3
HETATM    3  C7  UNL     1      26.435   1.655  51.247  1.00  0.00     0.300 C 
BRANCH   3   4
HETATM    4  N2  UNL     1      26.743   1.404  52.619  1.00  0.00     0.096 N 
HETATM    5  C2  UNL     1      27.366   0.150  52.902  1.00  0.00     0.221 C 
HETATM    6  C1  UNL     1      28.084   0.305  54.248  1.00  0.00     0.043 C 
HETATM    7  C3  UNL     1      26.428  -1.029  52.932  1.00  0.00     0.070 C 
HETATM    8  C4  UNL     1      25.246  -0.788  53.842  1.00  0.00     0.221 C 
HETATM    9  C5  UNL     1      24.601   0.538  53.501  1.00  0.00     0.065 C 
HETATM   10  C6  UNL     1      25.585   1.660  53.446  1.00  0.00     0.275 C 
BRANCH   8  11
HETATM   11  N1  UNL     1      25.714  -0.805  55.219  1.00  0.00     0.083 N 
HETATM   12  H8  UNL     1      25.713  -1.802  55.526  1.00  0.00     0.313 HD
HETATM   13  H9  UNL     1      25.020  -0.257  55.774  1.00  0.00     0.313 HD
ENDBRANCH   8  11
ENDBRANCH   3   4
ENDBRANCH   1   3
BRANCH   2  14
HETATM   14  C10 UNL     1      26.776   4.721  48.977  1.00  0.00    -0.003 C 
HETATM   15  C11 UNL     1      27.961   5.170  48.594  1.00  0.00    -0.007 C 
BRANCH  15  16
HETATM   16  C12 UNL     1      28.084   6.516  48.023  1.00  0.00     0.147 C 
BRANCH  16  17
HETATM   17  N3  UNL     1      28.695   7.386  49.013  1.00  0.00    -0.387 N 
HETATM   18  H22 UNL     1      28.472   7.501  50.027  1.00  0.00     0.160 HD
BRANCH  17  19
HETATM   19  C13 UNL     1      29.778   8.289  48.725  1.00  0.00     0.024 A 
HETATM   20  C14 UNL     1      30.926   8.372  48.037  1.00  0.00     0.006 A 
HETATM   21  C15 UNL     1      31.573   9.684  48.202  1.00  0.00     0.056 A 
HETATM   22  C16 UNL     1      30.616  10.384  49.109  1.00  0.00    -0.021 A 
HETATM   23  C17 UNL     1      29.593   9.580  49.403  1.00  0.00     0.025 A 
ENDBRANCH  17  19
ENDBRANCH  16  17
ENDBRANCH  15  16
ENDBRANCH   2  14
TORSDOF 7
ENDMDL
MODEL 3
REMARK VINA RESULT:      -6.7      1.364      2.039
REMARK  7 active torsions:
REMARK  status: ('A' for Active; 'I' for Inactive)
REMARK    1  A    between atoms: C4_4  and  N1_5 
REMARK    2  A    between atoms: N2_8  and  C7_9 
REMARK    3  A    between atoms: C7_9  and  C8_10 
REMARK    4  A    between atoms: C9_11  and  C10_12 
REMARK    5  A    between atoms: C11_13  and  C12_14 
REMARK    6  A    between atoms: C12_14  and  N3_15 
REMARK    7  A    between atoms: N3_15  and  C13_16 
ROOT
HETATM    1  C8  UNL     1      24.286   2.298  53.123  1.00  0.00     0.003 C 
HETATM    2  C9  UNL     1      23.535   1.242  52.815  1.00  0.00    -0.002 C 
ENDROOT
BRANCH   1   3
HETATM    3  C7  UNL     1      25.572   2.147  53.805  1.00  0.00     0.300 C 
BRANCH   3   4
HETATM    4  N2  UNL     1      26.506   1.311  53.120  1.00  0.00     0.096 N 
HETATM    5  C2  UNL     1      26.941   0.149  53.827  1.00  0.00     0.221 C 
HETATM    6  C1  UNL     1      27.455  -0.843  52.777  1.00  0.00     0.043 C 
HETATM    7  C3  UNL     1      27.993   0.405  54.876  1.00  0.00     0.070 C 
HETATM    8  C4  UNL     1      29.165   1.181  54.323  1.00  0.00     0.221 C 
HETATM    9  C5  UNL     1      28.667   2.412  53.599  1.00  0.00     0.065 C 
HETATM   10  C6  UNL     1      27.599   2.102  52.602  1.00  0.00     0.275 C 
BRANCH   8  11
HETATM   11  N1  UNL     1      29.911   0.311  53.428  1.00  0.00     0.083 N 
HETATM   12  H8  UNL     1      30.525   0.926  52.850  1.00  0.00     0.313 HD
HETATM   13  H9  UNL     1      29.206  -0.165  52.822  1.00  0.00     0.313 HD
ENDBRANCH   8  11
ENDBRANCH   3   4
ENDBRANCH   1   3
BRANCH   2  14
HETATM   14  C10 UNL     1      22.241   1.249  52.141  1.00  0.00    -0.003 C 
HETATM   15  C11 UNL     1      21.977   0.775  50.933  1.00  0.00    -0.007 C 
BRANCH  15  16
HETATM   16  C12 UNL     1      20.614   0.859  50.395  1.00  0.00     0.147 C 
BRANCH  16  17
HETATM   17  N3  UNL     1      19.693   1.072  51.497  1.00  0.00    -0.387 N 
HETATM   18  H22 UNL     1      19.601   1.890  52.141  1.00  0.00     0.160 HD
BRANCH  17  19
HETATM   19  C13 UNL     1      18.694   0.118  51.901  1.00  0.00     0.024 A 
HETATM   20  C14 UNL     1      17.477  -0.338  51.570  1.00  0.00     0.006 A 
HETATM   21  C15 UNL     1      17.020  -1.400  52.481  1.00  0.00     0.056 A 
HETATM   22  C16 UNL     1      18.172  -1.510  53.422  1.00  0.00    -0.021 A 
HETATM   23  C17 UNL     1      19.125  -0.640  53.085  1.00  0.00     0.025 A 
ENDBRANCH  17  19
ENDBRANCH  16  17
ENDBRANCH  15  16
ENDBRANCH   2  14
TORSDOF 7
ENDMDL
MODEL 4
REMARK VINA RESULT:      -6.7      4.841      9.719
REMARK  7 active torsions:
REMARK  status: ('A' for Active; 'I' for Inactive)
REMARK    1  A    between atoms: C4_4  and  N1_5 
REMARK    2  A    between atoms: N2_8  and  C7_9 
REMARK    3  A    between atoms: C7_9  and  C8_10 
REMARK    4  A    between atoms: C9_11  and  C10_12 
REMARK    5  A    between atoms: C11_13  and  C12_14 
REMARK    6  A    between atoms: C12_14  and  N3_15 
REMARK    7  A    between atoms: N3_15  and  C13_16 
ROOT
HETATM    1  C8  UNL     1      26.773   2.989  50.790  1.00  0.00     0.003 C 
HETATM    2  C9  UNL     1      26.432   3.483  49.602  1.00  0.00    -0.002 C 
ENDROOT
BRANCH   1   3
HETATM    3  C7  UNL     1      26.278   1.690  51.249  1.00  0.00     0.300 C 
BRANCH   3   4
HETATM    4  N2  UNL     1      26.538   1.416  52.626  1.00  0.00     0.096 N 
HETATM    5  C2  UNL     1      27.192   0.177  52.906  1.00  0.00     0.221 C 
HETATM    6  C1  UNL     1      27.849   0.323  54.283  1.00  0.00     0.043 C 
HETATM    7  C3  UNL     1      26.295  -1.033  52.869  1.00  0.00     0.070 C 
HETATM    8  C4  UNL     1      25.069  -0.854  53.735  1.00  0.00     0.221 C 
HETATM    9  C5  UNL     1      24.393   0.457  53.398  1.00  0.00     0.065 C 
HETATM   10  C6  UNL     1      25.339   1.613  53.410  1.00  0.00     0.275 C 
BRANCH   8  11
HETATM   11  N1  UNL     1      25.481  -0.890  55.129  1.00  0.00     0.083 N 
HETATM   12  H8  UNL     1      24.849  -1.563  55.614  1.00  0.00     0.313 HD
HETATM   13  H9  UNL     1      25.336   0.074  55.505  1.00  0.00     0.313 HD
ENDBRANCH   8  11
ENDBRANCH   3   4
ENDBRANCH   1   3
BRANCH   2  14
HETATM   14  C10 UNL     1      26.850   4.756  49.025  1.00  0.00    -0.003 C 
HETATM   15  C11 UNL     1      28.059   5.063  48.583  1.00  0.00    -0.007 C 
BRANCH  15  16
HETATM   16  C12 UNL     1      28.319   6.397  48.027  1.00  0.00     0.147 C 
BRANCH  16  17
HETATM   17  N3  UNL     1      29.395   7.012  48.782  1.00  0.00    -0.387 N 
HETATM   18  H22 UNL     1      29.369   7.823  49.440  1.00  0.00     0.160 HD
BRANCH  17  19
HETATM   19  C13 UNL     1      30.763   6.567  48.734  1.00  0.00     0.024 A 
HETATM   20  C14 UNL     1      31.781   6.201  49.527  1.00  0.00     0.006 A 
HETATM   21  C15 UNL     1      32.980   5.840  48.752  1.00  0.00     0.056 A 
HETATM   22  C16 UNL     1      32.511   6.048  47.351  1.00  0.00    -0.021 A 
HETATM   23  C17 UNL     1      31.243   6.464  47.348  1.00  0.00     0.025 A 
ENDBRANCH  17  19
ENDBRANCH  16  17
ENDBRANCH  15  16
ENDBRANCH   2  14
TORSDOF 7
ENDMDL
MODEL 5
REMARK VINA RESULT:      -6.5      6.383      9.055
REMARK  7 active torsions:
REMARK  status: ('A' for Active; 'I' for Inactive)
REMARK    1  A    between atoms: C4_4  and  N1_5 
REMARK    2  A    between atoms: N2_8  and  C7_9 
REMARK    3  A    between atoms: C7_9  and  C8_10 
REMARK    4  A    between atoms: C9_11  and  C10_12 
REMARK    5  A    between atoms: C11_13  and  C12_14 
REMARK    6  A    between atoms: C12_14  and  N3_15 
REMARK    7  A    between atoms: N3_15  and  C13_16 
ROOT
HETATM    1  C8  UNL     1      29.114   5.702  48.168  1.00  0.00     0.003 C 
HETATM    2  C9  UNL     1      27.842   6.079  48.287  1.00  0.00    -0.002 C 
ENDROOT
BRANCH   1   3
HETATM    3  C7  UNL     1      30.111   6.566  47.532  1.00  0.00     0.300 C 
BRANCH   3   4
HETATM    4  N2  UNL     1      31.420   6.463  48.092  1.00  0.00     0.096 N 
HETATM    5  C2  UNL     1      32.390   7.384  47.592  1.00  0.00     0.221 C 
HETATM    6  C1  UNL     1      33.494   7.485  48.651  1.00  0.00     0.043 C 
HETATM    7  C3  UNL     1      32.973   7.020  46.250  1.00  0.00     0.070 C 
HETATM    8  C4  UNL     1      33.499   5.604  46.227  1.00  0.00     0.221 C 
HETATM    9  C5  UNL     1      32.440   4.657  46.746  1.00  0.00     0.065 C 
HETATM   10  C6  UNL     1      31.871   5.089  48.058  1.00  0.00     0.275 C 
BRANCH   8  11
HETATM   11  N1  UNL     1      34.700   5.547  47.045  1.00  0.00     0.083 N 
HETATM   12  H8  UNL     1      35.507   5.440  46.392  1.00  0.00     0.313 HD
HETATM   13  H9  UNL     1      34.610   4.698  47.646  1.00  0.00     0.313 HD
ENDBRANCH   8  11
ENDBRANCH   3   4
ENDBRANCH   1   3
BRANCH   2  14
HETATM   14  C10 UNL     1      26.753   5.322  48.893  1.00  0.00    -0.003 C 
HETATM   15  C11 UNL     1      26.793   4.059  49.288  1.00  0.00    -0.007 C 
BRANCH  15  16
HETATM   16  C12 UNL     1      25.604   3.439  49.884  1.00  0.00     0.147 C 
BRANCH  16  17
HETATM   17  N3  UNL     1      25.856   3.214  51.296  1.00  0.00    -0.387 N 
HETATM   18  H22 UNL     1      26.225   3.870  52.020  1.00  0.00     0.160 HD
BRANCH  17  19
HETATM   19  C13 UNL     1      25.619   1.959  51.960  1.00  0.00     0.024 A 
HETATM   20  C14 UNL     1      24.725   1.331  52.738  1.00  0.00     0.006 A 
HETATM   21  C15 UNL     1      25.151  -0.039  53.070  1.00  0.00     0.056 A 
HETATM   22  C16 UNL     1      26.458  -0.133  52.357  1.00  0.00    -0.021 A 
HETATM   23  C17 UNL     1      26.719   1.013  51.725  1.00  0.00     0.025 A 
ENDBRANCH  17  19
ENDBRANCH  16  17
ENDBRANCH  15  16
ENDBRANCH   2  14
TORSDOF 7
ENDMDL
MODEL 6
REMARK VINA RESULT:      -6.4      1.595      8.129
REMARK  7 active torsions:
REMARK  status: ('A' for Active; 'I' for Inactive)
REMARK    1  A    between atoms: C4_4  and  N1_5 
REMARK    2  A    between atoms: N2_8  and  C7_9 
REMARK    3  A    between atoms: C7_9  and  C8_10 
REMARK    4  A    between atoms: C9_11  and  C10_12 
REMARK    5  A    between atoms: C11_13  and  C12_14 
REMARK    6  A    between atoms: C12_14  and  N3_15 
REMARK    7  A    between atoms: N3_15  and  C13_16 
ROOT
HETATM    1  C8  UNL     1      23.817   1.482  52.079  1.00  0.00     0.003 C 
HETATM    2  C9  UNL     1      24.729   2.304  52.592  1.00  0.00    -0.002 C 
ENDROOT
BRANCH   1   3
HETATM    3  C7  UNL     1      22.399   1.844  52.036  1.00  0.00     0.300 C 
BRANCH   3   4
HETATM    4  N2  UNL     1      21.507   0.729  52.070  1.00  0.00     0.096 N 
HETATM    5  C2  UNL     1      20.349   0.878  52.893  1.00  0.00     0.221 C 
HETATM    6  C1  UNL     1      19.308  -0.124  52.380  1.00  0.00     0.043 C 
HETATM    7  C3  UNL     1      20.593   0.684  54.368  1.00  0.00     0.070 C 
HETATM    8  C4  UNL     1      21.306  -0.617  54.656  1.00  0.00     0.221 C 
HETATM    9  C5  UNL     1      22.535  -0.731  53.781  1.00  0.00     0.065 C 
HETATM   10  C6  UNL     1      22.239  -0.489  52.337  1.00  0.00     0.275 C 
BRANCH   8  11
HETATM   11  N1  UNL     1      20.382  -1.712  54.409  1.00  0.00     0.083 N 
HETATM   12  H8  UNL     1      20.575  -2.440  55.132  1.00  0.00     0.313 HD
HETATM   13  H9  UNL     1      20.608  -2.081  53.459  1.00  0.00     0.313 HD
ENDBRANCH   8  11
ENDBRANCH   3   4
ENDBRANCH   1   3
BRANCH   2  14
HETATM   14  C10 UNL     1      26.165   2.071  52.698  1.00  0.00    -0.003 C 
HETATM   15  C11 UNL     1      26.990   2.608  53.582  1.00  0.00    -0.007 C 
BRANCH  15  16
HETATM   16  C12 UNL     1      28.417   2.268  53.555  1.00  0.00     0.147 C 
BRANCH  16  17
HETATM   17  N3  UNL     1      28.637   1.120  54.415  1.00  0.00    -0.387 N 
HETATM   18  H22 UNL     1      28.647   1.060  55.458  1.00  0.00     0.160 HD
BRANCH  17  19
HETATM   19  C13 UNL     1      28.895  -0.210  53.926  1.00  0.00     0.024 A 
HETATM   20  C14 UNL     1      29.890  -1.088  53.737  1.00  0.00     0.006 A 
HETATM   21  C15 UNL     1      29.407  -2.350  53.153  1.00  0.00     0.056 A 
HETATM   22  C16 UNL     1      27.945  -2.085  53.022  1.00  0.00    -0.021 A 
HETATM   23  C17 UNL     1      27.660  -0.859  53.465  1.00  0.00     0.025 A 
ENDBRANCH  17  19
ENDBRANCH  16  17
ENDBRANCH  15  16
ENDBRANCH   2  14
TORSDOF 7
ENDMDL
MODEL 7
REMARK VINA RESULT:      -6.3      1.995      2.956
REMARK  7 active torsions:
REMARK  status: ('A' for Active; 'I' for Inactive)
REMARK    1  A    between atoms: C4_4  and  N1_5 
REMARK    2  A    between atoms: N2_8  and  C7_9 
REMARK    3  A    between atoms: C7_9  and  C8_10 
REMARK    4  A    between atoms: C9_11  and  C10_12 
REMARK    5  A    between atoms: C11_13  and  C12_14 
REMARK    6  A    between atoms: C12_14  and  N3_15 
REMARK    7  A    between atoms: N3_15  and  C13_16 
ROOT
HETATM    1  C8  UNL     1      22.991   0.574  51.907  1.00  0.00     0.003 C 
HETATM    2  C9  UNL     1      21.738   0.937  52.174  1.00  0.00    -0.002 C 
ENDROOT
BRANCH   1   3
HETATM    3  C7  UNL     1      24.133   1.327  52.430  1.00  0.00     0.300 C 
BRANCH   3   4
HETATM    4  N2  UNL     1      25.373   0.622  52.382  1.00  0.00     0.096 N 
HETATM    5  C2  UNL     1      25.415  -0.622  53.083  1.00  0.00     0.221 C 
HETATM    6  C1  UNL     1      26.562  -1.437  52.475  1.00  0.00     0.043 C 
HETATM    7  C3  UNL     1      25.582  -0.499  54.576  1.00  0.00     0.070 C 
HETATM    8  C4  UNL     1      26.759   0.377  54.943  1.00  0.00     0.221 C 
HETATM    9  C5  UNL     1      26.671   1.689  54.196  1.00  0.00     0.065 C 
HETATM   10  C6  UNL     1      26.465   1.505  52.728  1.00  0.00     0.275 C 
BRANCH   8  11
HETATM   11  N1  UNL     1      27.982  -0.336  54.611  1.00  0.00     0.083 N 
HETATM   12  H8  UNL     1      28.478   0.234  53.891  1.00  0.00     0.313 HD
HETATM   13  H9  UNL     1      27.690  -1.253  54.205  1.00  0.00     0.313 HD
ENDBRANCH   8  11
ENDBRANCH   3   4
ENDBRANCH   1   3
BRANCH   2  14
HETATM   14  C10 UNL     1      20.516   0.282  51.720  1.00  0.00    -0.003 C 
HETATM   15  C11 UNL     1      19.277   0.713  51.896  1.00  0.00    -0.007 C 
BRANCH  15  16
HETATM   16  C12 UNL     1      18.149  -0.068  51.375  1.00  0.00     0.147 C 
BRANCH  16  17
HETATM   17  N3  UNL     1      17.308  -0.468  52.489  1.00  0.00    -0.387 N 
HETATM   18  H22 UNL     1      16.706   0.115  53.113  1.00  0.00     0.160 HD
BRANCH  17  19
HETATM   19  C13 UNL     1      17.167  -1.829  52.936  1.00  0.00     0.024 A 
HETATM   20  C14 UNL     1      17.789  -2.769  53.662  1.00  0.00     0.006 A 
HETATM   21  C15 UNL     1      17.024  -4.026  53.707  1.00  0.00     0.056 A 
HETATM   22  C16 UNL     1      15.827  -3.683  52.884  1.00  0.00    -0.021 A 
HETATM   23  C17 UNL     1      15.916  -2.426  52.446  1.00  0.00     0.025 A 
ENDBRANCH  17  19
ENDBRANCH  16  17
ENDBRANCH  15  16
ENDBRANCH   2  14
TORSDOF 7
ENDMDL
MODEL 8
REMARK VINA RESULT:      -6.3      1.944      2.977
REMARK  7 active torsions:
REMARK  status: ('A' for Active; 'I' for Inactive)
REMARK    1  A    between atoms: C4_4  and  N1_5 
REMARK    2  A    between atoms: N2_8  and  C7_9 
REMARK    3  A    between atoms: C7_9  and  C8_10 
REMARK    4  A    between atoms: C9_11  and  C10_12 
REMARK    5  A    between atoms: C11_13  and  C12_14 
REMARK    6  A    between atoms: C12_14  and  N3_15 
REMARK    7  A    between atoms: N3_15  and  C13_16 
ROOT
HETATM    1  C8  UNL     1      23.784  -0.833  52.975  1.00  0.00     0.003 C 
HETATM    2  C9  UNL     1      22.622  -0.867  53.624  1.00  0.00    -0.002 C 
ENDROOT
BRANCH   1   3
HETATM    3  C7  UNL     1      25.060  -0.799  53.691  1.00  0.00     0.300 C 
BRANCH   3   4
HETATM    4  N2  UNL     1      25.471   0.507  54.096  1.00  0.00     0.096 N 
HETATM    5  C2  UNL     1      25.658   1.458  53.047  1.00  0.00     0.221 C 
HETATM    6  C1  UNL     1      25.547   2.849  53.683  1.00  0.00     0.043 C 
HETATM    7  C3  UNL     1      26.956   1.320  52.292  1.00  0.00     0.070 C 
HETATM    8  C4  UNL     1      28.148   1.287  53.221  1.00  0.00     0.221 C 
HETATM    9  C5  UNL     1      27.923   0.258  54.306  1.00  0.00     0.065 C 
HETATM   10  C6  UNL     1      26.605   0.420  54.990  1.00  0.00     0.275 C 
BRANCH   8  11
HETATM   11  N1  UNL     1      28.327   2.616  53.786  1.00  0.00     0.083 N 
HETATM   12  H8  UNL     1      27.679   2.687  54.600  1.00  0.00     0.313 HD
HETATM   13  H9  UNL     1      28.046   3.293  53.043  1.00  0.00     0.313 HD
ENDBRANCH   8  11
ENDBRANCH   3   4
ENDBRANCH   1   3
BRANCH   2  14
HETATM   14  C10 UNL     1      21.286  -0.902  53.039  1.00  0.00    -0.003 C 
HETATM   15  C11 UNL     1      20.160  -0.516  53.617  1.00  0.00    -0.007 C 
BRANCH  15  16
HETATM   16  C12 UNL     1      18.890  -0.616  52.888  1.00  0.00     0.147 C 
BRANCH  16  17
HETATM   17  N3  UNL     1      17.907  -1.242  53.753  1.00  0.00    -0.387 N 
HETATM   18  H22 UNL     1      17.533  -0.925  54.676  1.00  0.00     0.160 HD
BRANCH  17  19
HETATM   19  C13 UNL     1      17.250  -2.487  53.450  1.00  0.00     0.024 A 
HETATM   20  C14 UNL     1      17.347  -3.808  53.659  1.00  0.00     0.006 A 
HETATM   21  C15 UNL     1      16.255  -4.550  53.009  1.00  0.00     0.056 A 
HETATM   22  C16 UNL     1      15.476  -3.449  52.370  1.00  0.00    -0.021 A 
HETATM   23  C17 UNL     1      16.052  -2.272  52.626  1.00  0.00     0.025 A 
ENDBRANCH  17  19
ENDBRANCH  16  17
ENDBRANCH  15  16
ENDBRANCH   2  14
TORSDOF 7
ENDMDL
MODEL 9
REMARK VINA RESULT:      -6.2      2.591      3.278
REMARK  7 active torsions:
REMARK  status: ('A' for Active; 'I' for Inactive)
REMARK    1  A    between atoms: C4_4  and  N1_5 
REMARK    2  A    between atoms: N2_8  and  C7_9 
REMARK    3  A    between atoms: C7_9  and  C8_10 
REMARK    4  A    between atoms: C9_11  and  C10_12 
REMARK    5  A    between atoms: C11_13  and  C12_14 
REMARK    6  A    between atoms: C12_14  and  N3_15 
REMARK    7  A    between atoms: N3_15  and  C13_16 
ROOT
HETATM    1  C8  UNL     1      23.936   2.424  52.919  1.00  0.00     0.003 C 
HETATM    2  C9  UNL     1      23.160   1.342  52.898  1.00  0.00    -0.002 C 
ENDROOT
BRANCH   1   3
HETATM    3  C7  UNL     1      25.290   2.383  53.474  1.00  0.00     0.300 C 
BRANCH   3   4
HETATM    4  N2  UNL     1      26.150   1.426  52.856  1.00  0.00     0.096 N 
HETATM    5  C2  UNL     1      26.350   0.208  53.574  1.00  0.00     0.221 C 
HETATM    6  C1  UNL     1      26.806  -0.840  52.553  1.00  0.00     0.043 C 
HETATM    7  C3  UNL     1      27.331   0.301  54.715  1.00  0.00     0.070 C 
HETATM    8  C4  UNL     1      28.647   0.904  54.280  1.00  0.00     0.221 C 
HETATM    9  C5  UNL     1      28.397   2.199  53.540  1.00  0.00     0.065 C 
HETATM   10  C6  UNL     1      27.387   2.054  52.449  1.00  0.00     0.275 C 
BRANCH   8  11
HETATM   11  N1  UNL     1      29.337  -0.059  53.435  1.00  0.00     0.083 N 
HETATM   12  H8  UNL     1      30.288  -0.191  53.841  1.00  0.00     0.313 HD
HETATM   13  H9  UNL     1      29.408   0.376  52.488  1.00  0.00     0.313 HD
ENDBRANCH   8  11
ENDBRANCH   3   4
ENDBRANCH   1   3
BRANCH   2  14
HETATM   14  C10 UNL     1      21.801   1.243  52.378  1.00  0.00    -0.003 C 
HETATM   15  C11 UNL     1      21.396   0.493  51.365  1.00  0.00    -0.007 C 
BRANCH  15  16
HETATM   16  C12 UNL     1      19.984   0.507  50.963  1.00  0.00     0.147 C 
BRANCH  16  17
HETATM   17  N3  UNL     1      19.895   0.990  49.597  1.00  0.00    -0.387 N 
HETATM   18  H22 UNL     1      19.127   0.879  48.899  1.00  0.00     0.160 HD
BRANCH  17  19
HETATM   19  C13 UNL     1      20.931   1.753  48.950  1.00  0.00     0.024 A 
HETATM   20  C14 UNL     1      22.011   1.611  48.169  1.00  0.00     0.006 A 
HETATM   21  C15 UNL     1      22.645   2.905  47.865  1.00  0.00     0.056 A 
HETATM   22  C16 UNL     1      21.758   3.857  48.596  1.00  0.00    -0.021 A 
HETATM   23  C17 UNL     1      20.781   3.191  49.214  1.00  0.00     0.025 A 
ENDBRANCH  17  19
ENDBRANCH  16  17
ENDBRANCH  15  16
ENDBRANCH   2  14
TORSDOF 7
ENDMDL
