MODEL 1
REMARK VINA RESULT:      -9.4      0.000      0.000
REMARK  3 active torsions:
REMARK  status: ('A' for Active; 'I' for Inactive)
REMARK    1  A    between atoms: O1_2  and  C2_3 
REMARK    2  A    between atoms: C13_17  and  N3_18 
REMARK       I    between atoms: N3_18  and  C14_19 
REMARK       I    between atoms: C14_19  and  N4_21 
REMARK    3  A    between atoms: N4_21  and  C15_22 
ROOT
HETATM    1  C2  UNL     1      20.015  -0.882  53.727  1.00  0.00     0.103 A 
HETATM    2  C3  UNL     1      20.945  -1.459  54.555  1.00  0.00     0.072 A 
HETATM    3  C4  UNL     1      22.263  -1.076  54.501  1.00  0.00     0.075 A 
HETATM    4  N1  UNL     1      23.088  -1.734  55.378  1.00  0.00    -0.241 NA
HETATM    5  C5  UNL     1      24.391  -1.314  55.286  1.00  0.00     0.236 A 
HETATM    6  N2  UNL     1      24.878  -0.371  54.459  1.00  0.00    -0.217 NA
HETATM    7  C6  UNL     1      24.105   0.289  53.595  1.00  0.00     0.178 A 
HETATM    8  C7  UNL     1      22.799  -0.118  53.661  1.00  0.00     0.048 A 
HETATM    9  C8  UNL     1      21.686   0.279  52.964  1.00  0.00     0.057 A 
HETATM   10  C9  UNL     1      20.284   0.086  52.803  1.00  0.00     0.103 A 
HETATM   11  O2  UNL     1      20.145   1.032  51.798  1.00  0.00    -0.345 OA
HETATM   12  C10 UNL     1      20.602   2.312  52.178  1.00  0.00     0.203 C 
HETATM   13  C11 UNL     1      20.803   3.354  51.247  1.00  0.00    -0.002 C 
HETATM   14  C12 UNL     1      22.140   3.685  51.311  1.00  0.00    -0.002 C 
HETATM   15  C13 UNL     1      23.509   3.571  51.807  1.00  0.00     0.133 C 
HETATM   16  C21 UNL     1      23.818   2.635  52.936  1.00  0.00     0.206 C 
HETATM   17  O4  UNL     1      23.946   1.258  52.592  1.00  0.00    -0.331 OA
ENDROOT
BRANCH  15  18
HETATM   18  N3  UNL     1      24.524   3.490  50.759  1.00  0.00    -0.333 N 
HETATM   19  C14 UNL     1      25.244   4.617  50.254  1.00  0.00     0.321 C 
HETATM   20  O3  UNL     1      24.995   5.740  50.735  1.00  0.00    -0.247 OA
HETATM   21  N4  UNL     1      26.190   4.330  49.235  1.00  0.00    -0.309 N 
HETATM   22  H13 UNL     1      26.343   3.357  48.882  1.00  0.00     0.170 HD
HETATM   23  H12 UNL     1      24.695   2.519  50.389  1.00  0.00     0.165 HD
BRANCH  21  24
HETATM   24  C15 UNL     1      26.975   5.369  48.648  1.00  0.00     0.036 A 
HETATM   25  C16 UNL     1      28.347   5.128  48.526  1.00  0.00     0.029 A 
HETATM   26  C17 UNL     1      29.189   6.095  47.960  1.00  0.00     0.002 A 
HETATM   27  C18 UNL     1      28.633   7.280  47.532  1.00  0.00     0.000 A 
HETATM   28  C19 UNL     1      27.301   7.530  47.645  1.00  0.00     0.002 A 
HETATM   29  C20 UNL     1      26.454   6.578  48.204  1.00  0.00     0.029 A 
ENDBRANCH  21  24
ENDBRANCH  15  18
BRANCH   1  30
HETATM   30  O1  UNL     1      18.662  -0.938  53.443  1.00  0.00    -0.353 OA
HETATM   31  C1  UNL     1      17.884  -2.083  53.471  1.00  0.00     0.210 C 
ENDBRANCH   1  30
TORSDOF 3
ENDMDL
MODEL 2
REMARK VINA RESULT:      -9.1      2.711      4.273
REMARK  3 active torsions:
REMARK  status: ('A' for Active; 'I' for Inactive)
REMARK    1  A    between atoms: O1_2  and  C2_3 
REMARK    2  A    between atoms: C13_17  and  N3_18 
REMARK       I    between atoms: N3_18  and  C14_19 
REMARK       I    between atoms: C14_19  and  N4_21 
REMARK    3  A    between atoms: N4_21  and  C15_22 
ROOT
HETATM    1  C2  UNL     1      22.170   0.274  53.287  1.00  0.00     0.103 A 
HETATM    2  C3  UNL     1      20.931   0.802  53.027  1.00  0.00     0.072 A 
HETATM    3  C4  UNL     1      20.806   2.050  52.467  1.00  0.00     0.075 A 
HETATM    4  N1  UNL     1      19.513   2.461  52.264  1.00  0.00    -0.241 NA
HETATM    5  C5  UNL     1      19.443   3.711  51.702  1.00  0.00     0.236 A 
HETATM    6  N2  UNL     1      20.478   4.500  51.359  1.00  0.00    -0.217 NA
HETATM    7  C6  UNL     1      21.747   4.133  51.542  1.00  0.00     0.178 A 
HETATM    8  C7  UNL     1      21.844   2.890  52.110  1.00  0.00     0.048 A 
HETATM    9  C8  UNL     1      22.934   2.138  52.471  1.00  0.00     0.057 A 
HETATM   10  C9  UNL     1      23.357   0.899  53.032  1.00  0.00     0.103 A 
HETATM   11  O2  UNL     1      24.713   1.178  52.935  1.00  0.00    -0.345 OA
HETATM   12  C10 UNL     1      25.119   1.487  51.620  1.00  0.00     0.203 C 
HETATM   13  C11 UNL     1      26.378   2.054  51.328  1.00  0.00    -0.002 C 
HETATM   14  C12 UNL     1      26.131   3.274  50.733  1.00  0.00    -0.002 C 
HETATM   15  C13 UNL     1      25.286   4.346  50.216  1.00  0.00     0.133 C 
HETATM   16  C21 UNL     1      23.797   4.178  50.193  1.00  0.00     0.206 C 
HETATM   17  O4  UNL     1      23.122   4.392  51.430  1.00  0.00    -0.331 OA
ENDROOT
BRANCH  15  18
HETATM   18  N3  UNL     1      25.660   5.682  50.675  1.00  0.00    -0.333 N 
HETATM   19  C14 UNL     1      26.097   6.732  49.809  1.00  0.00     0.321 C 
HETATM   20  O3  UNL     1      26.163   6.499  48.587  1.00  0.00    -0.247 OA
HETATM   21  N4  UNL     1      26.416   7.959  50.450  1.00  0.00    -0.309 N 
HETATM   22  H13 UNL     1      26.334   8.078  51.487  1.00  0.00     0.170 HD
HETATM   23  H12 UNL     1      25.586   5.824  51.717  1.00  0.00     0.165 HD
BRANCH  21  24
HETATM   24  C15 UNL     1      26.863   9.086  49.696  1.00  0.00     0.036 A 
HETATM   25  C16 UNL     1      28.244   9.306  49.654  1.00  0.00     0.029 A 
HETATM   26  C17 UNL     1      28.767  10.390  48.936  1.00  0.00     0.002 A 
HETATM   27  C18 UNL     1      27.891  11.226  48.279  1.00  0.00     0.000 A 
HETATM   28  C19 UNL     1      26.547  11.026  48.311  1.00  0.00     0.002 A 
HETATM   29  C20 UNL     1      26.015   9.954  49.020  1.00  0.00     0.029 A 
ENDBRANCH  21  24
ENDBRANCH  15  18
BRANCH   1  30
HETATM   30  O1  UNL     1      22.753  -0.870  53.805  1.00  0.00    -0.353 OA
HETATM   31  C1  UNL     1      22.669  -1.285  55.123  1.00  0.00     0.210 C 
ENDBRANCH   1  30
TORSDOF 3
ENDMDL
MODEL 3
REMARK VINA RESULT:      -8.9      3.709      5.884
REMARK  3 active torsions:
REMARK  status: ('A' for Active; 'I' for Inactive)
REMARK    1  A    between atoms: O1_2  and  C2_3 
REMARK    2  A    between atoms: C13_17  and  N3_18 
REMARK       I    between atoms: N3_18  and  C14_19 
REMARK       I    between atoms: C14_19  and  N4_21 
REMARK    3  A    between atoms: N4_21  and  C15_22 
ROOT
HETATM    1  C2  UNL     1      26.783  -0.042  52.976  1.00  0.00     0.103 A 
HETATM    2  C3  UNL     1      25.661  -0.648  53.480  1.00  0.00     0.072 A 
HETATM    3  C4  UNL     1      24.432  -0.043  53.375  1.00  0.00     0.075 A 
HETATM    4  N1  UNL     1      23.394  -0.752  53.924  1.00  0.00    -0.241 NA
HETATM    5  C5  UNL     1      22.190  -0.107  53.792  1.00  0.00     0.236 A 
HETATM    6  N2  UNL     1      21.975   1.084  53.202  1.00  0.00    -0.217 NA
HETATM    7  C6  UNL     1      22.959   1.800  52.658  1.00  0.00     0.178 A 
HETATM    8  C7  UNL     1      24.174   1.180  52.785  1.00  0.00     0.048 A 
HETATM    9  C8  UNL     1      25.432   1.554  52.382  1.00  0.00     0.057 A 
HETATM   10  C9  UNL     1      26.804   1.170  52.348  1.00  0.00     0.103 A 
HETATM   11  O2  UNL     1      27.232   2.312  51.686  1.00  0.00    -0.345 OA
HETATM   12  C10 UNL     1      26.568   2.520  50.459  1.00  0.00     0.203 C 
HETATM   13  C11 UNL     1      26.647   3.738  49.750  1.00  0.00    -0.002 C 
HETATM   14  C12 UNL     1      25.360   4.229  49.667  1.00  0.00    -0.002 C 
HETATM   15  C13 UNL     1      23.919   4.208  49.900  1.00  0.00     0.133 C 
HETATM   16  C21 UNL     1      23.286   3.016  50.552  1.00  0.00     0.206 C 
HETATM   17  O4  UNL     1      23.404   2.939  51.970  1.00  0.00    -0.331 OA
ENDROOT
BRANCH  15  18
HETATM   18  N3  UNL     1      23.377   5.455  50.437  1.00  0.00    -0.333 N 
HETATM   19  C14 UNL     1      22.614   6.390  49.672  1.00  0.00     0.321 C 
HETATM   20  O3  UNL     1      22.393   6.130  48.473  1.00  0.00    -0.247 OA
HETATM   21  N4  UNL     1      22.178   7.543  50.377  1.00  0.00    -0.309 N 
HETATM   22  H13 UNL     1      22.404   7.690  51.388  1.00  0.00     0.170 HD
HETATM   23  H12 UNL     1      23.594   5.624  51.454  1.00  0.00     0.165 HD
BRANCH  21  24
HETATM   24  C15 UNL     1      21.406   8.553  49.725  1.00  0.00     0.036 A 
HETATM   25  C16 UNL     1      20.040   8.591  50.025  1.00  0.00     0.029 A 
HETATM   26  C17 UNL     1      19.211   9.551  49.429  1.00  0.00     0.002 A 
HETATM   27  C18 UNL     1      19.773  10.448  48.548  1.00  0.00     0.000 A 
HETATM   28  C19 UNL     1      21.098  10.424  48.247  1.00  0.00     0.002 A 
HETATM   29  C20 UNL     1      21.932   9.476  48.830  1.00  0.00     0.029 A 
ENDBRANCH  21  24
ENDBRANCH  15  18
BRANCH   1  30
HETATM   30  O1  UNL     1      28.145  -0.257  52.852  1.00  0.00    -0.353 OA
HETATM   31  C1  UNL     1      29.045  -0.323  53.903  1.00  0.00     0.210 C 
ENDBRANCH   1  30
TORSDOF 3
ENDMDL
MODEL 4
REMARK VINA RESULT:      -8.9      3.274      8.244
REMARK  3 active torsions:
REMARK  status: ('A' for Active; 'I' for Inactive)
REMARK    1  A    between atoms: O1_2  and  C2_3 
REMARK    2  A    between atoms: C13_17  and  N3_18 
REMARK       I    between atoms: N3_18  and  C14_19 
REMARK       I    between atoms: C14_19  and  N4_21 
REMARK    3  A    between atoms: N4_21  and  C15_22 
ROOT
HETATM    1  C2  UNL     1      27.740   0.122  53.374  1.00  0.00     0.103 A 
HETATM    2  C3  UNL     1      27.875   1.205  52.542  1.00  0.00     0.072 A 
HETATM    3  C4  UNL     1      26.779   1.746  51.915  1.00  0.00     0.075 A 
HETATM    4  N1  UNL     1      27.053   2.821  51.108  1.00  0.00    -0.241 NA
HETATM    5  C5  UNL     1      25.926   3.326  50.508  1.00  0.00     0.236 A 
HETATM    6  N2  UNL     1      24.667   2.874  50.649  1.00  0.00    -0.217 NA
HETATM    7  C6  UNL     1      24.365   1.833  51.426  1.00  0.00     0.178 A 
HETATM    8  C7  UNL     1      25.475   1.305  52.031  1.00  0.00     0.048 A 
HETATM    9  C8  UNL     1      25.625   0.246  52.891  1.00  0.00     0.057 A 
HETATM   10  C9  UNL     1      26.561  -0.506  53.656  1.00  0.00     0.103 A 
HETATM   11  O2  UNL     1      25.618  -1.381  54.176  1.00  0.00    -0.345 OA
HETATM   12  C10 UNL     1      24.574  -0.723  54.860  1.00  0.00     0.203 C 
HETATM   13  C11 UNL     1      23.382  -1.379  55.238  1.00  0.00    -0.002 C 
HETATM   14  C12 UNL     1      22.353  -0.728  54.590  1.00  0.00    -0.002 C 
HETATM   15  C13 UNL     1      21.775   0.283  53.711  1.00  0.00     0.133 C 
HETATM   16  C21 UNL     1      22.651   1.343  53.112  1.00  0.00     0.206 C 
HETATM   17  O4  UNL     1      23.419   0.954  51.977  1.00  0.00    -0.331 OA
ENDROOT
BRANCH  15  18
HETATM   18  N3  UNL     1      20.833  -0.244  52.725  1.00  0.00    -0.333 N 
HETATM   19  C14 UNL     1      19.689   0.469  52.250  1.00  0.00     0.321 C 
HETATM   20  O3  UNL     1      19.477   1.612  52.702  1.00  0.00    -0.247 OA
HETATM   21  N4  UNL     1      18.897  -0.216  51.292  1.00  0.00    -0.309 N 
HETATM   22  H13 UNL     1      19.141  -1.178  50.960  1.00  0.00     0.170 HD
HETATM   23  H12 UNL     1      21.060  -1.212  52.377  1.00  0.00     0.165 HD
BRANCH  21  24
HETATM   24  C15 UNL     1      17.727   0.388  50.739  1.00  0.00     0.036 A 
HETATM   25  C16 UNL     1      16.500  -0.001  51.286  1.00  0.00     0.029 A 
HETATM   26  C17 UNL     1      15.303   0.544  50.801  1.00  0.00     0.002 A 
HETATM   27  C18 UNL     1      15.368   1.466  49.780  1.00  0.00     0.000 A 
HETATM   28  C19 UNL     1      16.553   1.854  49.238  1.00  0.00     0.002 A 
HETATM   29  C20 UNL     1      17.747   1.321  49.709  1.00  0.00     0.029 A 
ENDBRANCH  21  24
ENDBRANCH  15  18
BRANCH   1  30
HETATM   30  O1  UNL     1      28.505  -0.708  54.174  1.00  0.00    -0.353 OA
HETATM   31  C1  UNL     1      29.777  -1.164  53.870  1.00  0.00     0.210 C 
ENDBRANCH   1  30
TORSDOF 3
ENDMDL
MODEL 5
REMARK VINA RESULT:      -8.8      3.842     11.086
REMARK  3 active torsions:
REMARK  status: ('A' for Active; 'I' for Inactive)
REMARK    1  A    between atoms: O1_2  and  C2_3 
REMARK    2  A    between atoms: C13_17  and  N3_18 
REMARK       I    between atoms: N3_18  and  C14_19 
REMARK       I    between atoms: C14_19  and  N4_21 
REMARK    3  A    between atoms: N4_21  and  C15_22 
ROOT
HETATM    1  C2  UNL     1      31.179   9.423  46.922  1.00  0.00     0.103 A 
HETATM    2  C3  UNL     1      32.262   8.583  46.858  1.00  0.00     0.072 A 
HETATM    3  C4  UNL     1      32.196   7.316  47.385  1.00  0.00     0.075 A 
HETATM    4  N1  UNL     1      33.348   6.582  47.259  1.00  0.00    -0.241 NA
HETATM    5  C5  UNL     1      33.231   5.326  47.798  1.00  0.00     0.236 A 
HETATM    6  N2  UNL     1      32.143   4.803  48.394  1.00  0.00    -0.217 NA
HETATM    7  C6  UNL     1      31.007   5.487  48.533  1.00  0.00     0.178 A 
HETATM    8  C7  UNL     1      31.101   6.749  48.010  1.00  0.00     0.048 A 
HETATM    9  C8  UNL     1      30.193   7.775  47.940  1.00  0.00     0.057 A 
HETATM   10  C9  UNL     1      29.977   9.109  47.490  1.00  0.00     0.103 A 
HETATM   11  O2  UNL     1      28.668   9.181  47.943  1.00  0.00    -0.345 OA
HETATM   12  C10 UNL     1      27.847   8.160  47.420  1.00  0.00     0.203 C 
HETATM   13  C11 UNL     1      26.564   7.877  47.937  1.00  0.00    -0.002 C 
HETATM   14  C12 UNL     1      26.602   6.576  48.392  1.00  0.00    -0.002 C 
HETATM   15  C13 UNL     1      27.229   5.284  48.652  1.00  0.00     0.133 C 
HETATM   16  C21 UNL     1      28.625   5.021  48.172  1.00  0.00     0.206 C 
HETATM   17  O4  UNL     1      29.675   5.566  48.967  1.00  0.00    -0.331 OA
ENDROOT
BRANCH  15  18
HETATM   18  N3  UNL     1      27.034   4.782  50.011  1.00  0.00    -0.333 N 
HETATM   19  C14 UNL     1      26.541   3.476  50.318  1.00  0.00     0.321 C 
HETATM   20  O3  UNL     1      26.261   2.714  49.372  1.00  0.00    -0.247 OA
HETATM   21  N4  UNL     1      26.422   3.178  51.701  1.00  0.00    -0.309 N 
HETATM   22  H13 UNL     1      26.679   3.874  52.440  1.00  0.00     0.170 HD
HETATM   23  H12 UNL     1      27.286   5.467  50.771  1.00  0.00     0.165 HD
BRANCH  21  24
HETATM   24  C15 UNL     1      25.943   1.906  52.140  1.00  0.00     0.036 A 
HETATM   25  C16 UNL     1      26.888   0.881  52.245  1.00  0.00     0.029 A 
HETATM   26  C17 UNL     1      26.502  -0.398  52.669  1.00  0.00     0.002 A 
HETATM   27  C18 UNL     1      25.177  -0.615  52.976  1.00  0.00     0.000 A 
HETATM   28  C19 UNL     1      24.246   0.370  52.878  1.00  0.00     0.002 A 
HETATM   29  C20 UNL     1      24.616   1.644  52.459  1.00  0.00     0.029 A 
ENDBRANCH  21  24
ENDBRANCH  15  18
BRANCH   1  30
HETATM   30  O1  UNL     1      30.799  10.701  46.551  1.00  0.00    -0.353 OA
HETATM   31  C1  UNL     1      30.899  11.830  47.346  1.00  0.00     0.210 C 
ENDBRANCH   1  30
TORSDOF 3
ENDMDL
MODEL 6
REMARK VINA RESULT:      -8.8      2.507      9.514
REMARK  3 active torsions:
REMARK  status: ('A' for Active; 'I' for Inactive)
REMARK    1  A    between atoms: O1_2  and  C2_3 
REMARK    2  A    between atoms: C13_17  and  N3_18 
REMARK       I    between atoms: N3_18  and  C14_19 
REMARK       I    between atoms: C14_19  and  N4_21 
REMARK    3  A    between atoms: N4_21  and  C15_22 
ROOT
HETATM    1  C2  UNL     1      27.371   5.444  48.673  1.00  0.00     0.103 A 
HETATM    2  C3  UNL     1      26.536   6.493  48.383  1.00  0.00     0.072 A 
HETATM    3  C4  UNL     1      25.185   6.396  48.615  1.00  0.00     0.075 A 
HETATM    4  N1  UNL     1      24.463   7.512  48.276  1.00  0.00    -0.241 NA
HETATM    5  C5  UNL     1      23.123   7.365  48.529  1.00  0.00     0.236 A 
HETATM    6  N2  UNL     1      22.514   6.284  49.049  1.00  0.00    -0.217 NA
HETATM    7  C6  UNL     1      23.184   5.182  49.389  1.00  0.00     0.178 A 
HETATM    8  C7  UNL     1      24.526   5.300  49.139  1.00  0.00     0.048 A 
HETATM    9  C8  UNL     1      25.566   4.426  49.328  1.00  0.00     0.057 A 
HETATM   10  C9  UNL     1      26.974   4.247  49.196  1.00  0.00     0.103 A 
HETATM   11  O2  UNL     1      26.980   2.954  49.699  1.00  0.00    -0.345 OA
HETATM   12  C10 UNL     1      26.414   2.862  50.988  1.00  0.00     0.203 C 
HETATM   13  C11 UNL     1      26.076   1.627  51.582  1.00  0.00    -0.002 C 
HETATM   14  C12 UNL     1      24.716   1.659  51.810  1.00  0.00    -0.002 C 
HETATM   15  C13 UNL     1      23.385   2.260  51.787  1.00  0.00     0.133 C 
HETATM   16  C21 UNL     1      23.213   3.676  51.327  1.00  0.00     0.206 C 
HETATM   17  O4  UNL     1      23.209   3.882  49.916  1.00  0.00    -0.331 OA
ENDROOT
BRANCH  15  18
HETATM   18  N3  UNL     1      22.343   1.395  51.238  1.00  0.00    -0.333 N 
HETATM   19  C14 UNL     1      21.117   1.095  51.908  1.00  0.00     0.321 C 
HETATM   20  O3  UNL     1      20.919   1.602  53.030  1.00  0.00    -0.247 OA
HETATM   21  N4  UNL     1      20.233   0.233  51.207  1.00  0.00    -0.309 N 
HETATM   22  H13 UNL     1      20.471  -0.154  50.264  1.00  0.00     0.170 HD
HETATM   23  H12 UNL     1      22.562   0.994  50.289  1.00  0.00     0.165 HD
BRANCH  21  24
HETATM   24  C15 UNL     1      18.975  -0.142  51.769  1.00  0.00     0.036 A 
HETATM   25  C16 UNL     1      17.831   0.344  51.128  1.00  0.00     0.029 A 
HETATM   26  C17 UNL     1      16.556   0.024  51.614  1.00  0.00     0.002 A 
HETATM   27  C18 UNL     1      16.462  -0.777  52.731  1.00  0.00     0.000 A 
HETATM   28  C19 UNL     1      17.564  -1.258  53.365  1.00  0.00     0.002 A 
HETATM   29  C20 UNL     1      18.835  -0.947  52.893  1.00  0.00     0.029 A 
ENDBRANCH  21  24
ENDBRANCH  15  18
BRANCH   1  30
HETATM   30  O1  UNL     1      28.712   5.104  48.618  1.00  0.00    -0.353 OA
HETATM   31  C1  UNL     1      29.733   5.937  48.194  1.00  0.00     0.210 C 
ENDBRANCH   1  30
TORSDOF 3
ENDMDL
MODEL 7
REMARK VINA RESULT:      -8.5      4.057      8.213
REMARK  3 active torsions:
REMARK  status: ('A' for Active; 'I' for Inactive)
REMARK    1  A    between atoms: O1_2  and  C2_3 
REMARK    2  A    between atoms: C13_17  and  N3_18 
REMARK       I    between atoms: N3_18  and  C14_19 
REMARK       I    between atoms: C14_19  and  N4_21 
REMARK    3  A    between atoms: N4_21  and  C15_22 
ROOT
HETATM    1  C2  UNL     1      25.140   0.737  52.334  1.00  0.00     0.103 A 
HETATM    2  C3  UNL     1      24.711  -0.137  53.300  1.00  0.00     0.072 A 
HETATM    3  C4  UNL     1      23.390  -0.171  53.676  1.00  0.00     0.075 A 
HETATM    4  N1  UNL     1      23.095  -1.086  54.655  1.00  0.00    -0.241 NA
HETATM    5  C5  UNL     1      21.764  -1.081  54.992  1.00  0.00     0.236 A 
HETATM    6  N2  UNL     1      20.802  -0.301  54.467  1.00  0.00    -0.217 NA
HETATM    7  C6  UNL     1      21.053   0.598  53.515  1.00  0.00     0.178 A 
HETATM    8  C7  UNL     1      22.377   0.619  53.165  1.00  0.00     0.048 A 
HETATM    9  C8  UNL     1      23.065   1.377  52.251  1.00  0.00     0.057 A 
HETATM   10  C9  UNL     1      24.343   1.627  51.674  1.00  0.00     0.103 A 
HETATM   11  O2  UNL     1      23.897   2.624  50.818  1.00  0.00    -0.345 OA
HETATM   12  C10 UNL     1      22.855   2.195  49.968  1.00  0.00     0.203 C 
HETATM   13  C11 UNL     1      22.075   3.095  49.209  1.00  0.00    -0.002 C 
HETATM   14  C12 UNL     1      20.772   2.943  49.637  1.00  0.00    -0.002 C 
HETATM   15  C13 UNL     1      19.706   2.366  50.450  1.00  0.00     0.133 C 
HETATM   16  C21 UNL     1      20.010   1.235  51.387  1.00  0.00     0.206 C 
HETATM   17  O4  UNL     1      20.612   1.593  52.628  1.00  0.00    -0.331 OA
ENDROOT
BRANCH  15  18
HETATM   18  N3  UNL     1      18.827   3.350  51.078  1.00  0.00    -0.333 N 
HETATM   19  C14 UNL     1      17.414   3.188  51.216  1.00  0.00     0.321 C 
HETATM   20  O3  UNL     1      16.895   2.143  50.778  1.00  0.00    -0.247 OA
HETATM   21  N4  UNL     1      16.736   4.259  51.855  1.00  0.00    -0.309 N 
HETATM   22  H13 UNL     1      17.244   5.108  52.199  1.00  0.00     0.170 HD
HETATM   23  H12 UNL     1      19.318   4.213  51.431  1.00  0.00     0.165 HD
BRANCH  21  24
HETATM   24  C15 UNL     1      15.322   4.218  52.056  1.00  0.00     0.036 A 
HETATM   25  C16 UNL     1      14.874   4.256  53.380  1.00  0.00     0.029 A 
HETATM   26  C17 UNL     1      13.502   4.220  53.664  1.00  0.00     0.002 A 
HETATM   27  C18 UNL     1      12.615   4.147  52.613  1.00  0.00     0.000 A 
HETATM   28  C19 UNL     1      13.035   4.108  51.321  1.00  0.00     0.002 A 
HETATM   29  C20 UNL     1      14.394   4.143  51.025  1.00  0.00     0.029 A 
ENDBRANCH  21  24
ENDBRANCH  15  18
BRANCH   1  30
HETATM   30  O1  UNL     1      26.296   1.105  51.669  1.00  0.00    -0.353 OA
HETATM   31  C1  UNL     1      27.179   2.089  52.081  1.00  0.00     0.210 C 
ENDBRANCH   1  30
TORSDOF 3
ENDMDL
MODEL 8
REMARK VINA RESULT:      -8.4      1.425      1.735
REMARK  3 active torsions:
REMARK  status: ('A' for Active; 'I' for Inactive)
REMARK    1  A    between atoms: O1_2  and  C2_3 
REMARK    2  A    between atoms: C13_17  and  N3_18 
REMARK       I    between atoms: N3_18  and  C14_19 
REMARK       I    between atoms: C14_19  and  N4_21 
REMARK    3  A    between atoms: N4_21  and  C15_22 
ROOT
HETATM    1  C2  UNL     1      18.226  -0.312  52.284  1.00  0.00     0.103 A 
HETATM    2  C3  UNL     1      18.901  -0.973  53.279  1.00  0.00     0.072 A 
HETATM    3  C4  UNL     1      20.231  -0.718  53.511  1.00  0.00     0.075 A 
HETATM    4  N1  UNL     1      20.786  -1.450  54.530  1.00  0.00    -0.241 NA
HETATM    5  C5  UNL     1      22.113  -1.157  54.723  1.00  0.00     0.236 A 
HETATM    6  N2  UNL     1      22.850  -0.267  54.034  1.00  0.00    -0.217 NA
HETATM    7  C6  UNL     1      22.343   0.462  53.038  1.00  0.00     0.178 A 
HETATM    8  C7  UNL     1      21.020   0.182  52.820  1.00  0.00     0.048 A 
HETATM    9  C8  UNL     1      20.122   0.683  51.911  1.00  0.00     0.057 A 
HETATM   10  C9  UNL     1      18.774   0.624  51.455  1.00  0.00     0.103 A 
HETATM   11  O2  UNL     1      18.941   1.576  50.460  1.00  0.00    -0.345 OA
HETATM   12  C10 UNL     1      19.425   2.807  50.951  1.00  0.00     0.203 C 
HETATM   13  C11 UNL     1      19.915   3.823  50.102  1.00  0.00    -0.002 C 
HETATM   14  C12 UNL     1      21.234   4.025  50.453  1.00  0.00    -0.002 C 
HETATM   15  C13 UNL     1      22.450   3.782  51.224  1.00  0.00     0.133 C 
HETATM   16  C21 UNL     1      22.424   2.823  52.376  1.00  0.00     0.206 C 
HETATM   17  O4  UNL     1      22.491   1.439  52.042  1.00  0.00    -0.331 OA
ENDROOT
BRANCH  15  18
HETATM   18  N3  UNL     1      23.652   3.602  50.412  1.00  0.00    -0.333 N 
HETATM   19  C14 UNL     1      24.528   4.665  50.034  1.00  0.00     0.321 C 
HETATM   20  O3  UNL     1      24.256   5.819  50.419  1.00  0.00    -0.247 OA
HETATM   21  N4  UNL     1      25.644   4.284  49.242  1.00  0.00    -0.309 N 
HETATM   22  H13 UNL     1      25.806   3.290  48.958  1.00  0.00     0.170 HD
HETATM   23  H12 UNL     1      23.834   2.608  50.115  1.00  0.00     0.165 HD
BRANCH  21  24
HETATM   24  C15 UNL     1      26.595   5.253  48.800  1.00  0.00     0.036 A 
HETATM   25  C16 UNL     1      27.914   4.813  48.643  1.00  0.00     0.029 A 
HETATM   26  C17 UNL     1      28.910   5.700  48.212  1.00  0.00     0.002 A 
HETATM   27  C18 UNL     1      28.558   7.005  47.950  1.00  0.00     0.000 A 
HETATM   28  C19 UNL     1      27.282   7.448  48.099  1.00  0.00     0.002 A 
HETATM   29  C20 UNL     1      26.283   6.579  48.525  1.00  0.00     0.029 A 
ENDBRANCH  21  24
ENDBRANCH  15  18
BRANCH   1  30
HETATM   30  O1  UNL     1      16.965  -0.239  51.721  1.00  0.00    -0.353 OA
HETATM   31  C1  UNL     1      15.887   0.447  52.254  1.00  0.00     0.210 C 
ENDBRANCH   1  30
TORSDOF 3
ENDMDL
MODEL 9
REMARK VINA RESULT:      -8.3      1.538      2.288
REMARK  3 active torsions:
REMARK  status: ('A' for Active; 'I' for Inactive)
REMARK    1  A    between atoms: O1_2  and  C2_3 
REMARK    2  A    between atoms: C13_17  and  N3_18 
REMARK       I    between atoms: N3_18  and  C14_19 
REMARK       I    between atoms: C14_19  and  N4_21 
REMARK    3  A    between atoms: N4_21  and  C15_22 
ROOT
HETATM    1  C2  UNL     1      22.823  -1.101  53.874  1.00  0.00     0.103 A 
HETATM    2  C3  UNL     1      24.017  -1.150  54.548  1.00  0.00     0.072 A 
HETATM    3  C4  UNL     1      25.022  -0.260  54.255  1.00  0.00     0.075 A 
HETATM    4  N1  UNL     1      26.165  -0.420  54.997  1.00  0.00    -0.241 NA
HETATM    5  C5  UNL     1      27.135   0.492  54.668  1.00  0.00     0.236 A 
HETATM    6  N2  UNL     1      27.049   1.462  53.739  1.00  0.00    -0.217 NA
HETATM    7  C6  UNL     1      25.954   1.646  53.000  1.00  0.00     0.178 A 
HETATM    8  C7  UNL     1      24.971   0.741  53.304  1.00  0.00     0.048 A 
HETATM    9  C8  UNL     1      23.709   0.565  52.796  1.00  0.00     0.057 A 
HETATM   10  C9  UNL     1      22.517  -0.210  52.886  1.00  0.00     0.103 A 
HETATM   11  O2  UNL     1      21.845   0.484  51.889  1.00  0.00    -0.345 OA
HETATM   12  C10 UNL     1      21.760   1.869  52.144  1.00  0.00     0.203 C 
HETATM   13  C11 UNL     1      21.361   2.798  51.159  1.00  0.00    -0.002 C 
HETATM   14  C12 UNL     1      22.422   3.661  50.980  1.00  0.00    -0.002 C 
HETATM   15  C13 UNL     1      23.763   4.179  51.236  1.00  0.00     0.133 C 
HETATM   16  C21 UNL     1      24.600   3.578  52.325  1.00  0.00     0.206 C 
HETATM   17  O4  UNL     1      25.254   2.352  52.009  1.00  0.00    -0.331 OA
ENDROOT
BRANCH  15  18
HETATM   18  N3  UNL     1      24.555   4.421  50.032  1.00  0.00    -0.333 N 
HETATM   19  C14 UNL     1      25.276   5.628  49.778  1.00  0.00     0.321 C 
HETATM   20  O3  UNL     1      25.231   6.534  50.634  1.00  0.00    -0.247 OA
HETATM   21  N4  UNL     1      25.985   5.669  48.548  1.00  0.00    -0.309 N 
HETATM   22  H13 UNL     1      25.975   4.865  47.878  1.00  0.00     0.170 HD
HETATM   23  H12 UNL     1      24.558   3.624  49.343  1.00  0.00     0.165 HD
BRANCH  21  24
HETATM   24  C15 UNL     1      26.746   6.819  48.177  1.00  0.00     0.036 A 
HETATM   25  C16 UNL     1      26.070   7.819  47.471  1.00  0.00     0.029 A 
HETATM   26  C17 UNL     1      26.743   8.981  47.069  1.00  0.00     0.002 A 
HETATM   27  C18 UNL     1      28.077   9.110  47.386  1.00  0.00     0.000 A 
HETATM   28  C19 UNL     1      28.748   8.147  48.071  1.00  0.00     0.002 A 
HETATM   29  C20 UNL     1      28.092   6.989  48.475  1.00  0.00     0.029 A 
ENDBRANCH  21  24
ENDBRANCH  15  18
BRANCH   1  30
HETATM   30  O1  UNL     1      21.599  -1.745  53.830  1.00  0.00    -0.353 OA
HETATM   31  C1  UNL     1      20.386  -1.187  54.197  1.00  0.00     0.210 C 
ENDBRANCH   1  30
TORSDOF 3
ENDMDL
