MODEL 1
REMARK VINA RESULT:      -7.2      0.000      0.000
REMARK  9 active torsions:
REMARK  status: ('A' for Active; 'I' for Inactive)
REMARK    1  A    between atoms: C3_3  and  C4_4 
REMARK    2  A    between atoms: C5_6  and  C6_7 
REMARK    3  A    between atoms: C6_7  and  C7_8 
REMARK    4  A    between atoms: C10_13  and  O1_14 
REMARK    5  A    between atoms: O1_14  and  C11_15 
REMARK    6  A    between atoms: C11_15  and  C12_16 
REMARK    7  A    between atoms: C12_16  and  N3_17 
REMARK    8  A    between atoms: N3_17  and  C14_19 
REMARK    9  A    between atoms: N4_21  and  O2_22 
ROOT
HETATM    1  C7  UNL     1      21.136  -0.934  54.001  1.00  0.00     0.029 C 
HETATM    2  N1  UNL     1      21.707  -1.472  55.015  1.00  0.00    -0.250 NA
HETATM    3  C8  UNL     1      23.086  -1.412  55.337  1.00  0.00     0.233 C 
HETATM    4  N2  UNL     1      23.902  -0.730  54.555  1.00  0.00    -0.241 NA
HETATM    5  C9  UNL     1      23.316  -0.080  53.436  1.00  0.00     0.100 C 
HETATM    6  C10 UNL     1      23.702   0.861  52.578  1.00  0.00     0.190 C 
HETATM    7  N4  UNL     1      22.741   1.241  51.563  1.00  0.00    -0.234 N 
HETATM    8  C17 UNL     1      21.485   0.926  52.312  1.00  0.00     0.175 C 
HETATM    9  C18 UNL     1      21.951  -0.361  52.932  1.00  0.00     0.111 C 
ENDROOT
BRANCH   1  10
HETATM   10  C6  UNL     1      19.773  -0.833  53.456  1.00  0.00     0.084 C 
BRANCH  10  11
HETATM   11  C5  UNL     1      18.987  -2.048  53.831  1.00  0.00     0.003 C 
HETATM   12  C4  UNL     1      17.769  -2.210  53.272  1.00  0.00     0.030 C 
HETATM   13 CL1  UNL     1      17.175  -1.009  52.125  1.00  0.00    -0.085 Cl
BRANCH  12  14
HETATM   14  C3  UNL     1      16.780  -3.268  53.434  1.00  0.00     0.019 C 
HETATM   15  C2  UNL     1      16.916  -4.575  53.550  1.00  0.00    -0.029 C 
HETATM   16  C1  UNL     1      15.695  -5.404  53.704  1.00  0.00     0.036 C 
ENDBRANCH  12  14
ENDBRANCH  10  11
ENDBRANCH   1  10
BRANCH   6  17
HETATM   17  O1  UNL     1      24.952   1.520  52.569  1.00  0.00    -0.331 OA
BRANCH  17  18
HETATM   18  C11 UNL     1      26.123   0.742  52.483  1.00  0.00     0.207 C 
BRANCH  18  19
HETATM   19  C12 UNL     1      26.943   0.861  53.725  1.00  0.00     0.298 C 
BRANCH  19  20
HETATM   20  N3  UNL     1      28.355   1.006  53.521  1.00  0.00     0.085 N 
HETATM   21  C13 UNL     1      28.756   2.369  53.616  1.00  0.00     0.310 C 
BRANCH  20  22
HETATM   22  C14 UNL     1      29.115   0.086  54.300  1.00  0.00     0.267 C 
HETATM   23  C15 UNL     1      29.792  -0.982  53.473  1.00  0.00     0.037 C 
ENDBRANCH  20  22
ENDBRANCH  19  20
ENDBRANCH  18  19
ENDBRANCH  17  18
ENDBRANCH   6  17
BRANCH   7  24
HETATM   24  O2  UNL     1      23.013   1.731  50.332  1.00  0.00    -0.281 OA
HETATM   25  C16 UNL     1      22.918   3.140  50.329  1.00  0.00     0.238 C 
ENDBRANCH   7  24
TORSDOF 9
ENDMDL
MODEL 2
REMARK VINA RESULT:      -6.7      2.777      8.468
REMARK  9 active torsions:
REMARK  status: ('A' for Active; 'I' for Inactive)
REMARK    1  A    between atoms: C3_3  and  C4_4 
REMARK    2  A    between atoms: C5_6  and  C6_7 
REMARK    3  A    between atoms: C6_7  and  C7_8 
REMARK    4  A    between atoms: C10_13  and  O1_14 
REMARK    5  A    between atoms: O1_14  and  C11_15 
REMARK    6  A    between atoms: C11_15  and  C12_16 
REMARK    7  A    between atoms: C12_16  and  N3_17 
REMARK    8  A    between atoms: N3_17  and  C14_19 
REMARK    9  A    between atoms: N4_21  and  O2_22 
ROOT
HETATM    1  C7  UNL     1      24.507   2.502  52.183  1.00  0.00     0.029 C 
HETATM    2  N1  UNL     1      24.540   3.230  51.130  1.00  0.00    -0.250 NA
HETATM    3  C8  UNL     1      23.701   3.109  49.993  1.00  0.00     0.233 C 
HETATM    4  N2  UNL     1      22.764   2.180  49.979  1.00  0.00    -0.241 NA
HETATM    5  C9  UNL     1      22.657   1.366  51.138  1.00  0.00     0.100 C 
HETATM    6  C10 UNL     1      21.749   0.523  51.622  1.00  0.00     0.190 C 
HETATM    7  N4  UNL     1      22.061  -0.101  52.893  1.00  0.00    -0.234 N 
HETATM    8  C17 UNL     1      22.938   0.971  53.460  1.00  0.00     0.175 C 
HETATM    9  C18 UNL     1      23.689   1.290  52.199  1.00  0.00     0.111 C 
ENDROOT
BRANCH   1  10
HETATM   10  C6  UNL     1      25.225   2.421  53.465  1.00  0.00     0.084 C 
BRANCH  10  11
HETATM   11  C5  UNL     1      26.628   1.964  53.230  1.00  0.00     0.003 C 
HETATM   12  C4  UNL     1      27.097   0.949  53.988  1.00  0.00     0.030 C 
HETATM   13 CL1  UNL     1      26.041   0.207  55.191  1.00  0.00    -0.085 Cl
BRANCH  12  14
HETATM   14  C3  UNL     1      28.396   0.291  54.001  1.00  0.00     0.019 C 
HETATM   15  C2  UNL     1      28.810  -0.827  53.434  1.00  0.00    -0.029 C 
HETATM   16  C1  UNL     1      30.220  -1.243  53.634  1.00  0.00     0.036 C 
ENDBRANCH  12  14
ENDBRANCH  10  11
ENDBRANCH   1  10
BRANCH   6  17
HETATM   17  O1  UNL     1      20.517   0.186  51.018  1.00  0.00    -0.331 OA
BRANCH  17  18
HETATM   18  C11 UNL     1      19.329   0.677  51.593  1.00  0.00     0.207 C 
BRANCH  18  19
HETATM   19  C12 UNL     1      18.239  -0.343  51.536  1.00  0.00     0.298 C 
BRANCH  19  20
HETATM   20  N3  UNL     1      17.626  -0.661  52.793  1.00  0.00     0.085 N 
HETATM   21  C13 UNL     1      16.210  -0.752  52.672  1.00  0.00     0.310 C 
BRANCH  20  22
HETATM   22  C14 UNL     1      18.258  -1.759  53.444  1.00  0.00     0.267 C 
HETATM   23  C15 UNL     1      17.398  -3.000  53.499  1.00  0.00     0.037 C 
ENDBRANCH  20  22
ENDBRANCH  19  20
ENDBRANCH  18  19
ENDBRANCH  17  18
ENDBRANCH   6  17
BRANCH   7  24
HETATM   24  O2  UNL     1      21.627  -1.303  53.334  1.00  0.00    -0.281 OA
HETATM   25  C16 UNL     1      21.890  -1.447  54.713  1.00  0.00     0.238 C 
ENDBRANCH   7  24
TORSDOF 9
ENDMDL
MODEL 3
REMARK VINA RESULT:      -6.7      3.467      7.878
REMARK  9 active torsions:
REMARK  status: ('A' for Active; 'I' for Inactive)
REMARK    1  A    between atoms: C3_3  and  C4_4 
REMARK    2  A    between atoms: C5_6  and  C6_7 
REMARK    3  A    between atoms: C6_7  and  C7_8 
REMARK    4  A    between atoms: C10_13  and  O1_14 
REMARK    5  A    between atoms: O1_14  and  C11_15 
REMARK    6  A    between atoms: C11_15  and  C12_16 
REMARK    7  A    between atoms: C12_16  and  N3_17 
REMARK    8  A    between atoms: N3_17  and  C14_19 
REMARK    9  A    between atoms: N4_21  and  O2_22 
ROOT
HETATM    1  C7  UNL     1      23.660   1.540  52.983  1.00  0.00     0.029 C 
HETATM    2  N1  UNL     1      24.273   2.659  52.860  1.00  0.00    -0.250 NA
HETATM    3  C8  UNL     1      23.707   3.891  52.445  1.00  0.00     0.233 C 
HETATM    4  N2  UNL     1      22.419   3.946  52.164  1.00  0.00    -0.241 NA
HETATM    5  C9  UNL     1      21.680   2.742  52.320  1.00  0.00     0.100 C 
HETATM    6  C10 UNL     1      20.390   2.424  52.381  1.00  0.00     0.190 C 
HETATM    7  N4  UNL     1      20.080   1.021  52.566  1.00  0.00    -0.234 N 
HETATM    8  C17 UNL     1      21.321   0.611  53.295  1.00  0.00     0.175 C 
HETATM    9  C18 UNL     1      22.297   1.404  52.474  1.00  0.00     0.111 C 
ENDROOT
BRANCH   1  10
HETATM   10  C6  UNL     1      23.990   0.166  53.390  1.00  0.00     0.084 C 
BRANCH  10  11
HETATM   11  C5  UNL     1      25.307  -0.232  52.806  1.00  0.00     0.003 C 
HETATM   12  C4  UNL     1      26.372  -0.296  53.633  1.00  0.00     0.030 C 
HETATM   13 CL1  UNL     1      26.162   0.068  55.346  1.00  0.00    -0.085 Cl
BRANCH  12  14
HETATM   14  C3  UNL     1      27.763  -0.644  53.371  1.00  0.00     0.019 C 
HETATM   15  C2  UNL     1      28.870  -0.355  54.028  1.00  0.00    -0.029 C 
HETATM   16  C1  UNL     1      30.160  -0.863  53.501  1.00  0.00     0.036 C 
ENDBRANCH  12  14
ENDBRANCH  10  11
ENDBRANCH   1  10
BRANCH   6  17
HETATM   17  O1  UNL     1      19.303   3.323  52.288  1.00  0.00    -0.331 OA
BRANCH  17  18
HETATM   18  C11 UNL     1      19.094   4.002  51.072  1.00  0.00     0.207 C 
BRANCH  18  19
HETATM   19  C12 UNL     1      19.135   3.059  49.913  1.00  0.00     0.298 C 
BRANCH  19  20
HETATM   20  N3  UNL     1      19.863   3.521  48.768  1.00  0.00     0.085 N 
HETATM   21  C13 UNL     1      20.680   4.642  49.089  1.00  0.00     0.310 C 
BRANCH  20  22
HETATM   22  C14 UNL     1      20.519   2.461  48.076  1.00  0.00     0.267 C 
HETATM   23  C15 UNL     1      20.907   1.310  48.974  1.00  0.00     0.037 C 
ENDBRANCH  20  22
ENDBRANCH  19  20
ENDBRANCH  18  19
ENDBRANCH  17  18
ENDBRANCH   6  17
BRANCH   7  24
HETATM   24  O2  UNL     1      18.963   0.377  52.159  1.00  0.00    -0.281 OA
HETATM   25  C16 UNL     1      18.702  -0.734  52.991  1.00  0.00     0.238 C 
ENDBRANCH   7  24
TORSDOF 9
ENDMDL
MODEL 4
REMARK VINA RESULT:      -6.5      3.986      7.934
REMARK  9 active torsions:
REMARK  status: ('A' for Active; 'I' for Inactive)
REMARK    1  A    between atoms: C3_3  and  C4_4 
REMARK    2  A    between atoms: C5_6  and  C6_7 
REMARK    3  A    between atoms: C6_7  and  C7_8 
REMARK    4  A    between atoms: C10_13  and  O1_14 
REMARK    5  A    between atoms: O1_14  and  C11_15 
REMARK    6  A    between atoms: C11_15  and  C12_16 
REMARK    7  A    between atoms: C12_16  and  N3_17 
REMARK    8  A    between atoms: N3_17  and  C14_19 
REMARK    9  A    between atoms: N4_21  and  O2_22 
ROOT
HETATM    1  C7  UNL     1      23.595   0.961  52.428  1.00  0.00     0.029 C 
HETATM    2  N1  UNL     1      23.020  -0.118  52.811  1.00  0.00    -0.250 NA
HETATM    3  C8  UNL     1      21.662  -0.260  53.194  1.00  0.00     0.233 C 
HETATM    4  N2  UNL     1      20.865   0.791  53.149  1.00  0.00    -0.241 NA
HETATM    5  C9  UNL     1      21.441   2.007  52.693  1.00  0.00     0.100 C 
HETATM    6  C10 UNL     1      20.971   3.181  52.281  1.00  0.00     0.190 C 
HETATM    7  N4  UNL     1      21.956   4.167  51.883  1.00  0.00    -0.234 N 
HETATM    8  C17 UNL     1      23.043   3.235  51.449  1.00  0.00     0.175 C 
HETATM    9  C18 UNL     1      22.899   2.239  52.564  1.00  0.00     0.111 C 
ENDROOT
BRANCH   1  10
HETATM   10  C6  UNL     1      24.935   1.371  51.978  1.00  0.00     0.084 C 
BRANCH  10  11
HETATM   11  C5  UNL     1      25.901   0.249  52.182  1.00  0.00     0.003 C 
HETATM   12  C4  UNL     1      26.995   0.487  52.938  1.00  0.00     0.030 C 
HETATM   13 CL1  UNL     1      27.222   2.082  53.656  1.00  0.00    -0.085 Cl
BRANCH  12  14
HETATM   14  C3  UNL     1      28.101  -0.384  53.313  1.00  0.00     0.019 C 
HETATM   15  C2  UNL     1      29.382  -0.130  53.500  1.00  0.00    -0.029 C 
HETATM   16  C1  UNL     1      30.277  -1.249  53.886  1.00  0.00     0.036 C 
ENDBRANCH  12  14
ENDBRANCH  10  11
ENDBRANCH   1  10
BRANCH   6  17
HETATM   17  O1  UNL     1      19.610   3.550  52.190  1.00  0.00    -0.331 OA
BRANCH  17  18
HETATM   18  C11 UNL     1      18.842   3.036  51.127  1.00  0.00     0.207 C 
BRANCH  18  19
HETATM   19  C12 UNL     1      19.254   3.639  49.823  1.00  0.00     0.298 C 
BRANCH  19  20
HETATM   20  N3  UNL     1      19.456   2.709  48.751  1.00  0.00     0.085 N 
HETATM   21  C13 UNL     1      18.742   3.101  47.583  1.00  0.00     0.310 C 
BRANCH  20  22
HETATM   22  C14 UNL     1      20.832   2.395  48.554  1.00  0.00     0.267 C 
HETATM   23  C15 UNL     1      21.222   1.043  49.102  1.00  0.00     0.037 C 
ENDBRANCH  20  22
ENDBRANCH  19  20
ENDBRANCH  18  19
ENDBRANCH  17  18
ENDBRANCH   6  17
BRANCH   7  24
HETATM   24  O2  UNL     1      21.822   5.511  51.932  1.00  0.00    -0.281 OA
HETATM   25  C16 UNL     1      21.925   6.064  50.636  1.00  0.00     0.238 C 
ENDBRANCH   7  24
TORSDOF 9
ENDMDL
MODEL 5
REMARK VINA RESULT:      -6.5      2.410      2.693
REMARK  9 active torsions:
REMARK  status: ('A' for Active; 'I' for Inactive)
REMARK    1  A    between atoms: C3_3  and  C4_4 
REMARK    2  A    between atoms: C5_6  and  C6_7 
REMARK    3  A    between atoms: C6_7  and  C7_8 
REMARK    4  A    between atoms: C10_13  and  O1_14 
REMARK    5  A    between atoms: O1_14  and  C11_15 
REMARK    6  A    between atoms: C11_15  and  C12_16 
REMARK    7  A    between atoms: C12_16  and  N3_17 
REMARK    8  A    between atoms: N3_17  and  C14_19 
REMARK    9  A    between atoms: N4_21  and  O2_22 
ROOT
HETATM    1  C7  UNL     1      21.397   0.258  53.747  1.00  0.00     0.029 C 
HETATM    2  N1  UNL     1      21.773  -0.597  54.624  1.00  0.00    -0.250 NA
HETATM    3  C8  UNL     1      23.093  -1.070  54.831  1.00  0.00     0.233 C 
HETATM    4  N2  UNL     1      24.072  -0.597  54.083  1.00  0.00    -0.241 NA
HETATM    5  C9  UNL     1      23.719   0.384  53.118  1.00  0.00     0.100 C 
HETATM    6  C10 UNL     1      24.387   1.256  52.367  1.00  0.00     0.190 C 
HETATM    7  N4  UNL     1      23.591   2.101  51.499  1.00  0.00    -0.234 N 
HETATM    8  C17 UNL     1      22.330   2.125  52.304  1.00  0.00     0.175 C 
HETATM    9  C18 UNL     1      22.328   0.676  52.700  1.00  0.00     0.111 C 
ENDROOT
BRANCH   1  10
HETATM   10  C6  UNL     1      20.142   0.909  53.339  1.00  0.00     0.084 C 
BRANCH  10  11
HETATM   11  C5  UNL     1      19.436   0.059  52.334  1.00  0.00     0.003 C 
HETATM   12  C4  UNL     1      18.647   0.675  51.427  1.00  0.00     0.030 C 
HETATM   13 CL1  UNL     1      18.503   2.433  51.457  1.00  0.00    -0.085 Cl
BRANCH  12  14
HETATM   14  C3  UNL     1      17.841   0.134  50.341  1.00  0.00     0.019 C 
HETATM   15  C2  UNL     1      16.624  -0.375  50.333  1.00  0.00    -0.029 C 
HETATM   16  C1  UNL     1      16.063  -0.852  49.044  1.00  0.00     0.036 C 
ENDBRANCH  12  14
ENDBRANCH  10  11
ENDBRANCH   1  10
BRANCH   6  17
HETATM   17  O1  UNL     1      25.788   1.435  52.340  1.00  0.00    -0.331 OA
BRANCH  17  18
HETATM   18  C11 UNL     1      26.597   0.355  51.938  1.00  0.00     0.207 C 
BRANCH  18  19
HETATM   19  C12 UNL     1      27.590  -0.000  52.996  1.00  0.00     0.298 C 
BRANCH  19  20
HETATM   20  N3  UNL     1      27.759  -1.403  53.238  1.00  0.00     0.085 N 
HETATM   21  C13 UNL     1      26.915  -2.181  52.395  1.00  0.00     0.310 C 
BRANCH  20  22
HETATM   22  C14 UNL     1      29.130  -1.790  53.261  1.00  0.00     0.267 C 
HETATM   23  C15 UNL     1      30.073  -0.641  53.528  1.00  0.00     0.037 C 
ENDBRANCH  20  22
ENDBRANCH  19  20
ENDBRANCH  18  19
ENDBRANCH  17  18
ENDBRANCH   6  17
BRANCH   7  24
HETATM   24  O2  UNL     1      23.979   2.655  50.329  1.00  0.00    -0.281 OA
HETATM   25  C16 UNL     1      22.921   2.626  49.394  1.00  0.00     0.238 C 
ENDBRANCH   7  24
TORSDOF 9
ENDMDL
MODEL 6
REMARK VINA RESULT:      -6.5      3.305      8.170
REMARK  9 active torsions:
REMARK  status: ('A' for Active; 'I' for Inactive)
REMARK    1  A    between atoms: C3_3  and  C4_4 
REMARK    2  A    between atoms: C5_6  and  C6_7 
REMARK    3  A    between atoms: C6_7  and  C7_8 
REMARK    4  A    between atoms: C10_13  and  O1_14 
REMARK    5  A    between atoms: O1_14  and  C11_15 
REMARK    6  A    between atoms: C11_15  and  C12_16 
REMARK    7  A    between atoms: C12_16  and  N3_17 
REMARK    8  A    between atoms: N3_17  and  C14_19 
REMARK    9  A    between atoms: N4_21  and  O2_22 
ROOT
HETATM    1  C7  UNL     1      23.080   0.647  52.798  1.00  0.00     0.029 C 
HETATM    2  N1  UNL     1      22.527  -0.355  53.374  1.00  0.00    -0.250 NA
HETATM    3  C8  UNL     1      21.183  -0.438  53.818  1.00  0.00     0.233 C 
HETATM    4  N2  UNL     1      20.375   0.587  53.623  1.00  0.00    -0.241 NA
HETATM    5  C9  UNL     1      20.925   1.713  52.953  1.00  0.00     0.100 C 
HETATM    6  C10 UNL     1      20.431   2.800  52.365  1.00  0.00     0.190 C 
HETATM    7  N4  UNL     1      21.395   3.710  51.778  1.00  0.00    -0.234 N 
HETATM    8  C17 UNL     1      22.477   2.724  51.471  1.00  0.00     0.175 C 
HETATM    9  C18 UNL     1      22.376   1.927  52.741  1.00  0.00     0.111 C 
ENDROOT
BRANCH   1  10
HETATM   10  C6  UNL     1      24.402   0.982  52.244  1.00  0.00     0.084 C 
BRANCH  10  11
HETATM   11  C5  UNL     1      25.411  -0.017  52.709  1.00  0.00     0.003 C 
HETATM   12  C4  UNL     1      26.717   0.314  52.615  1.00  0.00     0.030 C 
HETATM   13 CL1  UNL     1      27.166   1.895  51.975  1.00  0.00    -0.085 Cl
BRANCH  12  14
HETATM   14  C3  UNL     1      27.917  -0.430  52.975  1.00  0.00     0.019 C 
HETATM   15  C2  UNL     1      29.005  -0.063  53.625  1.00  0.00    -0.029 C 
HETATM   16  C1  UNL     1      30.075  -1.068  53.841  1.00  0.00     0.036 C 
ENDBRANCH  12  14
ENDBRANCH  10  11
ENDBRANCH   1  10
BRANCH   6  17
HETATM   17  O1  UNL     1      19.065   3.143  52.257  1.00  0.00    -0.331 OA
BRANCH  17  18
HETATM   18  C11 UNL     1      18.459   3.103  50.986  1.00  0.00     0.207 C 
BRANCH  18  19
HETATM   19  C12 UNL     1      18.148   1.699  50.581  1.00  0.00     0.298 C 
BRANCH  19  20
HETATM   20  N3  UNL     1      17.384   0.939  51.526  1.00  0.00     0.085 N 
HETATM   21  C13 UNL     1      15.997   1.246  51.440  1.00  0.00     0.310 C 
BRANCH  20  22
HETATM   22  C14 UNL     1      17.709  -0.448  51.499  1.00  0.00     0.267 C 
HETATM   23  C15 UNL     1      17.384  -1.166  52.788  1.00  0.00     0.037 C 
ENDBRANCH  20  22
ENDBRANCH  19  20
ENDBRANCH  18  19
ENDBRANCH  17  18
ENDBRANCH   6  17
BRANCH   7  24
HETATM   24  O2  UNL     1      21.250   5.043  51.606  1.00  0.00    -0.281 OA
HETATM   25  C16 UNL     1      22.379   5.581  50.951  1.00  0.00     0.238 C 
ENDBRANCH   7  24
TORSDOF 9
ENDMDL
MODEL 7
REMARK VINA RESULT:      -6.4      4.621      9.534
REMARK  9 active torsions:
REMARK  status: ('A' for Active; 'I' for Inactive)
REMARK    1  A    between atoms: C3_3  and  C4_4 
REMARK    2  A    between atoms: C5_6  and  C6_7 
REMARK    3  A    between atoms: C6_7  and  C7_8 
REMARK    4  A    between atoms: C10_13  and  O1_14 
REMARK    5  A    between atoms: O1_14  and  C11_15 
REMARK    6  A    between atoms: C11_15  and  C12_16 
REMARK    7  A    between atoms: C12_16  and  N3_17 
REMARK    8  A    between atoms: N3_17  and  C14_19 
REMARK    9  A    between atoms: N4_21  and  O2_22 
ROOT
HETATM    1  C7  UNL     1      26.094   3.785  50.206  1.00  0.00     0.029 C 
HETATM    2  N1  UNL     1      26.784   2.830  50.709  1.00  0.00    -0.250 NA
HETATM    3  C8  UNL     1      26.350   1.896  51.683  1.00  0.00     0.233 C 
HETATM    4  N2  UNL     1      25.111   1.964  52.134  1.00  0.00    -0.241 NA
HETATM    5  C9  UNL     1      24.288   2.982  51.582  1.00  0.00     0.100 C 
HETATM    6  C10 UNL     1      22.983   3.239  51.568  1.00  0.00     0.190 C 
HETATM    7  N4  UNL     1      22.568   4.426  50.847  1.00  0.00    -0.234 N 
HETATM    8  C17 UNL     1      23.682   4.484  49.850  1.00  0.00     0.175 C 
HETATM    9  C18 UNL     1      24.798   4.125  50.789  1.00  0.00     0.111 C 
ENDROOT
BRANCH   1  10
HETATM   10  C6  UNL     1      26.288   4.851  49.210  1.00  0.00     0.084 C 
BRANCH  10  11
HETATM   11  C5  UNL     1      27.660   4.753  48.627  1.00  0.00     0.003 C 
HETATM   12  C4  UNL     1      28.301   5.903  48.324  1.00  0.00     0.030 C 
HETATM   13 CL1  UNL     1      27.509   7.446  48.645  1.00  0.00    -0.085 Cl
BRANCH  12  14
HETATM   14  C3  UNL     1      29.621   6.136  47.753  1.00  0.00     0.019 C 
HETATM   15  C2  UNL     1      30.747   5.458  47.863  1.00  0.00    -0.029 C 
HETATM   16  C1  UNL     1      31.948   5.957  47.148  1.00  0.00     0.036 C 
ENDBRANCH  12  14
ENDBRANCH  10  11
ENDBRANCH   1  10
BRANCH   6  17
HETATM   17  O1  UNL     1      21.972   2.467  52.184  1.00  0.00    -0.331 OA
BRANCH  17  18
HETATM   18  C11 UNL     1      21.192   1.615  51.378  1.00  0.00     0.207 C 
BRANCH  18  19
HETATM   19  C12 UNL     1      21.445   0.180  51.706  1.00  0.00     0.298 C 
BRANCH  19  20
HETATM   20  N3  UNL     1      21.425  -0.147  53.102  1.00  0.00     0.085 N 
HETATM   21  C13 UNL     1      20.121  -0.529  53.527  1.00  0.00     0.310 C 
BRANCH  20  22
HETATM   22  C14 UNL     1      22.476  -1.036  53.468  1.00  0.00     0.267 C 
HETATM   23  C15 UNL     1      22.607  -1.228  54.960  1.00  0.00     0.037 C 
ENDBRANCH  20  22
ENDBRANCH  19  20
ENDBRANCH  18  19
ENDBRANCH  17  18
ENDBRANCH   6  17
BRANCH   7  24
HETATM   24  O2  UNL     1      21.472   5.179  51.089  1.00  0.00    -0.281 OA
HETATM   25  C16 UNL     1      21.770   6.550  50.926  1.00  0.00     0.238 C 
ENDBRANCH   7  24
TORSDOF 9
ENDMDL
MODEL 8
REMARK VINA RESULT:      -6.4      3.009      8.285
REMARK  9 active torsions:
REMARK  status: ('A' for Active; 'I' for Inactive)
REMARK    1  A    between atoms: C3_3  and  C4_4 
REMARK    2  A    between atoms: C5_6  and  C6_7 
REMARK    3  A    between atoms: C6_7  and  C7_8 
REMARK    4  A    between atoms: C10_13  and  O1_14 
REMARK    5  A    between atoms: O1_14  and  C11_15 
REMARK    6  A    between atoms: C11_15  and  C12_16 
REMARK    7  A    between atoms: C12_16  and  N3_17 
REMARK    8  A    between atoms: N3_17  and  C14_19 
REMARK    9  A    between atoms: N4_21  and  O2_22 
ROOT
HETATM    1  C7  UNL     1      22.982   0.123  53.428  1.00  0.00     0.029 C 
HETATM    2  N1  UNL     1      22.629  -0.884  54.136  1.00  0.00    -0.250 NA
HETATM    3  C8  UNL     1      21.302  -1.285  54.433  1.00  0.00     0.233 C 
HETATM    4  N2  UNL     1      20.294  -0.594  53.936  1.00  0.00    -0.241 NA
HETATM    5  C9  UNL     1      20.626   0.513  53.110  1.00  0.00     0.100 C 
HETATM    6  C10 UNL     1      19.965   1.288  52.254  1.00  0.00     0.190 C 
HETATM    7  N4  UNL     1      20.733   2.329  51.601  1.00  0.00    -0.234 N 
HETATM    8  C17 UNL     1      22.076   1.671  51.633  1.00  0.00     0.175 C 
HETATM    9  C18 UNL     1      21.980   1.108  53.022  1.00  0.00     0.111 C 
ENDROOT
BRANCH   1  10
HETATM   10  C6  UNL     1      24.239   0.735  52.969  1.00  0.00     0.084 C 
BRANCH  10  11
HETATM   11  C5  UNL     1      25.397  -0.105  53.400  1.00  0.00     0.003 C 
HETATM   12  C4  UNL     1      26.573   0.063  52.759  1.00  0.00     0.030 C 
HETATM   13 CL1  UNL     1      26.694   1.263  51.472  1.00  0.00    -0.085 Cl
BRANCH  12  14
HETATM   14  C3  UNL     1      27.861  -0.593  52.943  1.00  0.00     0.019 C 
HETATM   15  C2  UNL     1      28.825  -0.386  53.820  1.00  0.00    -0.029 C 
HETATM   16  C1  UNL     1      30.040  -1.234  53.751  1.00  0.00     0.036 C 
ENDBRANCH  12  14
ENDBRANCH  10  11
ENDBRANCH   1  10
BRANCH   6  17
HETATM   17  O1  UNL     1      18.595   1.187  51.923  1.00  0.00    -0.331 OA
BRANCH  17  18
HETATM   18  C11 UNL     1      18.235   0.497  50.749  1.00  0.00     0.207 C 
BRANCH  18  19
HETATM   19  C12 UNL     1      17.101  -0.442  51.001  1.00  0.00     0.298 C 
BRANCH  19  20
HETATM   20  N3  UNL     1      16.726  -0.602  52.376  1.00  0.00     0.085 N 
HETATM   21  C13 UNL     1      15.378  -0.198  52.596  1.00  0.00     0.310 C 
BRANCH  20  22
HETATM   22  C14 UNL     1      17.076  -1.883  52.890  1.00  0.00     0.267 C 
HETATM   23  C15 UNL     1      15.976  -2.908  52.746  1.00  0.00     0.037 C 
ENDBRANCH  20  22
ENDBRANCH  19  20
ENDBRANCH  18  19
ENDBRANCH  17  18
ENDBRANCH   6  17
BRANCH   7  24
HETATM   24  O2  UNL     1      20.267   3.510  51.136  1.00  0.00    -0.281 OA
HETATM   25  C16 UNL     1      21.164   4.553  51.450  1.00  0.00     0.238 C 
ENDBRANCH   7  24
TORSDOF 9
ENDMDL
MODEL 9
REMARK VINA RESULT:      -6.4      3.752      8.514
REMARK  9 active torsions:
REMARK  status: ('A' for Active; 'I' for Inactive)
REMARK    1  A    between atoms: C3_3  and  C4_4 
REMARK    2  A    between atoms: C5_6  and  C6_7 
REMARK    3  A    between atoms: C6_7  and  C7_8 
REMARK    4  A    between atoms: C10_13  and  O1_14 
REMARK    5  A    between atoms: O1_14  and  C11_15 
REMARK    6  A    between atoms: C11_15  and  C12_16 
REMARK    7  A    between atoms: C12_16  and  N3_17 
REMARK    8  A    between atoms: N3_17  and  C14_19 
REMARK    9  A    between atoms: N4_21  and  O2_22 
ROOT
HETATM    1  C7  UNL     1      22.920  -0.080  53.454  1.00  0.00     0.029 C 
HETATM    2  N1  UNL     1      22.622  -1.254  53.868  1.00  0.00    -0.250 NA
HETATM    3  C8  UNL     1      21.317  -1.776  54.059  1.00  0.00     0.233 C 
HETATM    4  N2  UNL     1      20.273  -1.020  53.777  1.00  0.00    -0.241 NA
HETATM    5  C9  UNL     1      20.545   0.281  53.276  1.00  0.00     0.100 C 
HETATM    6  C10 UNL     1      19.837   1.228  52.667  1.00  0.00     0.190 C 
HETATM    7  N4  UNL     1      20.551   2.438  52.311  1.00  0.00    -0.234 N 
HETATM    8  C17 UNL     1      21.918   1.853  52.151  1.00  0.00     0.175 C 
HETATM    9  C18 UNL     1      21.873   0.934  53.338  1.00  0.00     0.111 C 
ENDROOT
BRANCH   1  10
HETATM   10  C6  UNL     1      24.143   0.686  53.164  1.00  0.00     0.084 C 
BRANCH  10  11
HETATM   11  C5  UNL     1      25.343  -0.108  53.564  1.00  0.00     0.003 C 
HETATM   12  C4  UNL     1      26.483   0.070  52.861  1.00  0.00     0.030 C 
HETATM   13 CL1  UNL     1      26.508   1.232  51.534  1.00  0.00    -0.085 Cl
BRANCH  12  14
HETATM   14  C3  UNL     1      27.795  -0.546  53.002  1.00  0.00     0.019 C 
HETATM   15  C2  UNL     1      28.805  -0.266  53.804  1.00  0.00    -0.029 C 
HETATM   16  C1  UNL     1      30.035  -1.090  53.709  1.00  0.00     0.036 C 
ENDBRANCH  12  14
ENDBRANCH  10  11
ENDBRANCH   1  10
BRANCH   6  17
HETATM   17  O1  UNL     1      18.465   1.162  52.335  1.00  0.00    -0.331 OA
BRANCH  17  18
HETATM   18  C11 UNL     1      18.106   1.065  50.976  1.00  0.00     0.207 C 
BRANCH  18  19
HETATM   19  C12 UNL     1      17.153   2.149  50.591  1.00  0.00     0.298 C 
BRANCH  19  20
HETATM   20  N3  UNL     1      16.511   2.822  51.683  1.00  0.00     0.085 N 
HETATM   21  C13 UNL     1      16.577   4.236  51.533  1.00  0.00     0.310 C 
BRANCH  20  22
HETATM   22  C14 UNL     1      15.217   2.294  51.962  1.00  0.00     0.267 C 
HETATM   23  C15 UNL     1      14.399   3.167  52.884  1.00  0.00     0.037 C 
ENDBRANCH  20  22
ENDBRANCH  19  20
ENDBRANCH  18  19
ENDBRANCH  17  18
ENDBRANCH   6  17
BRANCH   7  24
HETATM   24  O2  UNL     1      20.030   3.679  52.185  1.00  0.00    -0.281 OA
HETATM   25  C16 UNL     1      20.325   4.212  50.911  1.00  0.00     0.238 C 
ENDBRANCH   7  24
TORSDOF 9
ENDMDL
