MODEL 1
REMARK VINA RESULT:      -7.1      0.000      0.000
REMARK  11 active torsions:
REMARK  status: ('A' for Active; 'I' for Inactive)
REMARK    1  A    between atoms: C2_2  and  C3_3 
REMARK    2  A    between atoms: C3_3  and  C4_4 
REMARK    3  A    between atoms: C4_4  and  C5_5 
REMARK    4  A    between atoms: C5_5  and  N1_6 
REMARK       I    between atoms: N1_6  and  C6_7 
REMARK    5  A    between atoms: C6_7  and  C7_9 
REMARK    6  A    between atoms: C7_9  and  O2_10 
REMARK    7  A    between atoms: O2_10  and  C8_11 
REMARK    8  A    between atoms: C9_12  and  C10_13 
REMARK    9  A    between atoms: C10_13  and  C11_14 
REMARK   10  A    between atoms: C11_14  and  O3_15 
REMARK   11  A    between atoms: C15_20  and  O5_21 
ROOT
HETATM    1  C8  UNL     1      24.801   1.364  52.747  1.00  0.00     0.074 C 
HETATM    2  C9  UNL     1      25.614   0.329  53.056  1.00  0.00    -0.038 C 
HETATM    3  C12 UNL     1      24.694  -0.755  53.473  1.00  0.00     0.115 C 
HETATM    4  C13 UNL     1      24.651  -0.921  54.909  1.00  0.00     0.135 C 
HETATM    5  O4  UNL     1      25.674  -0.629  55.514  1.00  0.00    -0.298 OA
HETATM    6  C14 UNL     1      23.352  -1.421  55.421  1.00  0.00     0.139 C 
HETATM    7  C15 UNL     1      22.237  -1.258  54.386  1.00  0.00     0.269 C 
HETATM    8  O6  UNL     1      22.233  -0.053  53.825  1.00  0.00    -0.332 OA
HETATM    9  C16 UNL     1      22.230   1.085  53.295  1.00  0.00     0.141 C 
HETATM   10  C17 UNL     1      23.376   1.620  52.861  1.00  0.00     0.061 C 
ENDROOT
BRANCH   1  11
HETATM   11  O2  UNL     1      25.488   2.465  52.202  1.00  0.00    -0.342 OA
BRANCH  11  12
HETATM   12  C7  UNL     1      24.839   3.317  51.279  1.00  0.00     0.278 C 
BRANCH  12  13
HETATM   13  C6  UNL     1      25.866   3.627  50.219  1.00  0.00     0.241 C 
HETATM   14  N1  UNL     1      26.326   4.975  49.978  1.00  0.00    -0.359 N 
HETATM   15  H12 UNL     1      25.934   5.768  50.563  1.00  0.00     0.162 HD
HETATM   16  O1  UNL     1      26.449   2.833  49.431  1.00  0.00    -0.271 OA
BRANCH  14  17
HETATM   17  C5  UNL     1      27.303   5.021  48.915  1.00  0.00     0.122 C 
BRANCH  17  18
HETATM   18  C4  UNL     1      27.310   6.397  48.286  1.00  0.00     0.020 C 
BRANCH  18  19
HETATM   19  C3  UNL     1      28.736   6.813  48.001  1.00  0.00     0.001 C 
BRANCH  19  20
HETATM   20  C2  UNL     1      29.585   5.542  48.047  1.00  0.00    -0.004 C 
HETATM   21  C1  UNL     1      31.014   5.932  48.338  1.00  0.00     0.005 C 
ENDBRANCH  19  20
ENDBRANCH  18  19
ENDBRANCH  17  18
ENDBRANCH  14  17
ENDBRANCH  12  13
ENDBRANCH  11  12
ENDBRANCH   1  11
BRANCH   2  22
HETATM   22  C10 UNL     1      27.062   0.438  52.831  1.00  0.00     0.063 C 
BRANCH  22  23
HETATM   23  C11 UNL     1      27.784  -0.884  52.966  1.00  0.00     0.168 C 
BRANCH  23  24
HETATM   24  O3  UNL     1      28.331  -1.023  54.224  1.00  0.00    -0.401 OA
HETATM   25  H19 UNL     1      29.330  -0.905  54.185  1.00  0.00     0.209 HD
ENDBRANCH  23  24
ENDBRANCH  22  23
ENDBRANCH   2  22
BRANCH   7  26
HETATM   26  O5  UNL     1      21.020  -1.612  54.960  1.00  0.00    -0.370 OA
HETATM   27  H25 UNL     1      20.549  -2.325  54.451  1.00  0.00     0.212 HD
ENDBRANCH   7  26
TORSDOF 11
ENDMDL
MODEL 2
REMARK VINA RESULT:      -7.1      3.299      4.587
REMARK  11 active torsions:
REMARK  status: ('A' for Active; 'I' for Inactive)
REMARK    1  A    between atoms: C2_2  and  C3_3 
REMARK    2  A    between atoms: C3_3  and  C4_4 
REMARK    3  A    between atoms: C4_4  and  C5_5 
REMARK    4  A    between atoms: C5_5  and  N1_6 
REMARK       I    between atoms: N1_6  and  C6_7 
REMARK    5  A    between atoms: C6_7  and  C7_9 
REMARK    6  A    between atoms: C7_9  and  O2_10 
REMARK    7  A    between atoms: O2_10  and  C8_11 
REMARK    8  A    between atoms: C9_12  and  C10_13 
REMARK    9  A    between atoms: C10_13  and  C11_14 
REMARK   10  A    between atoms: C11_14  and  O3_15 
REMARK   11  A    between atoms: C15_20  and  O5_21 
ROOT
HETATM    1  C8  UNL     1      23.434   0.816  53.055  1.00  0.00     0.074 C 
HETATM    2  C9  UNL     1      23.644  -0.473  53.402  1.00  0.00    -0.038 C 
HETATM    3  C12 UNL     1      22.343  -1.139  53.162  1.00  0.00     0.115 C 
HETATM    4  C13 UNL     1      21.611  -1.379  54.385  1.00  0.00     0.135 C 
HETATM    5  O4  UNL     1      22.287  -1.554  55.390  1.00  0.00    -0.298 OA
HETATM    6  C14 UNL     1      20.138  -1.369  54.220  1.00  0.00     0.139 C 
HETATM    7  C15 UNL     1      19.722  -0.710  52.903  1.00  0.00     0.269 C 
HETATM    8  O6  UNL     1      20.355   0.439  52.686  1.00  0.00    -0.332 OA
HETATM    9  C16 UNL     1      20.953   1.524  52.480  1.00  0.00     0.141 C 
HETATM   10  C17 UNL     1      22.276   1.599  52.664  1.00  0.00     0.061 C 
ENDROOT
BRANCH   1  11
HETATM   11  O2  UNL     1      24.604   1.599  53.095  1.00  0.00    -0.342 OA
BRANCH  11  12
HETATM   12  C7  UNL     1      25.265   1.945  51.894  1.00  0.00     0.278 C 
BRANCH  12  13
HETATM   13  C6  UNL     1      26.684   2.267  52.289  1.00  0.00     0.241 C 
HETATM   14  N1  UNL     1      27.188   1.982  53.612  1.00  0.00    -0.359 N 
HETATM   15  H12 UNL     1      26.545   1.531  54.325  1.00  0.00     0.162 HD
HETATM   16  O1  UNL     1      27.595   2.794  51.593  1.00  0.00    -0.271 OA
BRANCH  14  17
HETATM   17  C5  UNL     1      28.569   2.382  53.752  1.00  0.00     0.122 C 
BRANCH  17  18
HETATM   18  C4  UNL     1      29.365   1.260  54.385  1.00  0.00     0.020 C 
BRANCH  18  19
HETATM   19  C3  UNL     1      28.700  -0.063  54.078  1.00  0.00     0.001 C 
BRANCH  19  20
HETATM   20  C2  UNL     1      29.807  -1.026  53.652  1.00  0.00    -0.004 C 
HETATM   21  C1  UNL     1      29.171  -2.329  53.231  1.00  0.00     0.005 C 
ENDBRANCH  19  20
ENDBRANCH  18  19
ENDBRANCH  17  18
ENDBRANCH  14  17
ENDBRANCH  12  13
ENDBRANCH  11  12
ENDBRANCH   1  11
BRANCH   2  22
HETATM   22  C10 UNL     1      24.990  -0.921  53.789  1.00  0.00     0.063 C 
BRANCH  22  23
HETATM   23  C11 UNL     1      25.312  -0.643  55.240  1.00  0.00     0.168 C 
BRANCH  23  24
HETATM   24  O3  UNL     1      24.961  -1.710  56.039  1.00  0.00    -0.401 OA
HETATM   25  H19 UNL     1      25.374  -1.613  56.953  1.00  0.00     0.209 HD
ENDBRANCH  23  24
ENDBRANCH  22  23
ENDBRANCH   2  22
BRANCH   7  26
HETATM   26  O5  UNL     1      18.336  -0.602  52.859  1.00  0.00    -0.370 OA
HETATM   27  H25 UNL     1      18.028   0.332  52.709  1.00  0.00     0.212 HD
ENDBRANCH   7  26
TORSDOF 11
ENDMDL
MODEL 3
REMARK VINA RESULT:      -7.0      0.918      1.288
REMARK  11 active torsions:
REMARK  status: ('A' for Active; 'I' for Inactive)
REMARK    1  A    between atoms: C2_2  and  C3_3 
REMARK    2  A    between atoms: C3_3  and  C4_4 
REMARK    3  A    between atoms: C4_4  and  C5_5 
REMARK    4  A    between atoms: C5_5  and  N1_6 
REMARK       I    between atoms: N1_6  and  C6_7 
REMARK    5  A    between atoms: C6_7  and  C7_9 
REMARK    6  A    between atoms: C7_9  and  O2_10 
REMARK    7  A    between atoms: O2_10  and  C8_11 
REMARK    8  A    between atoms: C9_12  and  C10_13 
REMARK    9  A    between atoms: C10_13  and  C11_14 
REMARK   10  A    between atoms: C11_14  and  O3_15 
REMARK   11  A    between atoms: C15_20  and  O5_21 
ROOT
HETATM    1  C8  UNL     1      24.508   1.284  52.561  1.00  0.00     0.074 C 
HETATM    2  C9  UNL     1      25.370   0.298  52.893  1.00  0.00    -0.038 C 
HETATM    3  C12 UNL     1      24.506  -0.804  53.378  1.00  0.00     0.115 C 
HETATM    4  C13 UNL     1      24.504  -0.909  54.820  1.00  0.00     0.135 C 
HETATM    5  O4  UNL     1      25.527  -0.550  55.387  1.00  0.00    -0.298 OA
HETATM    6  C14 UNL     1      23.240  -1.439  55.386  1.00  0.00     0.139 C 
HETATM    7  C15 UNL     1      22.095  -1.367  54.373  1.00  0.00     0.269 C 
HETATM    8  O6  UNL     1      22.027  -0.189  53.762  1.00  0.00    -0.332 OA
HETATM    9  C16 UNL     1      21.964   0.925  53.184  1.00  0.00     0.141 C 
HETATM   10  C17 UNL     1      23.077   1.487  52.700  1.00  0.00     0.061 C 
ENDROOT
BRANCH   1  11
HETATM   11  O2  UNL     1      25.135   2.387  51.952  1.00  0.00    -0.342 OA
BRANCH  11  12
HETATM   12  C7  UNL     1      24.430   3.602  51.793  1.00  0.00     0.278 C 
BRANCH  12  13
HETATM   13  C6  UNL     1      24.909   4.183  50.486  1.00  0.00     0.241 C 
HETATM   14  N1  UNL     1      26.291   4.547  50.278  1.00  0.00    -0.359 N 
HETATM   15  H12 UNL     1      26.989   4.400  51.063  1.00  0.00     0.162 HD
HETATM   16  O1  UNL     1      24.244   4.428  49.442  1.00  0.00    -0.271 OA
BRANCH  14  17
HETATM   17  C5  UNL     1      26.505   5.083  48.953  1.00  0.00     0.122 C 
BRANCH  17  18
HETATM   18  C4  UNL     1      27.958   4.913  48.561  1.00  0.00     0.020 C 
BRANCH  18  19
HETATM   19  C3  UNL     1      28.552   6.265  48.239  1.00  0.00     0.001 C 
BRANCH  19  20
HETATM   20  C2  UNL     1      27.382   7.209  47.961  1.00  0.00    -0.004 C 
HETATM   21  C1  UNL     1      27.741   8.082  46.783  1.00  0.00     0.005 C 
ENDBRANCH  19  20
ENDBRANCH  18  19
ENDBRANCH  17  18
ENDBRANCH  14  17
ENDBRANCH  12  13
ENDBRANCH  11  12
ENDBRANCH   1  11
BRANCH   2  22
HETATM   22  C10 UNL     1      26.807   0.456  52.627  1.00  0.00     0.063 C 
BRANCH  22  23
HETATM   23  C11 UNL     1      27.582  -0.835  52.770  1.00  0.00     0.168 C 
BRANCH  23  24
HETATM   24  O3  UNL     1      28.116  -0.955  54.034  1.00  0.00    -0.401 OA
HETATM   25  H19 UNL     1      28.428  -1.900  54.193  1.00  0.00     0.209 HD
ENDBRANCH  23  24
ENDBRANCH  22  23
ENDBRANCH   2  22
BRANCH   7  26
HETATM   26  O5  UNL     1      20.908  -1.745  54.992  1.00  0.00    -0.370 OA
HETATM   27  H25 UNL     1      20.278  -0.985  55.111  1.00  0.00     0.212 HD
ENDBRANCH   7  26
TORSDOF 11
ENDMDL
MODEL 4
REMARK VINA RESULT:      -7.0      3.540      5.667
REMARK  11 active torsions:
REMARK  status: ('A' for Active; 'I' for Inactive)
REMARK    1  A    between atoms: C2_2  and  C3_3 
REMARK    2  A    between atoms: C3_3  and  C4_4 
REMARK    3  A    between atoms: C4_4  and  C5_5 
REMARK    4  A    between atoms: C5_5  and  N1_6 
REMARK       I    between atoms: N1_6  and  C6_7 
REMARK    5  A    between atoms: C6_7  and  C7_9 
REMARK    6  A    between atoms: C7_9  and  O2_10 
REMARK    7  A    between atoms: O2_10  and  C8_11 
REMARK    8  A    between atoms: C9_12  and  C10_13 
REMARK    9  A    between atoms: C10_13  and  C11_14 
REMARK   10  A    between atoms: C11_14  and  O3_15 
REMARK   11  A    between atoms: C15_20  and  O5_21 
ROOT
HETATM    1  C8  UNL     1      23.277   1.101  51.929  1.00  0.00     0.074 C 
HETATM    2  C9  UNL     1      22.429   0.239  52.532  1.00  0.00    -0.038 C 
HETATM    3  C12 UNL     1      21.298   0.104  51.583  1.00  0.00     0.115 C 
HETATM    4  C13 UNL     1      20.138   0.861  51.997  1.00  0.00     0.135 C 
HETATM    5  O4  UNL     1      19.997   1.012  53.203  1.00  0.00    -0.298 OA
HETATM    6  C14 UNL     1      19.298   1.342  50.873  1.00  0.00     0.139 C 
HETATM    7  C15 UNL     1      20.051   1.288  49.543  1.00  0.00     0.269 C 
HETATM    8  O6  UNL     1      21.277   1.793  49.629  1.00  0.00    -0.332 OA
HETATM    9  C16 UNL     1      22.436   2.270  49.712  1.00  0.00     0.141 C 
HETATM   10  C17 UNL     1      23.228   1.921  50.732  1.00  0.00     0.061 C 
ENDROOT
BRANCH   1  11
HETATM   11  O2  UNL     1      24.489   1.265  52.625  1.00  0.00    -0.342 OA
BRANCH  11  12
HETATM   12  C7  UNL     1      24.970   2.563  52.911  1.00  0.00     0.278 C 
BRANCH  12  13
HETATM   13  C6  UNL     1      26.473   2.472  52.812  1.00  0.00     0.241 C 
HETATM   14  N1  UNL     1      27.316   2.535  53.983  1.00  0.00    -0.359 N 
HETATM   15  H12 UNL     1      26.869   2.647  54.938  1.00  0.00     0.162 HD
HETATM   16  O1  UNL     1      27.187   2.335  51.781  1.00  0.00    -0.271 OA
BRANCH  14  17
HETATM   17  C5  UNL     1      28.715   2.430  53.636  1.00  0.00     0.122 C 
BRANCH  17  18
HETATM   18  C4  UNL     1      29.335   1.256  54.363  1.00  0.00     0.020 C 
BRANCH  18  19
HETATM   19  C3  UNL     1      28.257   0.254  54.710  1.00  0.00     0.001 C 
BRANCH  19  20
HETATM   20  C2  UNL     1      28.395  -0.906  53.724  1.00  0.00    -0.004 C 
HETATM   21  C1  UNL     1      29.859  -1.089  53.403  1.00  0.00     0.005 C 
ENDBRANCH  19  20
ENDBRANCH  18  19
ENDBRANCH  17  18
ENDBRANCH  14  17
ENDBRANCH  12  13
ENDBRANCH  11  12
ENDBRANCH   1  11
BRANCH   2  22
HETATM   22  C10 UNL     1      22.809  -0.403  53.798  1.00  0.00     0.063 C 
BRANCH  22  23
HETATM   23  C11 UNL     1      22.000  -1.645  54.100  1.00  0.00     0.168 C 
BRANCH  23  24
HETATM   24  O3  UNL     1      20.902  -1.345  54.877  1.00  0.00    -0.401 OA
HETATM   25  H19 UNL     1      20.945  -0.387  55.185  1.00  0.00     0.209 HD
ENDBRANCH  23  24
ENDBRANCH  22  23
ENDBRANCH   2  22
BRANCH   7  26
HETATM   26  O5  UNL     1      19.274   1.873  48.549  1.00  0.00    -0.370 OA
HETATM   27  H25 UNL     1      18.936   2.773  48.806  1.00  0.00     0.212 HD
ENDBRANCH   7  26
TORSDOF 11
ENDMDL
MODEL 5
REMARK VINA RESULT:      -6.8      1.878      4.325
REMARK  11 active torsions:
REMARK  status: ('A' for Active; 'I' for Inactive)
REMARK    1  A    between atoms: C2_2  and  C3_3 
REMARK    2  A    between atoms: C3_3  and  C4_4 
REMARK    3  A    between atoms: C4_4  and  C5_5 
REMARK    4  A    between atoms: C5_5  and  N1_6 
REMARK       I    between atoms: N1_6  and  C6_7 
REMARK    5  A    between atoms: C6_7  and  C7_9 
REMARK    6  A    between atoms: C7_9  and  O2_10 
REMARK    7  A    between atoms: O2_10  and  C8_11 
REMARK    8  A    between atoms: C9_12  and  C10_13 
REMARK    9  A    between atoms: C10_13  and  C11_14 
REMARK   10  A    between atoms: C11_14  and  O3_15 
REMARK   11  A    between atoms: C15_20  and  O5_21 
ROOT
HETATM    1  C8  UNL     1      25.304   1.289  52.924  1.00  0.00     0.074 C 
HETATM    2  C9  UNL     1      25.131   0.076  53.495  1.00  0.00    -0.038 C 
HETATM    3  C12 UNL     1      26.479  -0.299  53.985  1.00  0.00     0.115 C 
HETATM    4  C13 UNL     1      27.125  -1.271  53.132  1.00  0.00     0.135 C 
HETATM    5  O4  UNL     1      26.384  -2.038  52.533  1.00  0.00    -0.298 OA
HETATM    6  C14 UNL     1      28.605  -1.174  53.120  1.00  0.00     0.139 C 
HETATM    7  C15 UNL     1      29.088   0.168  53.674  1.00  0.00     0.269 C 
HETATM    8  O6  UNL     1      28.418   1.199  53.169  1.00  0.00    -0.332 OA
HETATM    9  C16 UNL     1      27.784   2.173  52.693  1.00  0.00     0.141 C 
HETATM   10  C17 UNL     1      26.450   2.129  52.623  1.00  0.00     0.061 C 
ENDROOT
BRANCH   1  11
HETATM   11  O2  UNL     1      24.098   1.880  52.502  1.00  0.00    -0.342 OA
BRANCH  11  12
HETATM   12  C7  UNL     1      23.696   3.125  53.036  1.00  0.00     0.278 C 
BRANCH  12  13
HETATM   13  C6  UNL     1      23.532   4.043  51.850  1.00  0.00     0.241 C 
HETATM   14  N1  UNL     1      24.656   4.739  51.268  1.00  0.00    -0.359 N 
HETATM   15  H12 UNL     1      25.622   4.600  51.682  1.00  0.00     0.162 HD
HETATM   16  O1  UNL     1      22.479   4.334  51.219  1.00  0.00    -0.271 OA
BRANCH  14  17
HETATM   17  C5  UNL     1      24.250   5.558  50.149  1.00  0.00     0.122 C 
BRANCH  17  18
HETATM   18  C4  UNL     1      25.218   5.371  49.000  1.00  0.00     0.020 C 
BRANCH  18  19
HETATM   19  C3  UNL     1      26.195   4.268  49.342  1.00  0.00     0.001 C 
BRANCH  19  20
HETATM   20  C2  UNL     1      27.554   4.691  48.784  1.00  0.00    -0.004 C 
HETATM   21  C1  UNL     1      27.459   6.127  48.331  1.00  0.00     0.005 C 
ENDBRANCH  19  20
ENDBRANCH  18  19
ENDBRANCH  17  18
ENDBRANCH  14  17
ENDBRANCH  12  13
ENDBRANCH  11  12
ENDBRANCH   1  11
BRANCH   2  22
HETATM   22  C10 UNL     1      23.784  -0.501  53.604  1.00  0.00     0.063 C 
BRANCH  22  23
HETATM   23  C11 UNL     1      23.492  -1.068  54.975  1.00  0.00     0.168 C 
BRANCH  23  24
HETATM   24  O3  UNL     1      22.179  -1.476  55.074  1.00  0.00    -0.401 OA
HETATM   25  H19 UNL     1      21.764  -1.116  55.918  1.00  0.00     0.209 HD
ENDBRANCH  23  24
ENDBRANCH  22  23
ENDBRANCH   2  22
BRANCH   7  26
HETATM   26  O5  UNL     1      30.466   0.264  53.515  1.00  0.00    -0.370 OA
HETATM   27  H25 UNL     1      30.724   0.716  52.667  1.00  0.00     0.212 HD
ENDBRANCH   7  26
TORSDOF 11
ENDMDL
MODEL 6
REMARK VINA RESULT:      -6.6      3.460      7.600
REMARK  11 active torsions:
REMARK  status: ('A' for Active; 'I' for Inactive)
REMARK    1  A    between atoms: C2_2  and  C3_3 
REMARK    2  A    between atoms: C3_3  and  C4_4 
REMARK    3  A    between atoms: C4_4  and  C5_5 
REMARK    4  A    between atoms: C5_5  and  N1_6 
REMARK       I    between atoms: N1_6  and  C6_7 
REMARK    5  A    between atoms: C6_7  and  C7_9 
REMARK    6  A    between atoms: C7_9  and  O2_10 
REMARK    7  A    between atoms: O2_10  and  C8_11 
REMARK    8  A    between atoms: C9_12  and  C10_13 
REMARK    9  A    between atoms: C10_13  and  C11_14 
REMARK   10  A    between atoms: C11_14  and  O3_15 
REMARK   11  A    between atoms: C15_20  and  O5_21 
ROOT
HETATM    1  C8  UNL     1      24.489   0.950  52.492  1.00  0.00     0.074 C 
HETATM    2  C9  UNL     1      24.582  -0.088  53.352  1.00  0.00    -0.038 C 
HETATM    3  C12 UNL     1      25.958   0.000  53.894  1.00  0.00     0.115 C 
HETATM    4  C13 UNL     1      26.848  -0.972  53.301  1.00  0.00     0.135 C 
HETATM    5  O4  UNL     1      26.332  -2.017  52.929  1.00  0.00    -0.298 OA
HETATM    6  C14 UNL     1      28.264  -0.535  53.235  1.00  0.00     0.139 C 
HETATM    7  C15 UNL     1      28.396   0.978  53.424  1.00  0.00     0.269 C 
HETATM    8  O6  UNL     1      27.525   1.662  52.689  1.00  0.00    -0.332 OA
HETATM    9  C16 UNL     1      26.702   2.309  51.996  1.00  0.00     0.141 C 
HETATM   10  C17 UNL     1      25.418   1.934  51.966  1.00  0.00     0.061 C 
ENDROOT
BRANCH   1  11
HETATM   11  O2  UNL     1      23.197   1.115  51.959  1.00  0.00    -0.342 OA
BRANCH  11  12
HETATM   12  C7  UNL     1      22.573   2.382  51.997  1.00  0.00     0.278 C 
BRANCH  12  13
HETATM   13  C6  UNL     1      21.105   2.107  52.215  1.00  0.00     0.241 C 
HETATM   14  N1  UNL     1      20.420   1.047  51.514  1.00  0.00    -0.359 N 
HETATM   15  H12 UNL     1      20.961   0.444  50.830  1.00  0.00     0.162 HD
HETATM   16  O1  UNL     1      20.298   2.703  52.979  1.00  0.00    -0.271 OA
BRANCH  14  17
HETATM   17  C5  UNL     1      19.025   0.981  51.884  1.00  0.00     0.122 C 
BRANCH  17  18
HETATM   18  C4  UNL     1      18.394  -0.258  51.286  1.00  0.00     0.020 C 
BRANCH  18  19
HETATM   19  C3  UNL     1      17.355  -0.803  52.239  1.00  0.00     0.001 C 
BRANCH  19  20
HETATM   20  C2  UNL     1      18.112  -1.445  53.401  1.00  0.00    -0.004 C 
HETATM   21  C1  UNL     1      17.624  -2.864  53.564  1.00  0.00     0.005 C 
ENDBRANCH  19  20
ENDBRANCH  18  19
ENDBRANCH  17  18
ENDBRANCH  14  17
ENDBRANCH  12  13
ENDBRANCH  11  12
ENDBRANCH   1  11
BRANCH   2  22
HETATM   22  C10 UNL     1      23.403  -0.921  53.630  1.00  0.00     0.063 C 
BRANCH  22  23
HETATM   23  C11 UNL     1      22.861  -0.733  55.029  1.00  0.00     0.168 C 
BRANCH  23  24
HETATM   24  O3  UNL     1      23.232  -1.776  55.849  1.00  0.00    -0.401 OA
HETATM   25  H19 UNL     1      23.207  -1.487  56.814  1.00  0.00     0.209 HD
ENDBRANCH  23  24
ENDBRANCH  22  23
ENDBRANCH   2  22
BRANCH   7  26
HETATM   26  O5  UNL     1      29.719   1.354  53.218  1.00  0.00    -0.370 OA
HETATM   27  H25 UNL     1      30.351   0.883  53.825  1.00  0.00     0.212 HD
ENDBRANCH   7  26
TORSDOF 11
ENDMDL
MODEL 7
REMARK VINA RESULT:      -6.5      2.792      5.559
REMARK  11 active torsions:
REMARK  status: ('A' for Active; 'I' for Inactive)
REMARK    1  A    between atoms: C2_2  and  C3_3 
REMARK    2  A    between atoms: C3_3  and  C4_4 
REMARK    3  A    between atoms: C4_4  and  C5_5 
REMARK    4  A    between atoms: C5_5  and  N1_6 
REMARK       I    between atoms: N1_6  and  C6_7 
REMARK    5  A    between atoms: C6_7  and  C7_9 
REMARK    6  A    between atoms: C7_9  and  O2_10 
REMARK    7  A    between atoms: O2_10  and  C8_11 
REMARK    8  A    between atoms: C9_12  and  C10_13 
REMARK    9  A    between atoms: C10_13  and  C11_14 
REMARK   10  A    between atoms: C11_14  and  O3_15 
REMARK   11  A    between atoms: C15_20  and  O5_21 
ROOT
HETATM    1  C8  UNL     1      24.740   1.083  52.573  1.00  0.00     0.074 C 
HETATM    2  C9  UNL     1      25.643   1.735  51.806  1.00  0.00    -0.038 C 
HETATM    3  C12 UNL     1      26.834   0.853  51.803  1.00  0.00     0.115 C 
HETATM    4  C13 UNL     1      27.877   1.332  52.681  1.00  0.00     0.135 C 
HETATM    5  O4  UNL     1      27.932   2.544  52.840  1.00  0.00    -0.298 OA
HETATM    6  C14 UNL     1      28.722   0.259  53.259  1.00  0.00     0.139 C 
HETATM    7  C15 UNL     1      28.057  -1.113  53.130  1.00  0.00     0.269 C 
HETATM    8  O6  UNL     1      26.779  -1.097  53.496  1.00  0.00    -0.332 OA
HETATM    9  C16 UNL     1      25.571  -1.082  53.841  1.00  0.00     0.141 C 
HETATM   10  C17 UNL     1      24.766  -0.109  53.401  1.00  0.00     0.061 C 
ENDROOT
BRANCH   1  11
HETATM   11  O2  UNL     1      23.479   1.709  52.597  1.00  0.00    -0.342 OA
BRANCH  11  12
HETATM   12  C7  UNL     1      22.310   0.935  52.771  1.00  0.00     0.278 C 
BRANCH  12  13
HETATM   13  C6  UNL     1      21.646   0.890  51.417  1.00  0.00     0.241 C 
HETATM   14  N1  UNL     1      22.304   1.391  50.233  1.00  0.00    -0.359 N 
HETATM   15  H12 UNL     1      23.279   1.799  50.315  1.00  0.00     0.162 HD
HETATM   16  O1  UNL     1      20.506   0.445  51.114  1.00  0.00    -0.271 OA
BRANCH  14  17
HETATM   17  C5  UNL     1      21.471   1.242  49.061  1.00  0.00     0.122 C 
BRANCH  17  18
HETATM   18  C4  UNL     1      22.202   1.770  47.845  1.00  0.00     0.020 C 
BRANCH  18  19
HETATM   19  C3  UNL     1      22.640   3.195  48.101  1.00  0.00     0.001 C 
BRANCH  19  20
HETATM   20  C2  UNL     1      21.726   4.096  47.270  1.00  0.00    -0.004 C 
HETATM   21  C1  UNL     1      21.860   3.703  45.819  1.00  0.00     0.005 C 
ENDBRANCH  19  20
ENDBRANCH  18  19
ENDBRANCH  17  18
ENDBRANCH  14  17
ENDBRANCH  12  13
ENDBRANCH  11  12
ENDBRANCH   1  11
BRANCH   2  22
HETATM   22  C10 UNL     1      25.264   2.977  51.118  1.00  0.00     0.063 C 
BRANCH  22  23
HETATM   23  C11 UNL     1      26.151   3.293  49.935  1.00  0.00     0.168 C 
BRANCH  23  24
HETATM   24  O3  UNL     1      27.277   3.983  50.330  1.00  0.00    -0.401 OA
HETATM   25  H19 UNL     1      27.092   4.973  50.347  1.00  0.00     0.209 HD
ENDBRANCH  23  24
ENDBRANCH  22  23
ENDBRANCH   2  22
BRANCH   7  26
HETATM   26  O5  UNL     1      28.820  -2.061  53.804  1.00  0.00    -0.370 OA
HETATM   27  H25 UNL     1      28.538  -2.178  54.751  1.00  0.00     0.212 HD
ENDBRANCH   7  26
TORSDOF 11
ENDMDL
MODEL 8
REMARK VINA RESULT:      -6.5      3.449      6.304
REMARK  11 active torsions:
REMARK  status: ('A' for Active; 'I' for Inactive)
REMARK    1  A    between atoms: C2_2  and  C3_3 
REMARK    2  A    between atoms: C3_3  and  C4_4 
REMARK    3  A    between atoms: C4_4  and  C5_5 
REMARK    4  A    between atoms: C5_5  and  N1_6 
REMARK       I    between atoms: N1_6  and  C6_7 
REMARK    5  A    between atoms: C6_7  and  C7_9 
REMARK    6  A    between atoms: C7_9  and  O2_10 
REMARK    7  A    between atoms: O2_10  and  C8_11 
REMARK    8  A    between atoms: C9_12  and  C10_13 
REMARK    9  A    between atoms: C10_13  and  C11_14 
REMARK   10  A    between atoms: C11_14  and  O3_15 
REMARK   11  A    between atoms: C15_20  and  O5_21 
ROOT
HETATM    1  C8  UNL     1      25.340   1.327  53.416  1.00  0.00     0.074 C 
HETATM    2  C9  UNL     1      25.204   0.041  53.808  1.00  0.00    -0.038 C 
HETATM    3  C12 UNL     1      26.576  -0.384  54.172  1.00  0.00     0.115 C 
HETATM    4  C13 UNL     1      27.185  -1.210  53.155  1.00  0.00     0.135 C 
HETATM    5  O4  UNL     1      26.420  -1.891  52.485  1.00  0.00    -0.298 OA
HETATM    6  C14 UNL     1      28.662  -1.092  53.085  1.00  0.00     0.139 C 
HETATM    7  C15 UNL     1      29.163   0.160  53.808  1.00  0.00     0.269 C 
HETATM    8  O6  UNL     1      28.462   1.245  53.494  1.00  0.00    -0.332 OA
HETATM    9  C16 UNL     1      27.800   2.270  53.198  1.00  0.00     0.141 C 
HETATM   10  C17 UNL     1      26.463   2.218  53.187  1.00  0.00     0.061 C 
ENDROOT
BRANCH   1  11
HETATM   11  O2  UNL     1      24.110   1.957  53.145  1.00  0.00    -0.342 OA
BRANCH  11  12
HETATM   12  C7  UNL     1      24.089   3.267  52.612  1.00  0.00     0.278 C 
BRANCH  12  13
HETATM   13  C6  UNL     1      23.399   3.151  51.276  1.00  0.00     0.241 C 
HETATM   14  N1  UNL     1      22.979   1.875  50.746  1.00  0.00    -0.359 N 
HETATM   15  H12 UNL     1      23.158   0.996  51.311  1.00  0.00     0.162 HD
HETATM   16  O1  UNL     1      23.097   4.068  50.464  1.00  0.00    -0.271 OA
BRANCH  14  17
HETATM   17  C5  UNL     1      22.348   2.019  49.454  1.00  0.00     0.122 C 
BRANCH  17  18
HETATM   18  C4  UNL     1      21.354   0.897  49.244  1.00  0.00     0.020 C 
BRANCH  18  19
HETATM   19  C3  UNL     1      20.016   1.295  49.825  1.00  0.00     0.001 C 
BRANCH  19  20
HETATM   20  C2  UNL     1      19.814   0.457  51.087  1.00  0.00    -0.004 C 
HETATM   21  C1  UNL     1      18.343   0.145  51.224  1.00  0.00     0.005 C 
ENDBRANCH  19  20
ENDBRANCH  18  19
ENDBRANCH  17  18
ENDBRANCH  14  17
ENDBRANCH  12  13
ENDBRANCH  11  12
ENDBRANCH   1  11
BRANCH   2  22
HETATM   22  C10 UNL     1      23.867  -0.564  53.896  1.00  0.00     0.063 C 
BRANCH  22  23
HETATM   23  C11 UNL     1      23.613  -1.249  55.221  1.00  0.00     0.168 C 
BRANCH  23  24
HETATM   24  O3  UNL     1      22.306  -1.677  55.314  1.00  0.00    -0.401 OA
HETATM   25  H19 UNL     1      21.702  -1.074  54.779  1.00  0.00     0.209 HD
ENDBRANCH  23  24
ENDBRANCH  22  23
ENDBRANCH   2  22
BRANCH   7  26
HETATM   26  O5  UNL     1      30.531   0.298  53.598  1.00  0.00    -0.370 OA
HETATM   27  H25 UNL     1      31.041  -0.522  53.837  1.00  0.00     0.212 HD
ENDBRANCH   7  26
TORSDOF 11
ENDMDL
MODEL 9
REMARK VINA RESULT:      -6.4      3.240      6.120
REMARK  11 active torsions:
REMARK  status: ('A' for Active; 'I' for Inactive)
REMARK    1  A    between atoms: C2_2  and  C3_3 
REMARK    2  A    between atoms: C3_3  and  C4_4 
REMARK    3  A    between atoms: C4_4  and  C5_5 
REMARK    4  A    between atoms: C5_5  and  N1_6 
REMARK       I    between atoms: N1_6  and  C6_7 
REMARK    5  A    between atoms: C6_7  and  C7_9 
REMARK    6  A    between atoms: C7_9  and  O2_10 
REMARK    7  A    between atoms: O2_10  and  C8_11 
REMARK    8  A    between atoms: C9_12  and  C10_13 
REMARK    9  A    between atoms: C10_13  and  C11_14 
REMARK   10  A    between atoms: C11_14  and  O3_15 
REMARK   11  A    between atoms: C15_20  and  O5_21 
ROOT
HETATM    1  C8  UNL     1      25.392   0.422  52.491  1.00  0.00     0.074 C 
HETATM    2  C9  UNL     1      25.978   1.626  52.307  1.00  0.00    -0.038 C 
HETATM    3  C12 UNL     1      27.431   1.349  52.385  1.00  0.00     0.115 C 
HETATM    4  C13 UNL     1      28.001   1.747  53.653  1.00  0.00     0.135 C 
HETATM    5  O4  UNL     1      27.461   2.690  54.213  1.00  0.00    -0.298 OA
HETATM    6  C14 UNL     1      29.165   0.929  54.075  1.00  0.00     0.139 C 
HETATM    7  C15 UNL     1      29.243  -0.386  53.297  1.00  0.00     0.269 C 
HETATM    8  O6  UNL     1      28.070  -1.008  53.228  1.00  0.00    -0.332 OA
HETATM    9  C16 UNL     1      26.962  -1.595  53.161  1.00  0.00     0.141 C 
HETATM   10  C17 UNL     1      25.862  -0.906  52.840  1.00  0.00     0.061 C 
ENDROOT
BRANCH   1  11
HETATM   11  O2  UNL     1      23.994   0.455  52.325  1.00  0.00    -0.342 OA
BRANCH  11  12
HETATM   12  C7  UNL     1      23.152  -0.118  53.305  1.00  0.00     0.278 C 
BRANCH  12  13
HETATM   13  C6  UNL     1      21.897   0.718  53.303  1.00  0.00     0.241 C 
HETATM   14  N1  UNL     1      21.685   1.767  52.333  1.00  0.00    -0.359 N 
HETATM   15  H12 UNL     1      22.430   1.954  51.601  1.00  0.00     0.162 HD
HETATM   16  O1  UNL     1      20.904   0.650  54.078  1.00  0.00    -0.271 OA
BRANCH  14  17
HETATM   17  C5  UNL     1      20.416   2.427  52.534  1.00  0.00     0.122 C 
BRANCH  17  18
HETATM   18  C4  UNL     1      20.438   3.789  51.874  1.00  0.00     0.020 C 
BRANCH  18  19
HETATM   19  C3  UNL     1      21.745   4.480  52.190  1.00  0.00     0.001 C 
BRANCH  19  20
HETATM   20  C2  UNL     1      21.770   5.775  51.378  1.00  0.00    -0.004 C 
HETATM   21  C1  UNL     1      23.209   6.144  51.110  1.00  0.00     0.005 C 
ENDBRANCH  19  20
ENDBRANCH  18  19
ENDBRANCH  17  18
ENDBRANCH  14  17
ENDBRANCH  12  13
ENDBRANCH  11  12
ENDBRANCH   1  11
BRANCH   2  22
HETATM   22  C10 UNL     1      25.157   2.804  51.988  1.00  0.00     0.063 C 
BRANCH  22  23
HETATM   23  C11 UNL     1      24.947   2.995  50.503  1.00  0.00     0.168 C 
BRANCH  23  24
HETATM   24  O3  UNL     1      23.726   2.495  50.106  1.00  0.00    -0.401 OA
HETATM   25  H19 UNL     1      22.982   3.086  50.440  1.00  0.00     0.209 HD
ENDBRANCH  23  24
ENDBRANCH  22  23
ENDBRANCH   2  22
BRANCH   7  26
HETATM   26  O5  UNL     1      30.263  -1.172  53.822  1.00  0.00    -0.370 OA
HETATM   27  H25 UNL     1      30.155  -2.136  53.604  1.00  0.00     0.212 HD
ENDBRANCH   7  26
TORSDOF 11
ENDMDL
