MODEL 1
REMARK VINA RESULT:      -7.9      0.000      0.000
REMARK  1 active torsions:
REMARK  status: ('A' for Active; 'I' for Inactive)
REMARK    1  A    between atoms: C10_15  and  C11_16 
ROOT
HETATM    1  N1  UNL     1      26.611   1.400  54.264  1.00  0.00    -0.192 NA
HETATM    2  C1  UNL     1      25.942   2.091  53.581  1.00  0.00     0.095 C 
HETATM    3  C2  UNL     1      25.096   2.945  52.754  1.00  0.00     0.025 A 
HETATM    4  C3  UNL     1      24.198   3.637  53.434  1.00  0.00     0.020 A 
HETATM    5  C4  UNL     1      23.364   4.483  52.591  1.00  0.00     0.029 A 
HETATM    6  C5  UNL     1      23.601   4.460  51.288  1.00  0.00     0.050 A 
HETATM    7  N2  UNL     1      22.661   5.360  50.703  1.00  0.00    -0.373 N 
HETATM    8  C6  UNL     1      22.117   5.419  49.353  1.00  0.00     0.269 C 
HETATM    9  N3  UNL     1      22.008   4.082  48.791  1.00  0.00    -0.250 N 
HETATM   10  N4  UNL     1      21.338   3.753  47.613  1.00  0.00    -0.171 NA
HETATM   11  C7  UNL     1      21.423   2.477  47.447  1.00  0.00     0.107 C 
HETATM   12  C8  UNL     1      22.225   1.873  48.308  1.00  0.00     0.067 C 
HETATM   13  C9  UNL     1      22.584   2.857  49.369  1.00  0.00     0.367 C 
HETATM   14  N5  UNL     1      24.005   3.051  49.345  1.00  0.00     0.132 N 
HETATM   15  C10 UNL     1      24.570   3.743  50.455  1.00  0.00     0.236 A 
HETATM   16  C17 UNL     1      25.407   2.857  51.323  1.00  0.00     0.103 A 
HETATM   17  H3  UNL     1      22.236   6.147  51.279  1.00  0.00     0.161 HD
HETATM   18  H8  UNL     1      24.247   3.519  48.462  1.00  0.00     0.321 HD
ENDROOT
BRANCH  15  19
HETATM   19  C11 UNL     1      25.514   4.772  49.868  1.00  0.00     0.025 A 
HETATM   20  C12 UNL     1      25.484   6.148  49.860  1.00  0.00     0.013 A 
HETATM   21  C13 UNL     1      26.500   6.820  49.239  1.00  0.00     0.001 A 
HETATM   22  C14 UNL     1      27.547   6.197  48.623  1.00  0.00     0.003 A 
HETATM   23  C15 UNL     1      27.588   4.818  48.624  1.00  0.00     0.043 A 
HETATM   24  C16 UNL     1      26.572   4.098  49.246  1.00  0.00     0.125 A 
HETATM   25  F1  UNL     1      26.769   2.760  49.153  1.00  0.00    -0.205 F 
ENDBRANCH  15  19
TORSDOF 1
ENDMDL
MODEL 2
REMARK VINA RESULT:      -7.6      2.488      4.722
REMARK  1 active torsions:
REMARK  status: ('A' for Active; 'I' for Inactive)
REMARK    1  A    between atoms: C10_15  and  C11_16 
ROOT
HETATM    1  N1  UNL     1      26.796   1.190  54.951  1.00  0.00    -0.192 NA
HETATM    2  C1  UNL     1      26.356   1.625  53.946  1.00  0.00     0.095 C 
HETATM    3  C2  UNL     1      25.837   2.165  52.694  1.00  0.00     0.025 A 
HETATM    4  C3  UNL     1      26.631   1.978  51.655  1.00  0.00     0.020 A 
HETATM    5  C4  UNL     1      26.095   2.523  50.415  1.00  0.00     0.029 A 
HETATM    6  C5  UNL     1      24.913   3.117  50.477  1.00  0.00     0.050 A 
HETATM    7  N2  UNL     1      24.625   3.556  49.150  1.00  0.00    -0.373 N 
HETATM    8  C6  UNL     1      23.760   4.626  48.671  1.00  0.00     0.269 C 
HETATM    9  N3  UNL     1      23.739   5.726  49.621  1.00  0.00    -0.250 N 
HETATM   10  N4  UNL     1      23.190   6.986  49.386  1.00  0.00    -0.171 NA
HETATM   11  C7  UNL     1      23.383   7.710  50.436  1.00  0.00     0.107 C 
HETATM   12  C8  UNL     1      23.879   7.045  51.465  1.00  0.00     0.067 C 
HETATM   13  C9  UNL     1      24.293   5.695  50.984  1.00  0.00     0.367 C 
HETATM   14  N5  UNL     1      23.526   4.708  51.689  1.00  0.00     0.132 N 
HETATM   15  C10 UNL     1      23.965   3.358  51.568  1.00  0.00     0.236 A 
HETATM   16  C17 UNL     1      24.532   2.818  52.843  1.00  0.00     0.103 A 
HETATM   17  H3  UNL     1      25.076   3.079  48.313  1.00  0.00     0.161 HD
HETATM   18  H8  UNL     1      22.545   4.800  51.397  1.00  0.00     0.321 HD
ENDROOT
BRANCH  15  19
HETATM   19  C11 UNL     1      22.723   2.542  51.279  1.00  0.00     0.025 A 
HETATM   20  C12 UNL     1      22.516   1.427  50.497  1.00  0.00     0.013 A 
HETATM   21  C13 UNL     1      21.257   0.899  50.434  1.00  0.00     0.001 A 
HETATM   22  C14 UNL     1      20.188   1.419  51.106  1.00  0.00     0.003 A 
HETATM   23  C15 UNL     1      20.383   2.535  51.892  1.00  0.00     0.043 A 
HETATM   24  C16 UNL     1      21.651   3.102  51.984  1.00  0.00     0.125 A 
HETATM   25  F1  UNL     1      21.662   4.188  52.795  1.00  0.00    -0.205 F 
ENDBRANCH  15  19
TORSDOF 1
ENDMDL
MODEL 3
REMARK VINA RESULT:      -7.6      8.322     10.298
REMARK  1 active torsions:
REMARK  status: ('A' for Active; 'I' for Inactive)
REMARK    1  A    between atoms: C10_15  and  C11_16 
ROOT
HETATM    1  N1  UNL     1      31.920   0.146  46.707  1.00  0.00    -0.192 NA
HETATM    2  C1  UNL     1      32.418   1.207  46.842  1.00  0.00     0.095 C 
HETATM    3  C2  UNL     1      33.044   2.511  47.030  1.00  0.00     0.025 A 
HETATM    4  C3  UNL     1      34.132   2.485  47.781  1.00  0.00     0.020 A 
HETATM    5  C4  UNL     1      34.743   3.795  47.956  1.00  0.00     0.029 A 
HETATM    6  C5  UNL     1      34.155   4.821  47.359  1.00  0.00     0.050 A 
HETATM    7  N2  UNL     1      34.939   5.967  47.687  1.00  0.00    -0.373 N 
HETATM    8  C6  UNL     1      34.583   7.379  47.736  1.00  0.00     0.269 C 
HETATM    9  N3  UNL     1      33.195   7.538  48.140  1.00  0.00    -0.250 N 
HETATM   10  N4  UNL     1      32.590   8.745  48.491  1.00  0.00    -0.171 NA
HETATM   11  C7  UNL     1      31.368   8.498  48.823  1.00  0.00     0.107 C 
HETATM   12  C8  UNL     1      30.988   7.253  48.594  1.00  0.00     0.067 C 
HETATM   13  C9  UNL     1      32.202   6.458  48.248  1.00  0.00     0.367 C 
HETATM   14  N5  UNL     1      32.043   5.947  46.917  1.00  0.00     0.132 N 
HETATM   15  C10 UNL     1      32.969   4.944  46.508  1.00  0.00     0.236 A 
HETATM   16  C17 UNL     1      32.332   3.599  46.351  1.00  0.00     0.103 A 
HETATM   17  H3  UNL     1      35.963   5.863  47.955  1.00  0.00     0.161 HD
HETATM   18  H8  UNL     1      32.057   6.743  46.267  1.00  0.00     0.321 HD
ENDROOT
BRANCH  15  19
HETATM   19  C11 UNL     1      33.440   5.351  45.127  1.00  0.00     0.025 A 
HETATM   20  C12 UNL     1      34.492   4.918  44.350  1.00  0.00     0.013 A 
HETATM   21  C13 UNL     1      34.668   5.483  43.118  1.00  0.00     0.001 A 
HETATM   22  C14 UNL     1      33.854   6.456  42.613  1.00  0.00     0.003 A 
HETATM   23  C15 UNL     1      32.797   6.898  43.382  1.00  0.00     0.043 A 
HETATM   24  C16 UNL     1      32.584   6.347  44.642  1.00  0.00     0.125 A 
HETATM   25  F1  UNL     1      31.507   6.894  45.258  1.00  0.00    -0.205 F 
ENDBRANCH  15  19
TORSDOF 1
ENDMDL
MODEL 4
REMARK VINA RESULT:      -7.4      2.795      6.311
REMARK  1 active torsions:
REMARK  status: ('A' for Active; 'I' for Inactive)
REMARK    1  A    between atoms: C10_15  and  C11_16 
ROOT
HETATM    1  N1  UNL     1      22.190   2.825  47.010  1.00  0.00    -0.192 NA
HETATM    2  C1  UNL     1      22.571   2.919  48.123  1.00  0.00     0.095 C 
HETATM    3  C2  UNL     1      23.053   3.058  49.493  1.00  0.00     0.025 A 
HETATM    4  C3  UNL     1      23.223   4.310  49.882  1.00  0.00     0.020 A 
HETATM    5  C4  UNL     1      23.703   4.427  51.251  1.00  0.00     0.029 A 
HETATM    6  C5  UNL     1      23.903   3.302  51.921  1.00  0.00     0.050 A 
HETATM    7  N2  UNL     1      24.367   3.691  53.213  1.00  0.00    -0.373 N 
HETATM    8  C6  UNL     1      25.168   2.969  54.192  1.00  0.00     0.269 C 
HETATM    9  N3  UNL     1      26.107   2.083  53.524  1.00  0.00    -0.250 N 
HETATM   10  N4  UNL     1      27.159   1.407  54.142  1.00  0.00    -0.171 NA
HETATM   11  C7  UNL     1      27.797   0.745  53.237  1.00  0.00     0.107 C 
HETATM   12  C8  UNL     1      27.212   0.751  52.051  1.00  0.00     0.067 C 
HETATM   13  C9  UNL     1      26.107   1.752  52.089  1.00  0.00     0.367 C 
HETATM   14  N5  UNL     1      24.868   1.069  51.853  1.00  0.00     0.132 N 
HETATM   15  C10 UNL     1      23.734   1.887  51.582  1.00  0.00     0.236 A 
HETATM   16  C17 UNL     1      23.263   1.771  50.166  1.00  0.00     0.103 A 
HETATM   17  H3  UNL     1      24.137   4.654  53.602  1.00  0.00     0.161 HD
HETATM   18  H8  UNL     1      24.688   0.450  52.654  1.00  0.00     0.321 HD
ENDROOT
BRANCH  15  19
HETATM   19  C11 UNL     1      22.613   1.343  52.444  1.00  0.00     0.025 A 
HETATM   20  C12 UNL     1      21.361   1.833  52.739  1.00  0.00     0.013 A 
HETATM   21  C13 UNL     1      20.552   1.101  53.564  1.00  0.00     0.001 A 
HETATM   22  C14 UNL     1      20.921  -0.093  54.114  1.00  0.00     0.003 A 
HETATM   23  C15 UNL     1      22.174  -0.593  53.826  1.00  0.00     0.043 A 
HETATM   24  C16 UNL     1      23.026   0.122  52.989  1.00  0.00     0.125 A 
HETATM   25  F1  UNL     1      24.212  -0.512  52.813  1.00  0.00    -0.205 F 
ENDBRANCH  15  19
TORSDOF 1
ENDMDL
MODEL 5
REMARK VINA RESULT:      -7.1      3.761      6.335
REMARK  1 active torsions:
REMARK  status: ('A' for Active; 'I' for Inactive)
REMARK    1  A    between atoms: C10_15  and  C11_16 
ROOT
HETATM    1  N1  UNL     1      16.665  -0.481  49.578  1.00  0.00    -0.192 NA
HETATM    2  C1  UNL     1      17.457   0.236  50.078  1.00  0.00     0.095 C 
HETATM    3  C2  UNL     1      18.421   1.143  50.691  1.00  0.00     0.025 A 
HETATM    4  C3  UNL     1      17.899   2.281  51.115  1.00  0.00     0.020 A 
HETATM    5  C4  UNL     1      18.876   3.172  51.724  1.00  0.00     0.029 A 
HETATM    6  C5  UNL     1      20.130   2.747  51.780  1.00  0.00     0.050 A 
HETATM    7  N2  UNL     1      20.870   3.791  52.410  1.00  0.00    -0.373 N 
HETATM    8  C6  UNL     1      22.286   4.126  52.341  1.00  0.00     0.269 C 
HETATM    9  N3  UNL     1      22.822   3.798  51.029  1.00  0.00    -0.250 N 
HETATM   10  N4  UNL     1      24.076   4.177  50.551  1.00  0.00    -0.171 NA
HETATM   11  C7  UNL     1      24.194   3.738  49.344  1.00  0.00     0.107 C 
HETATM   12  C8  UNL     1      23.209   2.943  48.960  1.00  0.00     0.067 C 
HETATM   13  C9  UNL     1      22.133   3.015  49.991  1.00  0.00     0.367 C 
HETATM   14  N5  UNL     1      21.954   1.706  50.550  1.00  0.00     0.132 N 
HETATM   15  C10 UNL     1      20.793   1.512  51.352  1.00  0.00     0.236 A 
HETATM   16  C17 UNL     1      19.788   0.611  50.706  1.00  0.00     0.103 A 
HETATM   17  H3  UNL     1      20.385   4.487  53.051  1.00  0.00     0.161 HD
HETATM   18  H8  UNL     1      22.804   1.466  51.076  1.00  0.00     0.321 HD
ENDROOT
BRANCH  15  19
HETATM   19  C11 UNL     1      21.263   0.793  52.599  1.00  0.00     0.025 A 
HETATM   20  C12 UNL     1      20.625   0.489  53.781  1.00  0.00     0.013 A 
HETATM   21  C13 UNL     1      21.322  -0.186  54.744  1.00  0.00     0.001 A 
HETATM   22  C14 UNL     1      22.622  -0.577  54.597  1.00  0.00     0.003 A 
HETATM   23  C15 UNL     1      23.272  -0.278  53.417  1.00  0.00     0.043 A 
HETATM   24  C16 UNL     1      22.596   0.407  52.412  1.00  0.00     0.125 A 
HETATM   25  F1  UNL     1      23.380   0.616  51.326  1.00  0.00    -0.205 F 
ENDBRANCH  15  19
TORSDOF 1
ENDMDL
MODEL 6
REMARK VINA RESULT:      -7.1      2.138      4.533
REMARK  1 active torsions:
REMARK  status: ('A' for Active; 'I' for Inactive)
REMARK    1  A    between atoms: C10_15  and  C11_16 
ROOT
HETATM    1  N1  UNL     1      28.152   6.954  48.021  1.00  0.00    -0.192 NA
HETATM    2  C1  UNL     1      27.173   6.694  48.624  1.00  0.00     0.095 C 
HETATM    3  C2  UNL     1      25.970   6.386  49.390  1.00  0.00     0.025 A 
HETATM    4  C3  UNL     1      25.679   7.277  50.323  1.00  0.00     0.020 A 
HETATM    5  C4  UNL     1      24.476   6.952  51.075  1.00  0.00     0.029 A 
HETATM    6  C5  UNL     1      23.837   5.841  50.743  1.00  0.00     0.050 A 
HETATM    7  N2  UNL     1      22.714   5.757  51.620  1.00  0.00    -0.373 N 
HETATM    8  C6  UNL     1      21.937   4.607  52.062  1.00  0.00     0.269 C 
HETATM    9  N3  UNL     1      22.784   3.429  52.154  1.00  0.00    -0.250 N 
HETATM   10  N4  UNL     1      22.421   2.217  52.742  1.00  0.00    -0.171 NA
HETATM   11  C7  UNL     1      23.432   1.418  52.669  1.00  0.00     0.107 C 
HETATM   12  C8  UNL     1      24.436   1.882  51.945  1.00  0.00     0.067 C 
HETATM   13  C9  UNL     1      24.162   3.318  51.647  1.00  0.00     0.367 C 
HETATM   14  N5  UNL     1      24.061   3.474  50.224  1.00  0.00     0.132 N 
HETATM   15  C10 UNL     1      24.072   4.809  49.730  1.00  0.00     0.236 A 
HETATM   16  C17 UNL     1      25.324   5.136  48.976  1.00  0.00     0.103 A 
HETATM   17  H3  UNL     1      22.314   6.634  52.071  1.00  0.00     0.161 HD
HETATM   18  H8  UNL     1      23.219   2.975  49.909  1.00  0.00     0.321 HD
ENDROOT
BRANCH  15  19
HETATM   19  C11 UNL     1      22.942   4.891  48.725  1.00  0.00     0.025 A 
HETATM   20  C12 UNL     1      22.133   5.935  48.335  1.00  0.00     0.013 A 
HETATM   21  C13 UNL     1      21.180   5.701  47.383  1.00  0.00     0.001 A 
HETATM   22  C14 UNL     1      20.985   4.484  46.797  1.00  0.00     0.003 A 
HETATM   23  C15 UNL     1      21.789   3.430  47.180  1.00  0.00     0.043 A 
HETATM   24  C16 UNL     1      22.772   3.629  48.145  1.00  0.00     0.125 A 
HETATM   25  F1  UNL     1      23.466   2.493  48.401  1.00  0.00    -0.205 F 
ENDBRANCH  15  19
TORSDOF 1
ENDMDL
MODEL 7
REMARK VINA RESULT:      -7.0      2.347      4.053
REMARK  1 active torsions:
REMARK  status: ('A' for Active; 'I' for Inactive)
REMARK    1  A    between atoms: C10_15  and  C11_16 
ROOT
HETATM    1  N1  UNL     1      19.411   0.250  50.887  1.00  0.00    -0.192 NA
HETATM    2  C1  UNL     1      20.096   1.191  51.077  1.00  0.00     0.095 C 
HETATM    3  C2  UNL     1      20.921   2.369  51.318  1.00  0.00     0.025 A 
HETATM    4  C3  UNL     1      20.381   3.248  52.145  1.00  0.00     0.020 A 
HETATM    5  C4  UNL     1      21.221   4.416  52.373  1.00  0.00     0.029 A 
HETATM    6  C5  UNL     1      22.388   4.453  51.748  1.00  0.00     0.050 A 
HETATM    7  N2  UNL     1      23.001   5.683  52.135  1.00  0.00    -0.373 N 
HETATM    8  C6  UNL     1      24.013   6.491  51.468  1.00  0.00     0.269 C 
HETATM    9  N3  UNL     1      23.874   6.387  50.025  1.00  0.00    -0.250 N 
HETATM   10  N4  UNL     1      24.534   7.185  49.091  1.00  0.00    -0.171 NA
HETATM   11  C7  UNL     1      24.143   6.831  47.914  1.00  0.00     0.107 C 
HETATM   12  C8  UNL     1      23.384   5.748  47.900  1.00  0.00     0.067 C 
HETATM   13  C9  UNL     1      23.018   5.426  49.310  1.00  0.00     0.367 C 
HETATM   14  N5  UNL     1      23.542   4.130  49.630  1.00  0.00     0.132 N 
HETATM   15  C10 UNL     1      23.069   3.533  50.834  1.00  0.00     0.236 A 
HETATM   16  C17 UNL     1      22.191   2.347  50.584  1.00  0.00     0.103 A 
HETATM   17  H3  UNL     1      22.730   6.157  53.048  1.00  0.00     0.161 HD
HETATM   18  H8  UNL     1      24.568   4.195  49.635  1.00  0.00     0.321 HD
ENDROOT
BRANCH  15  19
HETATM   19  C11 UNL     1      24.295   3.007  51.548  1.00  0.00     0.025 A 
HETATM   20  C12 UNL     1      24.534   2.719  52.873  1.00  0.00     0.013 A 
HETATM   21  C13 UNL     1      25.767   2.244  53.226  1.00  0.00     0.001 A 
HETATM   22  C14 UNL     1      26.778   2.039  52.331  1.00  0.00     0.003 A 
HETATM   23  C15 UNL     1      26.551   2.324  51.001  1.00  0.00     0.043 A 
HETATM   24  C16 UNL     1      25.308   2.808  50.603  1.00  0.00     0.125 A 
HETATM   25  F1  UNL     1      25.258   3.034  49.266  1.00  0.00    -0.205 F 
ENDBRANCH  15  19
TORSDOF 1
ENDMDL
MODEL 8
REMARK VINA RESULT:      -6.8      2.602      6.129
REMARK  1 active torsions:
REMARK  status: ('A' for Active; 'I' for Inactive)
REMARK    1  A    between atoms: C10_15  and  C11_16 
ROOT
HETATM    1  N1  UNL     1      21.942   3.617  45.057  1.00  0.00    -0.192 NA
HETATM    2  C1  UNL     1      22.041   3.823  46.214  1.00  0.00     0.095 C 
HETATM    3  C2  UNL     1      22.176   4.100  47.640  1.00  0.00     0.025 A 
HETATM    4  C3  UNL     1      22.325   5.381  47.930  1.00  0.00     0.020 A 
HETATM    5  C4  UNL     1      22.457   5.637  49.358  1.00  0.00     0.029 A 
HETATM    6  C5  UNL     1      22.410   4.590  50.167  1.00  0.00     0.050 A 
HETATM    7  N2  UNL     1      22.563   5.107  51.488  1.00  0.00    -0.373 N 
HETATM    8  C6  UNL     1      23.047   4.472  52.706  1.00  0.00     0.269 C 
HETATM    9  N3  UNL     1      24.063   3.481  52.393  1.00  0.00    -0.250 N 
HETATM   10  N4  UNL     1      24.882   2.841  53.323  1.00  0.00    -0.171 NA
HETATM   11  C7  UNL     1      25.679   2.056  52.682  1.00  0.00     0.107 C 
HETATM   12  C8  UNL     1      25.408   1.948  51.392  1.00  0.00     0.067 C 
HETATM   13  C9  UNL     1      24.396   2.988  51.047  1.00  0.00     0.367 C 
HETATM   14  N5  UNL     1      23.213   2.329  50.574  1.00  0.00     0.132 N 
HETATM   15  C10 UNL     1      22.238   3.152  49.942  1.00  0.00     0.236 A 
HETATM   16  C17 UNL     1      22.127   2.893  48.472  1.00  0.00     0.103 A 
HETATM   17  H3  UNL     1      22.307   6.117  51.706  1.00  0.00     0.161 HD
HETATM   18  H8  UNL     1      22.800   1.813  51.361  1.00  0.00     0.321 HD
ENDROOT
BRANCH  15  19
HETATM   19  C11 UNL     1      20.905   2.754  50.542  1.00  0.00     0.025 A 
HETATM   20  C12 UNL     1      19.871   3.501  51.060  1.00  0.00     0.013 A 
HETATM   21  C13 UNL     1      18.769   2.847  51.537  1.00  0.00     0.001 A 
HETATM   22  C14 UNL     1      18.638   1.488  51.527  1.00  0.00     0.003 A 
HETATM   23  C15 UNL     1      19.668   0.729  51.011  1.00  0.00     0.043 A 
HETATM   24  C16 UNL     1      20.806   1.358  50.515  1.00  0.00     0.125 A 
HETATM   25  F1  UNL     1      21.715   0.466  50.048  1.00  0.00    -0.205 F 
ENDBRANCH  15  19
TORSDOF 1
ENDMDL
MODEL 9
REMARK VINA RESULT:      -6.8      2.373      4.841
REMARK  1 active torsions:
REMARK  status: ('A' for Active; 'I' for Inactive)
REMARK    1  A    between atoms: C10_15  and  C11_16 
ROOT
HETATM    1  N1  UNL     1      18.740   3.251  51.943  1.00  0.00    -0.192 NA
HETATM    2  C1  UNL     1      19.838   3.202  51.514  1.00  0.00     0.095 C 
HETATM    3  C2  UNL     1      21.191   3.116  50.976  1.00  0.00     0.025 A 
HETATM    4  C3  UNL     1      21.322   2.259  49.978  1.00  0.00     0.020 A 
HETATM    5  C4  UNL     1      22.679   2.189  49.454  1.00  0.00     0.029 A 
HETATM    6  C5  UNL     1      23.587   2.969  50.020  1.00  0.00     0.050 A 
HETATM    7  N2  UNL     1      24.811   2.709  49.333  1.00  0.00    -0.373 N 
HETATM    8  C6  UNL     1      26.193   2.877  49.759  1.00  0.00     0.269 C 
HETATM    9  N3  UNL     1      26.315   2.643  51.189  1.00  0.00    -0.250 N 
HETATM   10  N4  UNL     1      27.516   2.513  51.886  1.00  0.00    -0.171 NA
HETATM   11  C7  UNL     1      27.237   2.281  53.124  1.00  0.00     0.107 C 
HETATM   12  C8  UNL     1      25.952   2.388  53.417  1.00  0.00     0.067 C 
HETATM   13  C9  UNL     1      25.197   2.503  52.136  1.00  0.00     0.367 C 
HETATM   14  N5  UNL     1      24.520   3.767  52.121  1.00  0.00     0.132 N 
HETATM   15  C10 UNL     1      23.534   3.948  51.109  1.00  0.00     0.236 A 
HETATM   16  C17 UNL     1      22.143   3.998  51.659  1.00  0.00     0.103 A 
HETATM   17  H3  UNL     1      24.802   2.326  48.341  1.00  0.00     0.161 HD
HETATM   18  H8  UNL     1      25.231   4.508  52.073  1.00  0.00     0.321 HD
ENDROOT
BRANCH  15  19
HETATM   19  C11 UNL     1      23.798   5.312  50.508  1.00  0.00     0.025 A 
HETATM   20  C12 UNL     1      23.839   5.750  49.203  1.00  0.00     0.013 A 
HETATM   21  C13 UNL     1      24.106   7.069  48.965  1.00  0.00     0.001 A 
HETATM   22  C14 UNL     1      24.336   7.981  49.955  1.00  0.00     0.003 A 
HETATM   23  C15 UNL     1      24.298   7.554  51.267  1.00  0.00     0.043 A 
HETATM   24  C16 UNL     1      24.029   6.218  51.550  1.00  0.00     0.125 A 
HETATM   25  F1  UNL     1      24.030   5.974  52.883  1.00  0.00    -0.205 F 
ENDBRANCH  15  19
TORSDOF 1
ENDMDL
