MODEL 1
REMARK VINA RESULT:      -8.4      0.000      0.000
REMARK  2 active torsions:
REMARK  status: ('A' for Active; 'I' for Inactive)
REMARK    1  A    between atoms: C8_12  and  C9_13 
REMARK    2  A    between atoms: C9_13  and  C10_14 
ROOT
HETATM    1  N1  UNL     1      22.983  -0.893  54.630  1.00  0.00    -0.196 NA
HETATM    2  C1  UNL     1      23.850  -0.651  53.888  1.00  0.00     0.074 C 
HETATM    3  C2  UNL     1      24.947  -0.329  52.966  1.00  0.00     0.165 A 
HETATM    4  C3  UNL     1      25.952  -1.411  53.114  1.00  0.00     0.114 A 
HETATM    5  N2  UNL     1      27.205  -1.352  53.446  1.00  0.00    -0.261 NA
HETATM    6  C4  UNL     1      27.688  -0.018  53.711  1.00  0.00     0.093 A 
HETATM    7  C5  UNL     1      28.948   0.189  54.060  1.00  0.00     0.056 A 
HETATM    8  C6  UNL     1      29.371   1.563  54.315  1.00  0.00     0.149 A 
HETATM    9  N3  UNL     1      28.585   2.602  54.219  1.00  0.00    -0.140 NA
HETATM   10  O1  UNL     1      27.273   2.406  53.857  1.00  0.00    -0.211 OA
HETATM   11  C7  UNL     1      26.788   1.123  53.596  1.00  0.00     0.134 A 
HETATM   12  C8  UNL     1      25.519   1.001  53.255  1.00  0.00    -0.015 A 
ENDROOT
BRANCH  12  13
HETATM   13  C9  UNL     1      24.593   2.166  53.135  1.00  0.00     0.077 C 
BRANCH  13  14
HETATM   14  C10 UNL     1      24.204   2.413  51.715  1.00  0.00    -0.052 A 
HETATM   15  C11 UNL     1      24.926   3.200  50.842  1.00  0.00     0.010 A 
HETATM   16  C12 UNL     1      24.537   3.409  49.534  1.00  0.00     0.044 A 
HETATM   17  C13 UNL     1      23.370   2.785  49.118  1.00  0.00     0.138 A 
HETATM   18  F1  UNL     1      22.950   2.967  47.824  1.00  0.00    -0.204 F 
HETATM   19  C14 UNL     1      22.589   1.981  49.925  1.00  0.00     0.073 A 
HETATM   20 CL1  UNL     1      21.123   1.214  49.356  1.00  0.00    -0.081 Cl
HETATM   21  C15 UNL     1      23.038   1.817  51.220  1.00  0.00     0.034 A 
ENDBRANCH  13  14
ENDBRANCH  12  13
TORSDOF 2
ENDMDL
MODEL 2
REMARK VINA RESULT:      -8.3      3.116      4.389
REMARK  2 active torsions:
REMARK  status: ('A' for Active; 'I' for Inactive)
REMARK    1  A    between atoms: C8_12  and  C9_13 
REMARK    2  A    between atoms: C9_13  and  C10_14 
ROOT
HETATM    1  N1  UNL     1      26.757   3.074  50.624  1.00  0.00    -0.196 NA
HETATM    2  C1  UNL     1      26.790   2.487  51.632  1.00  0.00     0.074 C 
HETATM    3  C2  UNL     1      26.834   1.731  52.890  1.00  0.00     0.165 A 
HETATM    4  C3  UNL     1      28.100   2.111  53.565  1.00  0.00     0.114 A 
HETATM    5  N2  UNL     1      29.097   1.377  53.953  1.00  0.00    -0.261 NA
HETATM    6  C4  UNL     1      28.940  -0.031  53.679  1.00  0.00     0.093 A 
HETATM    7  C5  UNL     1      29.882  -0.896  54.022  1.00  0.00     0.056 A 
HETATM    8  C6  UNL     1      29.661  -2.306  53.715  1.00  0.00     0.149 A 
HETATM    9  N3  UNL     1      28.592  -2.769  53.125  1.00  0.00    -0.140 NA
HETATM   10  O1  UNL     1      27.603  -1.885  52.762  1.00  0.00    -0.211 OA
HETATM   11  C7  UNL     1      27.736  -0.520  53.019  1.00  0.00     0.134 A 
HETATM   12  C8  UNL     1      26.752   0.277  52.645  1.00  0.00    -0.015 A 
ENDROOT
BRANCH  12  13
HETATM   13  C9  UNL     1      25.517  -0.218  51.970  1.00  0.00     0.077 C 
BRANCH  13  14
HETATM   14  C10 UNL     1      24.332  -0.149  52.875  1.00  0.00    -0.052 A 
HETATM   15  C11 UNL     1      24.216  -0.860  54.051  1.00  0.00     0.010 A 
HETATM   16  C12 UNL     1      23.104  -0.774  54.865  1.00  0.00     0.044 A 
HETATM   17  C13 UNL     1      22.086   0.072  54.452  1.00  0.00     0.138 A 
HETATM   18  F1  UNL     1      20.964   0.186  55.234  1.00  0.00    -0.204 F 
HETATM   19  C14 UNL     1      22.120   0.820  53.291  1.00  0.00     0.073 A 
HETATM   20 CL1  UNL     1      20.811   1.875  52.809  1.00  0.00    -0.081 Cl
HETATM   21  C15 UNL     1      23.262   0.684  52.526  1.00  0.00     0.034 A 
ENDBRANCH  13  14
ENDBRANCH  12  13
TORSDOF 2
ENDMDL
MODEL 3
REMARK VINA RESULT:      -7.9      3.867      6.273
REMARK  2 active torsions:
REMARK  status: ('A' for Active; 'I' for Inactive)
REMARK    1  A    between atoms: C8_12  and  C9_13 
REMARK    2  A    between atoms: C9_13  and  C10_14 
ROOT
HETATM    1  N1  UNL     1      23.817   4.244  52.083  1.00  0.00    -0.196 NA
HETATM    2  C1  UNL     1      23.803   3.091  51.904  1.00  0.00     0.074 C 
HETATM    3  C2  UNL     1      23.782   1.637  51.699  1.00  0.00     0.165 A 
HETATM    4  C3  UNL     1      22.483   1.321  51.054  1.00  0.00     0.114 A 
HETATM    5  N2  UNL     1      21.527   0.532  51.438  1.00  0.00    -0.261 NA
HETATM    6  C4  UNL     1      21.775  -0.138  52.691  1.00  0.00     0.093 A 
HETATM    7  C5  UNL     1      20.883  -0.973  53.201  1.00  0.00     0.056 A 
HETATM    8  C6  UNL     1      21.197  -1.617  54.473  1.00  0.00     0.149 A 
HETATM    9  N3  UNL     1      22.303  -1.424  55.139  1.00  0.00    -0.140 NA
HETATM   10  O1  UNL     1      23.241  -0.561  54.625  1.00  0.00    -0.211 OA
HETATM   11  C7  UNL     1      23.019   0.096  53.414  1.00  0.00     0.134 A 
HETATM   12  C8  UNL     1      23.959   0.913  52.974  1.00  0.00    -0.015 A 
ENDROOT
BRANCH  12  13
HETATM   13  C9  UNL     1      25.234   1.157  53.709  1.00  0.00     0.077 C 
BRANCH  13  14
HETATM   14  C10 UNL     1      26.253   0.110  53.401  1.00  0.00    -0.052 A 
HETATM   15  C11 UNL     1      25.956  -1.120  52.855  1.00  0.00     0.010 A 
HETATM   16  C12 UNL     1      26.925  -2.066  52.583  1.00  0.00     0.044 A 
HETATM   17  C13 UNL     1      28.236  -1.729  52.884  1.00  0.00     0.138 A 
HETATM   18  F1  UNL     1      29.228  -2.642  52.627  1.00  0.00    -0.204 F 
HETATM   19  C14 UNL     1      28.620  -0.521  53.431  1.00  0.00     0.073 A 
HETATM   20 CL1  UNL     1      30.288  -0.137  53.795  1.00  0.00    -0.081 Cl
HETATM   21  C15 UNL     1      27.600   0.377  53.676  1.00  0.00     0.034 A 
ENDBRANCH  13  14
ENDBRANCH  12  13
TORSDOF 2
ENDMDL
MODEL 4
REMARK VINA RESULT:      -7.4      2.818      3.851
REMARK  2 active torsions:
REMARK  status: ('A' for Active; 'I' for Inactive)
REMARK    1  A    between atoms: C8_12  and  C9_13 
REMARK    2  A    between atoms: C9_13  and  C10_14 
ROOT
HETATM    1  N1  UNL     1      20.163   2.947  52.701  1.00  0.00    -0.196 NA
HETATM    2  C1  UNL     1      21.128   2.429  52.301  1.00  0.00     0.074 C 
HETATM    3  C2  UNL     1      22.355   1.785  51.814  1.00  0.00     0.165 A 
HETATM    4  C3  UNL     1      22.242   0.346  52.161  1.00  0.00     0.114 A 
HETATM    5  N2  UNL     1      23.018  -0.407  52.878  1.00  0.00    -0.261 NA
HETATM    6  C4  UNL     1      24.171   0.271  53.419  1.00  0.00     0.093 A 
HETATM    7  C5  UNL     1      25.048  -0.377  54.170  1.00  0.00     0.056 A 
HETATM    8  C6  UNL     1      26.192   0.370  54.686  1.00  0.00     0.149 A 
HETATM    9  N3  UNL     1      26.406   1.636  54.453  1.00  0.00    -0.140 NA
HETATM   10  O1  UNL     1      25.506   2.326  53.676  1.00  0.00    -0.211 OA
HETATM   11  C7  UNL     1      24.385   1.687  53.143  1.00  0.00     0.134 A 
HETATM   12  C8  UNL     1      23.558   2.404  52.405  1.00  0.00    -0.015 A 
ENDROOT
BRANCH  12  13
HETATM   13  C9  UNL     1      23.772   3.853  52.119  1.00  0.00     0.077 C 
BRANCH  13  14
HETATM   14  C10 UNL     1      24.799   4.056  51.054  1.00  0.00    -0.052 A 
HETATM   15  C11 UNL     1      25.571   3.045  50.524  1.00  0.00     0.010 A 
HETATM   16  C12 UNL     1      26.514   3.268  49.539  1.00  0.00     0.044 A 
HETATM   17  C13 UNL     1      26.659   4.572  49.091  1.00  0.00     0.138 A 
HETATM   18  F1  UNL     1      27.585   4.835  48.113  1.00  0.00    -0.204 F 
HETATM   19  C14 UNL     1      25.927   5.642  49.567  1.00  0.00     0.073 A 
HETATM   20 CL1  UNL     1      26.145   7.274  48.973  1.00  0.00    -0.081 Cl
HETATM   21  C15 UNL     1      25.004   5.346  50.550  1.00  0.00     0.034 A 
ENDBRANCH  13  14
ENDBRANCH  12  13
TORSDOF 2
ENDMDL
MODEL 5
REMARK VINA RESULT:      -7.4      2.625      4.490
REMARK  2 active torsions:
REMARK  status: ('A' for Active; 'I' for Inactive)
REMARK    1  A    between atoms: C8_12  and  C9_13 
REMARK    2  A    between atoms: C9_13  and  C10_14 
ROOT
HETATM    1  N1  UNL     1      27.231  -1.812  53.040  1.00  0.00    -0.196 NA
HETATM    2  C1  UNL     1      26.436  -1.106  53.520  1.00  0.00     0.074 C 
HETATM    3  C2  UNL     1      25.423  -0.220  54.108  1.00  0.00     0.165 A 
HETATM    4  C3  UNL     1      24.829  -0.959  55.251  1.00  0.00     0.114 A 
HETATM    5  N2  UNL     1      23.598  -1.294  55.484  1.00  0.00    -0.261 NA
HETATM    6  C4  UNL     1      22.665  -0.878  54.464  1.00  0.00     0.093 A 
HETATM    7  C5  UNL     1      21.375  -1.154  54.574  1.00  0.00     0.056 A 
HETATM    8  C6  UNL     1      20.486  -0.705  53.506  1.00  0.00     0.149 A 
HETATM    9  N3  UNL     1      20.882  -0.047  52.450  1.00  0.00    -0.140 NA
HETATM   10  O1  UNL     1      22.218   0.248  52.319  1.00  0.00    -0.211 OA
HETATM   11  C7  UNL     1      23.136  -0.145  53.295  1.00  0.00     0.134 A 
HETATM   12  C8  UNL     1      24.405   0.168  53.111  1.00  0.00    -0.015 A 
ENDROOT
BRANCH  12  13
HETATM   13  C9  UNL     1      24.892   0.919  51.917  1.00  0.00     0.077 C 
BRANCH  13  14
HETATM   14  C10 UNL     1      24.346   2.308  51.882  1.00  0.00    -0.052 A 
HETATM   15  C11 UNL     1      24.195   3.107  52.995  1.00  0.00     0.010 A 
HETATM   16  C12 UNL     1      23.685   4.388  52.928  1.00  0.00     0.044 A 
HETATM   17  C13 UNL     1      23.322   4.855  51.673  1.00  0.00     0.138 A 
HETATM   18  F1  UNL     1      22.812   6.124  51.563  1.00  0.00    -0.204 F 
HETATM   19  C14 UNL     1      23.440   4.123  50.508  1.00  0.00     0.073 A 
HETATM   20 CL1  UNL     1      22.969   4.753  48.945  1.00  0.00    -0.081 Cl
HETATM   21  C15 UNL     1      23.957   2.851  50.651  1.00  0.00     0.034 A 
ENDBRANCH  13  14
ENDBRANCH  12  13
TORSDOF 2
ENDMDL
MODEL 6
REMARK VINA RESULT:      -7.4      4.438      6.465
REMARK  2 active torsions:
REMARK  status: ('A' for Active; 'I' for Inactive)
REMARK    1  A    between atoms: C8_12  and  C9_13 
REMARK    2  A    between atoms: C9_13  and  C10_14 
ROOT
HETATM    1  N1  UNL     1      21.546   4.250  50.035  1.00  0.00    -0.196 NA
HETATM    2  C1  UNL     1      22.575   4.546  50.499  1.00  0.00     0.074 C 
HETATM    3  C2  UNL     1      23.879   4.912  51.066  1.00  0.00     0.165 A 
HETATM    4  C3  UNL     1      23.918   6.395  51.110  1.00  0.00     0.114 A 
HETATM    5  N2  UNL     1      24.753   7.229  50.570  1.00  0.00    -0.261 NA
HETATM    6  C4  UNL     1      25.806   6.604  49.807  1.00  0.00     0.093 A 
HETATM    7  C5  UNL     1      26.729   7.336  49.201  1.00  0.00     0.056 A 
HETATM    8  C6  UNL     1      27.767   6.641  48.445  1.00  0.00     0.149 A 
HETATM    9  N3  UNL     1      27.845   5.343  48.330  1.00  0.00    -0.140 NA
HETATM   10  O1  UNL     1      26.895   4.566  48.952  1.00  0.00    -0.211 OA
HETATM   11  C7  UNL     1      25.869   5.152  49.695  1.00  0.00     0.134 A 
HETATM   12  C8  UNL     1      24.988   4.353  50.268  1.00  0.00    -0.015 A 
ENDROOT
BRANCH  12  13
HETATM   13  C9  UNL     1      25.047   2.866  50.157  1.00  0.00     0.077 C 
BRANCH  13  14
HETATM   14  C10 UNL     1      25.457   2.235  51.447  1.00  0.00    -0.052 A 
HETATM   15  C11 UNL     1      24.661   1.378  52.175  1.00  0.00     0.010 A 
HETATM   16  C12 UNL     1      25.072   0.812  53.366  1.00  0.00     0.044 A 
HETATM   17  C13 UNL     1      26.342   1.143  53.814  1.00  0.00     0.138 A 
HETATM   18  F1  UNL     1      26.788   0.601  54.993  1.00  0.00    -0.204 F 
HETATM   19  C14 UNL     1      27.203   1.992  53.147  1.00  0.00     0.073 A 
HETATM   20 CL1  UNL     1      28.799   2.382  53.751  1.00  0.00    -0.081 Cl
HETATM   21  C15 UNL     1      26.726   2.521  51.964  1.00  0.00     0.034 A 
ENDBRANCH  13  14
ENDBRANCH  12  13
TORSDOF 2
ENDMDL
MODEL 7
REMARK VINA RESULT:      -7.3      3.913      6.568
REMARK  2 active torsions:
REMARK  status: ('A' for Active; 'I' for Inactive)
REMARK    1  A    between atoms: C8_12  and  C9_13 
REMARK    2  A    between atoms: C9_13  and  C10_14 
ROOT
HETATM    1  N1  UNL     1      24.110   5.370  51.001  1.00  0.00    -0.196 NA
HETATM    2  C1  UNL     1      23.971   4.228  50.806  1.00  0.00     0.074 C 
HETATM    3  C2  UNL     1      23.782   2.790  50.577  1.00  0.00     0.165 A 
HETATM    4  C3  UNL     1      23.007   2.662  49.317  1.00  0.00     0.114 A 
HETATM    5  N2  UNL     1      21.864   2.092  49.090  1.00  0.00    -0.261 NA
HETATM    6  C4  UNL     1      21.258   1.490  50.253  1.00  0.00     0.093 A 
HETATM    7  C5  UNL     1      20.090   0.874  50.165  1.00  0.00     0.056 A 
HETATM    8  C6  UNL     1      19.532   0.286  51.380  1.00  0.00     0.149 A 
HETATM    9  N3  UNL     1      20.114   0.329  52.549  1.00  0.00    -0.140 NA
HETATM   10  O1  UNL     1      21.328   0.966  52.659  1.00  0.00    -0.211 OA
HETATM   11  C7  UNL     1      21.930   1.553  51.545  1.00  0.00     0.134 A 
HETATM   12  C8  UNL     1      23.095   2.150  51.716  1.00  0.00    -0.015 A 
ENDROOT
BRANCH  12  13
HETATM   13  C9  UNL     1      23.788   2.217  53.037  1.00  0.00     0.077 C 
BRANCH  13  14
HETATM   14  C10 UNL     1      25.088   1.483  53.012  1.00  0.00    -0.052 A 
HETATM   15  C11 UNL     1      25.219   0.157  52.662  1.00  0.00     0.010 A 
HETATM   16  C12 UNL     1      26.438  -0.492  52.651  1.00  0.00     0.044 A 
HETATM   17  C13 UNL     1      27.551   0.254  53.010  1.00  0.00     0.138 A 
HETATM   18  F1  UNL     1      28.781  -0.355  53.011  1.00  0.00    -0.204 F 
HETATM   19  C14 UNL     1      27.509   1.585  53.373  1.00  0.00     0.073 A 
HETATM   20 CL1  UNL     1      28.940   2.488  53.820  1.00  0.00    -0.081 Cl
HETATM   21  C15 UNL     1      26.257   2.169  53.362  1.00  0.00     0.034 A 
ENDBRANCH  13  14
ENDBRANCH  12  13
TORSDOF 2
ENDMDL
MODEL 8
REMARK VINA RESULT:      -7.3      3.933      5.894
REMARK  2 active torsions:
REMARK  status: ('A' for Active; 'I' for Inactive)
REMARK    1  A    between atoms: C8_12  and  C9_13 
REMARK    2  A    between atoms: C9_13  and  C10_14 
ROOT
HETATM    1  N1  UNL     1      20.942   2.610  51.482  1.00  0.00    -0.196 NA
HETATM    2  C1  UNL     1      21.984   3.027  51.802  1.00  0.00     0.074 C 
HETATM    3  C2  UNL     1      23.304   3.543  52.187  1.00  0.00     0.165 A 
HETATM    4  C3  UNL     1      23.263   5.011  51.967  1.00  0.00     0.114 A 
HETATM    5  N2  UNL     1      24.009   5.767  51.222  1.00  0.00    -0.261 NA
HETATM    6  C4  UNL     1      25.037   5.060  50.498  1.00  0.00     0.093 A 
HETATM    7  C5  UNL     1      25.871   5.709  49.699  1.00  0.00     0.056 A 
HETATM    8  C6  UNL     1      26.889   4.933  48.996  1.00  0.00     0.149 A 
HETATM    9  N3  UNL     1      27.030   3.640  49.105  1.00  0.00    -0.140 NA
HETATM   10  O1  UNL     1      26.173   2.949  49.929  1.00  0.00    -0.211 OA
HETATM   11  C7  UNL     1      25.172   3.616  50.638  1.00  0.00     0.134 A 
HETATM   12  C8  UNL     1      24.381   2.896  51.412  1.00  0.00    -0.015 A 
ENDROOT
BRANCH  12  13
HETATM   13  C9  UNL     1      24.514   1.417  51.560  1.00  0.00     0.077 C 
BRANCH  13  14
HETATM   14  C10 UNL     1      25.561   1.058  52.563  1.00  0.00    -0.052 A 
HETATM   15  C11 UNL     1      25.826   1.792  53.699  1.00  0.00     0.010 A 
HETATM   16  C12 UNL     1      26.804   1.432  54.605  1.00  0.00     0.044 A 
HETATM   17  C13 UNL     1      27.525   0.280  54.328  1.00  0.00     0.138 A 
HETATM   18  F1  UNL     1      28.505  -0.112  55.205  1.00  0.00    -0.204 F 
HETATM   19  C14 UNL     1      27.324  -0.512  53.215  1.00  0.00     0.073 A 
HETATM   20 CL1  UNL     1      28.259  -1.958  52.905  1.00  0.00    -0.081 Cl
HETATM   21  C15 UNL     1      26.332  -0.092  52.352  1.00  0.00     0.034 A 
ENDBRANCH  13  14
ENDBRANCH  12  13
TORSDOF 2
ENDMDL
MODEL 9
REMARK VINA RESULT:      -7.2      3.732      6.124
REMARK  2 active torsions:
REMARK  status: ('A' for Active; 'I' for Inactive)
REMARK    1  A    between atoms: C8_12  and  C9_13 
REMARK    2  A    between atoms: C9_13  and  C10_14 
ROOT
HETATM    1  N1  UNL     1      23.419   5.097  52.399  1.00  0.00    -0.196 NA
HETATM    2  C1  UNL     1      22.797   4.178  52.040  1.00  0.00     0.074 C 
HETATM    3  C2  UNL     1      22.026   3.008  51.600  1.00  0.00     0.165 A 
HETATM    4  C3  UNL     1      20.713   3.085  52.290  1.00  0.00     0.114 A 
HETATM    5  N2  UNL     1      20.133   2.239  53.084  1.00  0.00    -0.261 NA
HETATM    6  C4  UNL     1      20.891   1.037  53.329  1.00  0.00     0.093 A 
HETATM    7  C5  UNL     1      20.418   0.087  54.121  1.00  0.00     0.056 A 
HETATM    8  C6  UNL     1      21.237  -1.104  54.328  1.00  0.00     0.149 A 
HETATM    9  N3  UNL     1      22.407  -1.293  53.780  1.00  0.00    -0.140 NA
HETATM   10  O1  UNL     1      22.915  -0.318  52.954  1.00  0.00    -0.211 OA
HETATM   11  C7  UNL     1      22.195   0.852  52.704  1.00  0.00     0.134 A 
HETATM   12  C8  UNL     1      22.737   1.751  51.903  1.00  0.00    -0.015 A 
ENDROOT
BRANCH  12  13
HETATM   13  C9  UNL     1      24.072   1.567  51.260  1.00  0.00     0.077 C 
BRANCH  13  14
HETATM   14  C10 UNL     1      25.147   1.364  52.276  1.00  0.00    -0.052 A 
HETATM   15  C11 UNL     1      25.435   2.258  53.285  1.00  0.00     0.010 A 
HETATM   16  C12 UNL     1      26.438   2.039  54.208  1.00  0.00     0.044 A 
HETATM   17  C13 UNL     1      27.161   0.862  54.084  1.00  0.00     0.138 A 
HETATM   18  F1  UNL     1      28.166   0.607  54.983  1.00  0.00    -0.204 F 
HETATM   19  C14 UNL     1      26.939  -0.086  53.105  1.00  0.00     0.073 A 
HETATM   20 CL1  UNL     1      27.877  -1.558  52.986  1.00  0.00    -0.081 Cl
HETATM   21  C15 UNL     1      25.921   0.199  52.217  1.00  0.00     0.034 A 
ENDBRANCH  13  14
ENDBRANCH  12  13
TORSDOF 2
ENDMDL
