MODEL 1
REMARK VINA RESULT:      -8.2      0.000      0.000
REMARK  3 active torsions:
REMARK  status: ('A' for Active; 'I' for Inactive)
REMARK    1  A    between atoms: C5_6  and  C6_7 
REMARK       I    between atoms: C6_7  and  N1_9 
REMARK       I    between atoms: N1_9  and  C7_10 
REMARK       I    between atoms: C7_10  and  N2_11 
REMARK    2  A    between atoms: N3_12  and  C8_13 
REMARK    3  A    between atoms: C8_13  and  C9_14 
ROOT
HETATM    1  C6  UNL     1      22.828   1.130  52.401  1.00  0.00     0.277 C 
HETATM    2  O1  UNL     1      23.843   0.349  52.407  1.00  0.00    -0.266 OA
HETATM    3  N1  UNL     1      23.119   2.464  52.127  1.00  0.00    -0.154 N 
HETATM    4  C7  UNL     1      24.427   2.955  51.868  1.00  0.00     0.696 C 
HETATM    5  N2  UNL     1      24.572   4.348  51.603  1.00  0.00    -0.233 N 
HETATM    6  N3  UNL     1      25.359   2.097  51.899  1.00  0.00    -0.103 NA
HETATM    7  H6  UNL     1      22.302   3.091  52.123  1.00  0.00     0.187 HD
HETATM    8  H7  UNL     1      24.103   4.574  50.686  1.00  0.00     0.174 HD
HETATM    9  H8  UNL     1      25.057   5.090  52.184  1.00  0.00     0.174 HD
ENDROOT
BRANCH   6  10
HETATM   10  C8  UNL     1      26.757   2.311  51.677  1.00  0.00     0.210 C 
BRANCH  10  11
HETATM   11  C9  UNL     1      27.518   1.602  52.685  1.00  0.00    -0.002 C 
HETATM   12  C10 UNL     1      27.840   0.517  53.306  1.00  0.00     0.108 C 
HETATM   13  N4  UNL     1      27.427  -0.111  54.575  1.00  0.00    -0.363 N 
HETATM   14  S2  UNL     1      28.968  -0.888  53.284  1.00  0.00     0.094 S 
HETATM   15  C11 UNL     1      28.883   0.083  54.828  1.00  0.00     0.206 C 
HETATM   16  H11 UNL     1      26.765  -0.552  55.286  1.00  0.00     0.161 HD
HETATM   17  C12 UNL     1      29.201   1.514  54.524  1.00  0.00     0.012 C 
HETATM   18  C13 UNL     1      28.520   2.259  53.600  1.00  0.00     0.010 C 
HETATM   19  O2  UNL     1      28.185  -2.171  53.476  1.00  0.00    -0.249 OA
ENDBRANCH  10  11
ENDBRANCH   6  10
BRANCH   1  20
HETATM   20  C5  UNL     1      21.526   0.517  52.681  1.00  0.00     0.079 A 
HETATM   21  C2  UNL     1      20.873  -0.238  53.626  1.00  0.00    -0.039 A 
HETATM   22  C1  UNL     1      21.670  -0.621  54.814  1.00  0.00     0.050 C 
HETATM   23  C3  UNL     1      19.571  -0.574  53.407  1.00  0.00     0.015 A 
HETATM   24  C4  UNL     1      18.911  -0.158  52.247  1.00  0.00     0.051 A 
HETATM   25  S1  UNL     1      20.270   0.820  51.346  1.00  0.00    -0.096 SA
ENDBRANCH   1  20
TORSDOF 3
ENDMDL
MODEL 2
REMARK VINA RESULT:      -7.6      3.591      5.944
REMARK  3 active torsions:
REMARK  status: ('A' for Active; 'I' for Inactive)
REMARK    1  A    between atoms: C5_6  and  C6_7 
REMARK       I    between atoms: C6_7  and  N1_9 
REMARK       I    between atoms: N1_9  and  C7_10 
REMARK       I    between atoms: C7_10  and  N2_11 
REMARK    2  A    between atoms: N3_12  and  C8_13 
REMARK    3  A    between atoms: C8_13  and  C9_14 
ROOT
HETATM    1  C6  UNL     1      26.074   4.532  49.806  1.00  0.00     0.277 C 
HETATM    2  O1  UNL     1      26.748   3.460  49.623  1.00  0.00    -0.266 OA
HETATM    3  N1  UNL     1      25.117   4.457  50.814  1.00  0.00    -0.154 N 
HETATM    4  C7  UNL     1      24.882   3.297  51.600  1.00  0.00     0.696 C 
HETATM    5  N2  UNL     1      23.867   3.367  52.599  1.00  0.00    -0.233 N 
HETATM    6  N3  UNL     1      25.604   2.291  51.336  1.00  0.00    -0.103 NA
HETATM    7  H6  UNL     1      24.575   5.320  50.960  1.00  0.00     0.187 HD
HETATM    8  H7  UNL     1      24.170   4.043  53.350  1.00  0.00     0.174 HD
HETATM    9  H8  UNL     1      22.939   2.855  52.645  1.00  0.00     0.174 HD
ENDROOT
BRANCH   6  10
HETATM   10  C8  UNL     1      25.582   1.004  51.965  1.00  0.00     0.210 C 
BRANCH  10  11
HETATM   11  C9  UNL     1      26.785   0.832  52.751  1.00  0.00    -0.002 C 
HETATM   12  C10 UNL     1      27.640   0.083  53.367  1.00  0.00     0.108 C 
HETATM   13  N4  UNL     1      27.835  -0.328  54.769  1.00  0.00    -0.363 N 
HETATM   14  S2  UNL     1      29.165  -0.852  53.155  1.00  0.00     0.094 S 
HETATM   15  C11 UNL     1      29.123   0.374  54.508  1.00  0.00     0.206 C 
HETATM   16  H11 UNL     1      27.595  -0.778  55.706  1.00  0.00     0.161 HD
HETATM   17  C12 UNL     1      28.792   1.719  53.940  1.00  0.00     0.012 C 
HETATM   18  C13 UNL     1      27.667   1.969  53.201  1.00  0.00     0.010 C 
HETATM   19  O2  UNL     1      29.000  -2.235  53.751  1.00  0.00    -0.249 OA
ENDBRANCH  10  11
ENDBRANCH   6  10
BRANCH   1  20
HETATM   20  C5  UNL     1      26.400   5.669  48.938  1.00  0.00     0.079 A 
HETATM   21  C2  UNL     1      27.452   6.236  48.258  1.00  0.00    -0.039 A 
HETATM   22  C1  UNL     1      28.752   5.538  48.375  1.00  0.00     0.050 C 
HETATM   23  C3  UNL     1      27.228   7.374  47.543  1.00  0.00     0.015 A 
HETATM   24  C4  UNL     1      25.955   7.953  47.500  1.00  0.00     0.051 A 
HETATM   25  S1  UNL     1      24.943   6.769  48.590  1.00  0.00    -0.096 SA
ENDBRANCH   1  20
TORSDOF 3
ENDMDL
MODEL 3
REMARK VINA RESULT:      -7.5      4.614      7.365
REMARK  3 active torsions:
REMARK  status: ('A' for Active; 'I' for Inactive)
REMARK    1  A    between atoms: C5_6  and  C6_7 
REMARK       I    between atoms: C6_7  and  N1_9 
REMARK       I    between atoms: N1_9  and  C7_10 
REMARK       I    between atoms: C7_10  and  N2_11 
REMARK    2  A    between atoms: N3_12  and  C8_13 
REMARK    3  A    between atoms: C8_13  and  C9_14 
ROOT
HETATM    1  C6  UNL     1      26.557   2.329  51.902  1.00  0.00     0.277 C 
HETATM    2  O1  UNL     1      27.084   2.760  50.817  1.00  0.00    -0.266 OA
HETATM    3  N1  UNL     1      25.299   2.853  52.189  1.00  0.00    -0.154 N 
HETATM    4  C7  UNL     1      24.624   3.793  51.365  1.00  0.00     0.696 C 
HETATM    5  N2  UNL     1      23.338   4.243  51.786  1.00  0.00    -0.233 N 
HETATM    6  N3  UNL     1      25.236   4.153  50.315  1.00  0.00    -0.103 NA
HETATM    7  H6  UNL     1      24.876   2.507  53.061  1.00  0.00     0.187 HD
HETATM    8  H7  UNL     1      22.661   3.436  51.743  1.00  0.00     0.174 HD
HETATM    9  H8  UNL     1      23.041   5.210  52.104  1.00  0.00     0.174 HD
ENDROOT
BRANCH   6  10
HETATM   10  C8  UNL     1      24.795   5.078  49.314  1.00  0.00     0.210 C 
BRANCH  10  11
HETATM   11  C9  UNL     1      25.909   5.903  48.898  1.00  0.00    -0.002 C 
HETATM   12  C10 UNL     1      26.419   7.053  48.604  1.00  0.00     0.108 C 
HETATM   13  N4  UNL     1      26.674   7.783  47.349  1.00  0.00    -0.363 N 
HETATM   14  S2  UNL     1      27.260   8.487  49.300  1.00  0.00     0.094 S 
HETATM   15  C11 UNL     1      28.061   7.663  47.881  1.00  0.00     0.206 C 
HETATM   16  H11 UNL     1      26.443   8.266  46.426  1.00  0.00     0.161 HD
HETATM   17  C12 UNL     1      28.287   6.222  48.216  1.00  0.00     0.012 C 
HETATM   18  C13 UNL     1      27.287   5.370  48.600  1.00  0.00     0.010 C 
HETATM   19  O2  UNL     1      26.592   9.755  48.809  1.00  0.00    -0.249 OA
ENDBRANCH  10  11
ENDBRANCH   6  10
BRANCH   1  20
HETATM   20  C5  UNL     1      27.342   1.362  52.674  1.00  0.00     0.079 A 
HETATM   21  C2  UNL     1      27.454   0.012  52.912  1.00  0.00    -0.039 A 
HETATM   22  C1  UNL     1      26.498  -0.856  52.189  1.00  0.00     0.050 C 
HETATM   23  C3  UNL     1      28.414  -0.420  53.777  1.00  0.00     0.015 A 
HETATM   24  C4  UNL     1      29.269   0.489  54.409  1.00  0.00     0.051 A 
HETATM   25  S1  UNL     1      28.663   2.152  53.716  1.00  0.00    -0.096 SA
ENDBRANCH   1  20
TORSDOF 3
ENDMDL
MODEL 4
REMARK VINA RESULT:      -7.4      4.013      6.384
REMARK  3 active torsions:
REMARK  status: ('A' for Active; 'I' for Inactive)
REMARK    1  A    between atoms: C5_6  and  C6_7 
REMARK       I    between atoms: C6_7  and  N1_9 
REMARK       I    between atoms: N1_9  and  C7_10 
REMARK       I    between atoms: C7_10  and  N2_11 
REMARK    2  A    between atoms: N3_12  and  C8_13 
REMARK    3  A    between atoms: C8_13  and  C9_14 
ROOT
HETATM    1  C6  UNL     1      25.421   5.433  50.051  1.00  0.00     0.277 C 
HETATM    2  O1  UNL     1      25.691   4.182  50.022  1.00  0.00    -0.266 OA
HETATM    3  N1  UNL     1      24.471   5.805  50.998  1.00  0.00    -0.154 N 
HETATM    4  C7  UNL     1      23.831   4.894  51.881  1.00  0.00     0.696 C 
HETATM    5  N2  UNL     1      22.877   5.420  52.800  1.00  0.00    -0.233 N 
HETATM    6  N3  UNL     1      24.171   3.679  51.768  1.00  0.00    -0.103 NA
HETATM    7  H6  UNL     1      24.254   6.812  51.020  1.00  0.00     0.187 HD
HETATM    8  H7  UNL     1      23.373   6.037  53.496  1.00  0.00     0.174 HD
HETATM    9  H8  UNL     1      21.829   5.261  52.837  1.00  0.00     0.174 HD
ENDROOT
BRANCH   6  10
HETATM   10  C8  UNL     1      23.692   2.559  52.521  1.00  0.00     0.210 C 
BRANCH  10  11
HETATM   11  C9  UNL     1      24.800   1.680  52.834  1.00  0.00    -0.002 C 
HETATM   12  C10 UNL     1      25.456   0.934  53.659  1.00  0.00     0.108 C 
HETATM   13  N4  UNL     1      26.641   1.129  54.514  1.00  0.00    -0.363 N 
HETATM   14  S2  UNL     1      25.597  -0.745  54.299  1.00  0.00     0.094 S 
HETATM   15  C11 UNL     1      27.117   0.021  53.637  1.00  0.00     0.206 C 
HETATM   16  H11 UNL     1      27.239   1.558  55.286  1.00  0.00     0.161 HD
HETATM   17  C12 UNL     1      26.876   0.440  52.220  1.00  0.00     0.012 C 
HETATM   18  C13 UNL     1      25.863   1.280  51.843  1.00  0.00     0.010 C 
HETATM   19  O2  UNL     1      25.657  -0.708  55.812  1.00  0.00    -0.249 OA
ENDBRANCH  10  11
ENDBRANCH   6  10
BRANCH   1  20
HETATM   20  C5  UNL     1      26.140   6.282  49.095  1.00  0.00     0.079 A 
HETATM   21  C2  UNL     1      27.295   6.324  48.351  1.00  0.00    -0.039 A 
HETATM   22  C1  UNL     1      28.198   5.159  48.487  1.00  0.00     0.050 C 
HETATM   23  C3  UNL     1      27.522   7.410  47.559  1.00  0.00     0.015 A 
HETATM   24  C4  UNL     1      26.599   8.459  47.504  1.00  0.00     0.051 A 
HETATM   25  S1  UNL     1      25.248   7.864  48.702  1.00  0.00    -0.096 SA
ENDBRANCH   1  20
TORSDOF 3
ENDMDL
MODEL 5
REMARK VINA RESULT:      -7.3      2.506      7.271
REMARK  3 active torsions:
REMARK  status: ('A' for Active; 'I' for Inactive)
REMARK    1  A    between atoms: C5_6  and  C6_7 
REMARK       I    between atoms: C6_7  and  N1_9 
REMARK       I    between atoms: N1_9  and  C7_10 
REMARK       I    between atoms: C7_10  and  N2_11 
REMARK    2  A    between atoms: N3_12  and  C8_13 
REMARK    3  A    between atoms: C8_13  and  C9_14 
ROOT
HETATM    1  C6  UNL     1      26.245  -0.542  53.618  1.00  0.00     0.277 C 
HETATM    2  O1  UNL     1      25.620  -0.097  52.593  1.00  0.00    -0.266 OA
HETATM    3  N1  UNL     1      25.428  -1.004  54.647  1.00  0.00    -0.154 N 
HETATM    4  C7  UNL     1      24.008  -0.999  54.595  1.00  0.00     0.696 C 
HETATM    5  N2  UNL     1      23.302  -1.505  55.726  1.00  0.00    -0.233 N 
HETATM    6  N3  UNL     1      23.492  -0.536  53.535  1.00  0.00    -0.103 NA
HETATM    7  H6  UNL     1      25.932  -1.361  55.470  1.00  0.00     0.187 HD
HETATM    8  H7  UNL     1      23.482  -2.541  55.808  1.00  0.00     0.174 HD
HETATM    9  H8  UNL     1      22.682  -0.986  56.412  1.00  0.00     0.174 HD
ENDROOT
BRANCH   6  10
HETATM   10  C8  UNL     1      22.100  -0.413  53.216  1.00  0.00     0.210 C 
BRANCH  10  11
HETATM   11  C9  UNL     1      21.938   0.524  52.125  1.00  0.00    -0.002 C 
HETATM   12  C10 UNL     1      22.179   1.662  51.563  1.00  0.00     0.108 C 
HETATM   13  N4  UNL     1      21.464   2.949  51.483  1.00  0.00    -0.363 N 
HETATM   14  S2  UNL     1      23.312   2.524  50.458  1.00  0.00     0.094 S 
HETATM   15  C11 UNL     1      21.535   2.586  50.039  1.00  0.00     0.206 C 
HETATM   16  H11 UNL     1      21.003   3.843  51.837  1.00  0.00     0.161 HD
HETATM   17  C12 UNL     1      21.015   1.188  49.904  1.00  0.00     0.012 C 
HETATM   18  C13 UNL     1      21.112   0.248  50.894  1.00  0.00     0.010 C 
HETATM   19  O2  UNL     1      23.710   3.850  51.072  1.00  0.00    -0.249 OA
ENDBRANCH  10  11
ENDBRANCH   6  10
BRANCH   1  20
HETATM   20  C5  UNL     1      27.710  -0.500  53.563  1.00  0.00     0.079 A 
HETATM   21  C2  UNL     1      28.802  -1.305  53.342  1.00  0.00    -0.039 A 
HETATM   22  C1  UNL     1      28.511  -2.727  53.051  1.00  0.00     0.050 C 
HETATM   23  C3  UNL     1      30.045  -0.751  53.406  1.00  0.00     0.015 A 
HETATM   24  C4  UNL     1      30.207   0.609  53.689  1.00  0.00     0.051 A 
HETATM   25  S1  UNL     1      28.409   1.191  53.893  1.00  0.00    -0.096 SA
ENDBRANCH   1  20
TORSDOF 3
ENDMDL
MODEL 6
REMARK VINA RESULT:      -7.2      4.866      6.569
REMARK  3 active torsions:
REMARK  status: ('A' for Active; 'I' for Inactive)
REMARK    1  A    between atoms: C5_6  and  C6_7 
REMARK       I    between atoms: C6_7  and  N1_9 
REMARK       I    between atoms: N1_9  and  C7_10 
REMARK       I    between atoms: C7_10  and  N2_11 
REMARK    2  A    between atoms: N3_12  and  C8_13 
REMARK    3  A    between atoms: C8_13  and  C9_14 
ROOT
HETATM    1  C6  UNL     1      24.653   2.917  51.451  1.00  0.00     0.277 C 
HETATM    2  O1  UNL     1      24.868   2.865  50.190  1.00  0.00    -0.266 OA
HETATM    3  N1  UNL     1      24.468   4.200  51.961  1.00  0.00    -0.154 N 
HETATM    4  C7  UNL     1      24.506   5.380  51.172  1.00  0.00     0.696 C 
HETATM    5  N2  UNL     1      24.299   6.627  51.832  1.00  0.00    -0.233 N 
HETATM    6  N3  UNL     1      24.727   5.216  49.935  1.00  0.00    -0.103 NA
HETATM    7  H6  UNL     1      24.295   4.240  52.975  1.00  0.00     0.187 HD
HETATM    8  H7  UNL     1      23.305   6.669  52.182  1.00  0.00     0.174 HD
HETATM    9  H8  UNL     1      24.982   7.423  51.983  1.00  0.00     0.174 HD
ENDROOT
BRANCH   6  10
HETATM   10  C8  UNL     1      24.818   6.220  48.917  1.00  0.00     0.210 C 
BRANCH  10  11
HETATM   11  C9  UNL     1      26.210   6.453  48.595  1.00  0.00    -0.002 C 
HETATM   12  C10 UNL     1      27.174   7.234  48.235  1.00  0.00     0.108 C 
HETATM   13  N4  UNL     1      27.839   7.536  46.955  1.00  0.00    -0.363 N 
HETATM   14  S2  UNL     1      28.446   8.349  48.857  1.00  0.00     0.094 S 
HETATM   15  C11 UNL     1      28.990   7.009  47.742  1.00  0.00     0.206 C 
HETATM   16  H11 UNL     1      27.928   7.870  45.946  1.00  0.00     0.161 HD
HETATM   17  C12 UNL     1      28.570   5.693  48.318  1.00  0.00     0.012 C 
HETATM   18  C13 UNL     1      27.274   5.386  48.634  1.00  0.00     0.010 C 
HETATM   19  O2  UNL     1      28.412   9.645  48.073  1.00  0.00    -0.249 OA
ENDBRANCH  10  11
ENDBRANCH   6  10
BRANCH   1  20
HETATM   20  C5  UNL     1      24.634   1.637  52.167  1.00  0.00     0.079 A 
HETATM   21  C2  UNL     1      23.781   0.790  52.833  1.00  0.00    -0.039 A 
HETATM   22  C1  UNL     1      22.368   1.224  52.916  1.00  0.00     0.050 C 
HETATM   23  C3  UNL     1      24.284  -0.363  53.358  1.00  0.00     0.015 A 
HETATM   24  C4  UNL     1      25.640  -0.678  53.221  1.00  0.00     0.051 A 
HETATM   25  S1  UNL     1      26.298   0.813  52.242  1.00  0.00    -0.096 SA
ENDBRANCH   1  20
TORSDOF 3
ENDMDL
MODEL 7
REMARK VINA RESULT:      -7.2      2.908      6.820
REMARK  3 active torsions:
REMARK  status: ('A' for Active; 'I' for Inactive)
REMARK    1  A    between atoms: C5_6  and  C6_7 
REMARK       I    between atoms: C6_7  and  N1_9 
REMARK       I    between atoms: N1_9  and  C7_10 
REMARK       I    between atoms: C7_10  and  N2_11 
REMARK    2  A    between atoms: N3_12  and  C8_13 
REMARK    3  A    between atoms: C8_13  and  C9_14 
ROOT
HETATM    1  C6  UNL     1      25.657   0.623  52.959  1.00  0.00     0.277 C 
HETATM    2  O1  UNL     1      25.532   1.772  52.409  1.00  0.00    -0.266 OA
HETATM    3  N1  UNL     1      24.458   0.016  53.324  1.00  0.00    -0.154 N 
HETATM    4  C7  UNL     1      23.178   0.597  53.115  1.00  0.00     0.696 C 
HETATM    5  N2  UNL     1      22.036  -0.143  53.541  1.00  0.00    -0.233 N 
HETATM    6  N3  UNL     1      23.169   1.737  52.563  1.00  0.00    -0.103 NA
HETATM    7  H6  UNL     1      24.559  -0.908  53.766  1.00  0.00     0.187 HD
HETATM    8  H7  UNL     1      21.947  -1.010  52.946  1.00  0.00     0.174 HD
HETATM    9  H8  UNL     1      21.348   0.080  54.316  1.00  0.00     0.174 HD
ENDROOT
BRANCH   6  10
HETATM   10  C8  UNL     1      22.032   2.545  52.235  1.00  0.00     0.210 C 
BRANCH  10  11
HETATM   11  C9  UNL     1      22.482   3.830  51.743  1.00  0.00    -0.002 C 
HETATM   12  C10 UNL     1      23.414   4.618  51.318  1.00  0.00     0.108 C 
HETATM   13  N4  UNL     1      24.253   5.659  51.940  1.00  0.00    -0.363 N 
HETATM   14  S2  UNL     1      24.284   5.172  49.841  1.00  0.00     0.094 S 
HETATM   15  C11 UNL     1      23.546   6.462  50.902  1.00  0.00     0.206 C 
HETATM   16  H11 UNL     1      24.967   6.077  52.613  1.00  0.00     0.161 HD
HETATM   17  C12 UNL     1      22.081   6.193  51.051  1.00  0.00     0.012 C 
HETATM   18  C13 UNL     1      21.574   5.014  51.525  1.00  0.00     0.010 C 
HETATM   19  O2  UNL     1      25.778   5.138  50.088  1.00  0.00    -0.249 OA
ENDBRANCH  10  11
ENDBRANCH   6  10
BRANCH   1  20
HETATM   20  C5  UNL     1      27.024   0.120  53.125  1.00  0.00     0.079 A 
HETATM   21  C2  UNL     1      27.772  -1.026  52.994  1.00  0.00    -0.039 A 
HETATM   22  C1  UNL     1      27.042  -2.229  52.532  1.00  0.00     0.050 C 
HETATM   23  C3  UNL     1      29.101  -0.976  53.293  1.00  0.00     0.015 A 
HETATM   24  C4  UNL     1      29.692   0.217  53.722  1.00  0.00     0.051 A 
HETATM   25  S1  UNL     1      28.218   1.418  53.711  1.00  0.00    -0.096 SA
ENDBRANCH   1  20
TORSDOF 3
ENDMDL
MODEL 8
REMARK VINA RESULT:      -7.2      2.054      6.726
REMARK  3 active torsions:
REMARK  status: ('A' for Active; 'I' for Inactive)
REMARK    1  A    between atoms: C5_6  and  C6_7 
REMARK       I    between atoms: C6_7  and  N1_9 
REMARK       I    between atoms: N1_9  and  C7_10 
REMARK       I    between atoms: C7_10  and  N2_11 
REMARK    2  A    between atoms: N3_12  and  C8_13 
REMARK    3  A    between atoms: C8_13  and  C9_14 
ROOT
HETATM    1  C6  UNL     1      26.482   1.191  52.746  1.00  0.00     0.277 C 
HETATM    2  O1  UNL     1      25.354   0.979  53.314  1.00  0.00    -0.266 OA
HETATM    3  N1  UNL     1      26.523   2.318  51.929  1.00  0.00    -0.154 N 
HETATM    4  C7  UNL     1      25.419   3.187  51.720  1.00  0.00     0.696 C 
HETATM    5  N2  UNL     1      25.609   4.305  50.855  1.00  0.00    -0.233 N 
HETATM    6  N3  UNL     1      24.350   2.885  52.329  1.00  0.00    -0.103 NA
HETATM    7  H6  UNL     1      27.431   2.487  51.473  1.00  0.00     0.187 HD
HETATM    8  H7  UNL     1      26.291   4.974  51.302  1.00  0.00     0.174 HD
HETATM    9  H8  UNL     1      25.172   4.497  49.908  1.00  0.00     0.174 HD
ENDROOT
BRANCH   6  10
HETATM   10  C8  UNL     1      23.097   3.578  52.301  1.00  0.00     0.210 C 
BRANCH  10  11
HETATM   11  C9  UNL     1      22.015   2.617  52.334  1.00  0.00    -0.002 C 
HETATM   12  C10 UNL     1      21.571   1.417  52.512  1.00  0.00     0.108 C 
HETATM   13  N4  UNL     1      21.241   0.292  51.618  1.00  0.00    -0.363 N 
HETATM   14  S2  UNL     1      20.931   0.275  53.751  1.00  0.00     0.094 S 
HETATM   15  C11 UNL     1      19.915   0.532  52.255  1.00  0.00     0.206 C 
HETATM   16  H11 UNL     1      21.408  -0.468  50.889  1.00  0.00     0.161 HD
HETATM   17  C12 UNL     1      19.610   1.991  52.115  1.00  0.00     0.012 C 
HETATM   18  C13 UNL     1      20.573   2.961  52.058  1.00  0.00     0.010 C 
HETATM   19  O2  UNL     1      21.643  -1.056  53.630  1.00  0.00    -0.249 OA
ENDBRANCH  10  11
ENDBRANCH   6  10
BRANCH   1  20
HETATM   20  C5  UNL     1      27.552   0.230  53.033  1.00  0.00     0.079 A 
HETATM   21  C2  UNL     1      27.847  -1.109  52.944  1.00  0.00    -0.039 A 
HETATM   22  C1  UNL     1      26.786  -1.972  52.376  1.00  0.00     0.050 C 
HETATM   23  C3  UNL     1      29.067  -1.538  53.375  1.00  0.00     0.015 A 
HETATM   24  C4  UNL     1      29.999  -0.635  53.896  1.00  0.00     0.051 A 
HETATM   25  S1  UNL     1      29.065   1.016  53.773  1.00  0.00    -0.096 SA
ENDBRANCH   1  20
TORSDOF 3
ENDMDL
MODEL 9
REMARK VINA RESULT:      -7.2      7.609      9.003
REMARK  3 active torsions:
REMARK  status: ('A' for Active; 'I' for Inactive)
REMARK    1  A    between atoms: C5_6  and  C6_7 
REMARK       I    between atoms: C6_7  and  N1_9 
REMARK       I    between atoms: N1_9  and  C7_10 
REMARK       I    between atoms: C7_10  and  N2_11 
REMARK    2  A    between atoms: N3_12  and  C8_13 
REMARK    3  A    between atoms: C8_13  and  C9_14 
ROOT
HETATM    1  C6  UNL     1      27.812   7.075  48.535  1.00  0.00     0.277 C 
HETATM    2  O1  UNL     1      28.547   6.731  47.544  1.00  0.00    -0.266 OA
HETATM    3  N1  UNL     1      28.351   8.071  49.346  1.00  0.00    -0.154 N 
HETATM    4  C7  UNL     1      29.614   8.681  49.120  1.00  0.00     0.696 C 
HETATM    5  N2  UNL     1      30.038   9.688  50.035  1.00  0.00    -0.233 N 
HETATM    6  N3  UNL     1      30.260   8.266  48.111  1.00  0.00    -0.103 NA
HETATM    7  H6  UNL     1      27.760   8.346  50.142  1.00  0.00     0.187 HD
HETATM    8  H7  UNL     1      29.406  10.527  49.939  1.00  0.00     0.174 HD
HETATM    9  H8  UNL     1      30.842   9.667  50.725  1.00  0.00     0.174 HD
ENDROOT
BRANCH   6  10
HETATM   10  C8  UNL     1      31.545   8.700  47.651  1.00  0.00     0.210 C 
BRANCH  10  11
HETATM   11  C9  UNL     1      32.531   7.683  47.950  1.00  0.00    -0.002 C 
HETATM   12  C10 UNL     1      32.864   6.450  48.146  1.00  0.00     0.108 C 
HETATM   13  N4  UNL     1      33.062   5.608  49.339  1.00  0.00    -0.363 N 
HETATM   14  S2  UNL     1      33.425   4.950  47.319  1.00  0.00     0.094 S 
HETATM   15  C11 UNL     1      34.421   5.542  48.730  1.00  0.00     0.206 C 
HETATM   16  H11 UNL     1      32.805   5.107  50.245  1.00  0.00     0.161 HD
HETATM   17  C12 UNL     1      34.859   6.949  48.465  1.00  0.00     0.012 C 
HETATM   18  C13 UNL     1      33.991   7.971  48.192  1.00  0.00     0.010 C 
HETATM   19  O2  UNL     1      32.587   3.775  47.777  1.00  0.00    -0.249 OA
ENDBRANCH  10  11
ENDBRANCH   6  10
BRANCH   1  20
HETATM   20  C5  UNL     1      26.528   6.380  48.672  1.00  0.00     0.079 A 
HETATM   21  C2  UNL     1      25.998   5.152  48.989  1.00  0.00    -0.039 A 
HETATM   22  C1  UNL     1      26.974   4.090  49.322  1.00  0.00     0.050 C 
HETATM   23  C3  UNL     1      24.643   5.002  48.973  1.00  0.00     0.015 A 
HETATM   24  C4  UNL     1      23.810   6.076  48.642  1.00  0.00     0.051 A 
HETATM   25  S1  UNL     1      25.063   7.466  48.312  1.00  0.00    -0.096 SA
ENDBRANCH   1  20
TORSDOF 3
ENDMDL
