MODEL 1
REMARK VINA RESULT:      -7.4      0.000      0.000
REMARK  6 active torsions:
REMARK  status: ('A' for Active; 'I' for Inactive)
REMARK    1  A    between atoms: C2_2  and  C3_3 
REMARK    2  A    between atoms: C6_8  and  N2_9 
REMARK    3  A    between atoms: N2_9  and  C7_10 
REMARK    4  A    between atoms: C13_17  and  C14_18 
REMARK    5  A    between atoms: C14_18  and  C15_19 
REMARK    6  A    between atoms: C15_19  and  N3_20 
ROOT
HETATM    1  N3  UNL     1      26.954   5.704  49.313  1.00  0.00    -0.325 N 
HETATM    2  C16 UNL     1      27.493   6.628  48.387  1.00  0.00     0.177 C 
HETATM    3  N4  UNL     1      27.930   7.373  47.613  1.00  0.00    -0.172 NA
HETATM    4  H14 UNL     1      26.424   6.035  50.154  1.00  0.00     0.171 HD
ENDROOT
BRANCH   1   5
HETATM    5  C15 UNL     1      27.196   4.298  49.000  1.00  0.00     0.159 C 
BRANCH   5   6
HETATM    6  C14 UNL     1      26.085   3.424  49.399  1.00  0.00     0.009 C 
BRANCH   6   7
HETATM    7  C13 UNL     1      25.131   3.302  50.267  1.00  0.00     0.020 A 
HETATM    8  C3  UNL     1      23.813   3.402  49.910  1.00  0.00     0.064 A 
HETATM    9  N1  UNL     1      22.826   3.258  50.804  1.00  0.00    -0.257 NA
HETATM   10  C4  UNL     1      23.103   3.006  52.117  1.00  0.00     0.162 A 
HETATM   11  C5  UNL     1      24.401   2.900  52.514  1.00  0.00     0.161 A 
HETATM   12  F1  UNL     1      24.671   2.655  53.793  1.00  0.00    -0.202 F 
HETATM   13  C6  UNL     1      25.386   3.047  51.596  1.00  0.00     0.085 A 
BRANCH   8  14
HETATM   14  C2  UNL     1      23.357   3.650  48.699  1.00  0.00     0.001 C 
HETATM   15  C1  UNL     1      22.507   2.655  48.001  1.00  0.00     0.038 C 
ENDBRANCH   8  14
BRANCH  13  16
HETATM   16  N2  UNL     1      26.729   2.926  52.072  1.00  0.00    -0.353 N 
HETATM   17  H6  UNL     1      27.184   3.858  51.956  1.00  0.00     0.166 HD
BRANCH  16  18
HETATM   18  C7  UNL     1      27.396   1.798  52.612  1.00  0.00     0.034 A 
HETATM   19  C8  UNL     1      28.494   2.034  53.411  1.00  0.00     0.029 A 
HETATM   20  C9  UNL     1      29.176   0.968  53.955  1.00  0.00     0.004 A 
HETATM   21  C10 UNL     1      28.699  -0.313  53.656  1.00  0.00     0.024 A 
HETATM   22  C11 UNL     1      27.599  -0.542  52.854  1.00  0.00     0.036 A 
HETATM   23 CL1  UNL     1      27.071  -2.191  52.530  1.00  0.00    -0.084 Cl
HETATM   24  C12 UNL     1      26.917   0.541  52.308  1.00  0.00     0.053 A 
ENDBRANCH  16  18
ENDBRANCH  13  16
ENDBRANCH   6   7
ENDBRANCH   5   6
ENDBRANCH   1   5
TORSDOF 6
ENDMDL
MODEL 2
REMARK VINA RESULT:      -7.3      2.795      4.926
REMARK  6 active torsions:
REMARK  status: ('A' for Active; 'I' for Inactive)
REMARK    1  A    between atoms: C2_2  and  C3_3 
REMARK    2  A    between atoms: C6_8  and  N2_9 
REMARK    3  A    between atoms: N2_9  and  C7_10 
REMARK    4  A    between atoms: C13_17  and  C14_18 
REMARK    5  A    between atoms: C14_18  and  C15_19 
REMARK    6  A    between atoms: C15_19  and  N3_20 
ROOT
HETATM    1  N3  UNL     1      27.921   2.761  52.973  1.00  0.00    -0.325 N 
HETATM    2  C16 UNL     1      28.802   2.316  53.987  1.00  0.00     0.177 C 
HETATM    3  N4  UNL     1      29.528   1.937  54.807  1.00  0.00    -0.172 NA
HETATM    4  H14 UNL     1      27.793   3.784  52.783  1.00  0.00     0.171 HD
ENDROOT
BRANCH   1   5
HETATM    5  C15 UNL     1      27.232   1.702  52.239  1.00  0.00     0.159 C 
BRANCH   5   6
HETATM    6  C14 UNL     1      26.259   2.219  51.269  1.00  0.00     0.009 C 
BRANCH   6   7
HETATM    7  C13 UNL     1      25.535   3.255  50.988  1.00  0.00     0.020 A 
HETATM    8  C3  UNL     1      25.844   4.092  49.949  1.00  0.00     0.064 A 
HETATM    9  N1  UNL     1      25.086   5.155  49.648  1.00  0.00    -0.257 NA
HETATM   10  C4  UNL     1      23.968   5.444  50.375  1.00  0.00     0.162 A 
HETATM   11  C5  UNL     1      23.626   4.638  51.417  1.00  0.00     0.161 A 
HETATM   12  F1  UNL     1      22.536   4.921  52.127  1.00  0.00    -0.202 F 
HETATM   13  C6  UNL     1      24.403   3.567  51.707  1.00  0.00     0.085 A 
BRANCH   8  14
HETATM   14  C2  UNL     1      26.884   3.978  49.148  1.00  0.00     0.001 C 
HETATM   15  C1  UNL     1      27.529   5.188  48.582  1.00  0.00     0.038 C 
ENDBRANCH   8  14
BRANCH  13  16
HETATM   16  N2  UNL     1      23.994   2.758  52.813  1.00  0.00    -0.353 N 
HETATM   17  H6  UNL     1      24.348   3.217  53.680  1.00  0.00     0.166 HD
BRANCH  16  18
HETATM   18  C7  UNL     1      23.250   1.552  52.821  1.00  0.00     0.034 A 
HETATM   19  C8  UNL     1      23.864   0.432  53.339  1.00  0.00     0.029 A 
HETATM   20  C9  UNL     1      23.181  -0.763  53.365  1.00  0.00     0.004 A 
HETATM   21  C10 UNL     1      21.878  -0.763  52.853  1.00  0.00     0.024 A 
HETATM   22  C11 UNL     1      21.269   0.362  52.335  1.00  0.00     0.036 A 
HETATM   23 CL1  UNL     1      19.625   0.267  51.711  1.00  0.00    -0.084 Cl
HETATM   24  C12 UNL     1      21.968   1.565  52.313  1.00  0.00     0.053 A 
ENDBRANCH  16  18
ENDBRANCH  13  16
ENDBRANCH   6   7
ENDBRANCH   5   6
ENDBRANCH   1   5
TORSDOF 6
ENDMDL
MODEL 3
REMARK VINA RESULT:      -7.0      2.964      5.270
REMARK  6 active torsions:
REMARK  status: ('A' for Active; 'I' for Inactive)
REMARK    1  A    between atoms: C2_2  and  C3_3 
REMARK    2  A    between atoms: C6_8  and  N2_9 
REMARK    3  A    between atoms: N2_9  and  C7_10 
REMARK    4  A    between atoms: C13_17  and  C14_18 
REMARK    5  A    between atoms: C14_18  and  C15_19 
REMARK    6  A    between atoms: C15_19  and  N3_20 
ROOT
HETATM    1  N3  UNL     1      21.388  -0.729  53.690  1.00  0.00    -0.325 N 
HETATM    2  C16 UNL     1      22.172  -1.239  54.752  1.00  0.00     0.177 C 
HETATM    3  N4  UNL     1      22.815  -1.639  55.629  1.00  0.00    -0.172 NA
HETATM    4  H14 UNL     1      20.632  -1.310  53.254  1.00  0.00     0.171 HD
ENDROOT
BRANCH   1   5
HETATM    5  C15 UNL     1      21.716   0.632  53.273  1.00  0.00     0.159 C 
BRANCH   5   6
HETATM    6  C14 UNL     1      22.482   0.677  52.021  1.00  0.00     0.009 C 
BRANCH   6   7
HETATM    7  C13 UNL     1      22.954   1.492  51.132  1.00  0.00     0.020 A 
HETATM    8  C3  UNL     1      22.330   1.689  49.929  1.00  0.00     0.064 A 
HETATM    9  N1  UNL     1      22.809   2.545  49.017  1.00  0.00    -0.257 NA
HETATM   10  C4  UNL     1      23.948   3.257  49.256  1.00  0.00     0.162 A 
HETATM   11  C5  UNL     1      24.600   3.090  50.438  1.00  0.00     0.161 A 
HETATM   12  F1  UNL     1      25.712   3.783  50.672  1.00  0.00    -0.202 F 
HETATM   13  C6  UNL     1      24.102   2.221  51.351  1.00  0.00     0.085 A 
BRANCH   8  14
HETATM   14  C2  UNL     1      21.232   1.086  49.521  1.00  0.00     0.001 C 
HETATM   15  C1  UNL     1      19.972   1.853  49.363  1.00  0.00     0.038 C 
ENDBRANCH   8  14
BRANCH  13  16
HETATM   16  N2  UNL     1      24.830   2.088  52.574  1.00  0.00    -0.353 N 
HETATM   17  H6  UNL     1      24.326   2.646  53.297  1.00  0.00     0.166 HD
BRANCH  16  18
HETATM   18  C7  UNL     1      26.015   1.359  52.843  1.00  0.00     0.034 A 
HETATM   19  C8  UNL     1      26.062   0.048  52.421  1.00  0.00     0.029 A 
HETATM   20  C9  UNL     1      27.193  -0.701  52.664  1.00  0.00     0.004 A 
HETATM   21  C10 UNL     1      28.244  -0.067  53.335  1.00  0.00     0.024 A 
HETATM   22  C11 UNL     1      28.191   1.247  53.755  1.00  0.00     0.036 A 
HETATM   23 CL1  UNL     1      29.563   1.962  54.595  1.00  0.00    -0.084 Cl
HETATM   24  C12 UNL     1      27.044   1.994  53.506  1.00  0.00     0.053 A 
ENDBRANCH  16  18
ENDBRANCH  13  16
ENDBRANCH   6   7
ENDBRANCH   5   6
ENDBRANCH   1   5
TORSDOF 6
ENDMDL
MODEL 4
REMARK VINA RESULT:      -7.0      2.872      5.668
REMARK  6 active torsions:
REMARK  status: ('A' for Active; 'I' for Inactive)
REMARK    1  A    between atoms: C2_2  and  C3_3 
REMARK    2  A    between atoms: C6_8  and  N2_9 
REMARK    3  A    between atoms: N2_9  and  C7_10 
REMARK    4  A    between atoms: C13_17  and  C14_18 
REMARK    5  A    between atoms: C14_18  and  C15_19 
REMARK    6  A    between atoms: C15_19  and  N3_20 
ROOT
HETATM    1  N3  UNL     1      26.744   3.898  50.447  1.00  0.00    -0.325 N 
HETATM    2  C16 UNL     1      25.803   4.572  49.634  1.00  0.00     0.177 C 
HETATM    3  N4  UNL     1      25.017   5.113  48.975  1.00  0.00    -0.172 NA
HETATM    4  H14 UNL     1      27.562   4.409  50.856  1.00  0.00     0.171 HD
ENDROOT
BRANCH   1   5
HETATM    5  C15 UNL     1      26.481   2.477  50.656  1.00  0.00     0.159 C 
BRANCH   5   6
HETATM    6  C14 UNL     1      26.234   2.142  52.065  1.00  0.00     0.009 C 
BRANCH   6   7
HETATM    7  C13 UNL     1      25.919   1.162  52.850  1.00  0.00     0.020 A 
HETATM    8  C3  UNL     1      26.870   0.352  53.412  1.00  0.00     0.064 A 
HETATM    9  N1  UNL     1      26.546  -0.651  54.238  1.00  0.00    -0.257 NA
HETATM   10  C4  UNL     1      25.242  -0.904  54.551  1.00  0.00     0.162 A 
HETATM   11  C5  UNL     1      24.265  -0.124  54.014  1.00  0.00     0.161 A 
HETATM   12  F1  UNL     1      22.994  -0.371  54.318  1.00  0.00    -0.202 F 
HETATM   13  C6  UNL     1      24.611   0.887  53.181  1.00  0.00     0.085 A 
BRANCH   8  14
HETATM   14  C2  UNL     1      28.171   0.438  53.218  1.00  0.00     0.001 C 
HETATM   15  C1  UNL     1      29.087  -0.548  53.841  1.00  0.00     0.038 C 
ENDBRANCH   8  14
BRANCH  13  16
HETATM   16  N2  UNL     1      23.542   1.672  52.647  1.00  0.00    -0.353 N 
HETATM   17  H6  UNL     1      23.426   2.501  53.269  1.00  0.00     0.166 HD
BRANCH  16  18
HETATM   18  C7  UNL     1      22.742   1.445  51.500  1.00  0.00     0.034 A 
HETATM   19  C8  UNL     1      21.696   0.556  51.623  1.00  0.00     0.029 A 
HETATM   20  C9  UNL     1      20.894   0.300  50.533  1.00  0.00     0.004 A 
HETATM   21  C10 UNL     1      21.197   0.976  49.346  1.00  0.00     0.024 A 
HETATM   22  C11 UNL     1      22.246   1.866  49.229  1.00  0.00     0.036 A 
HETATM   23 CL1  UNL     1      22.555   2.670  47.694  1.00  0.00    -0.084 Cl
HETATM   24  C12 UNL     1      23.052   2.116  50.335  1.00  0.00     0.053 A 
ENDBRANCH  16  18
ENDBRANCH  13  16
ENDBRANCH   6   7
ENDBRANCH   5   6
ENDBRANCH   1   5
TORSDOF 6
ENDMDL
MODEL 5
REMARK VINA RESULT:      -7.0      2.951      5.691
REMARK  6 active torsions:
REMARK  status: ('A' for Active; 'I' for Inactive)
REMARK    1  A    between atoms: C2_2  and  C3_3 
REMARK    2  A    between atoms: C6_8  and  N2_9 
REMARK    3  A    between atoms: N2_9  and  C7_10 
REMARK    4  A    between atoms: C13_17  and  C14_18 
REMARK    5  A    between atoms: C14_18  and  C15_19 
REMARK    6  A    between atoms: C15_19  and  N3_20 
ROOT
HETATM    1  N3  UNL     1      26.029   3.976  50.575  1.00  0.00    -0.325 N 
HETATM    2  C16 UNL     1      26.695   4.597  49.493  1.00  0.00     0.177 C 
HETATM    3  N4  UNL     1      27.241   5.089  48.596  1.00  0.00    -0.172 NA
HETATM    4  H14 UNL     1      25.312   4.497  51.134  1.00  0.00     0.171 HD
ENDROOT
BRANCH   1   5
HETATM    5  C15 UNL     1      26.418   2.592  50.834  1.00  0.00     0.159 C 
BRANCH   5   6
HETATM    6  C14 UNL     1      26.137   2.166  52.211  1.00  0.00     0.009 C 
BRANCH   6   7
HETATM    7  C13 UNL     1      25.818   1.133  52.924  1.00  0.00     0.020 A 
HETATM    8  C3  UNL     1      26.765   0.279  53.423  1.00  0.00     0.064 A 
HETATM    9  N1  UNL     1      26.437  -0.779  54.175  1.00  0.00    -0.257 NA
HETATM   10  C4  UNL     1      25.133  -1.047  54.473  1.00  0.00     0.162 A 
HETATM   11  C5  UNL     1      24.159  -0.225  53.996  1.00  0.00     0.161 A 
HETATM   12  F1  UNL     1      22.887  -0.486  54.285  1.00  0.00    -0.202 F 
HETATM   13  C6  UNL     1      24.509   0.842  53.237  1.00  0.00     0.085 A 
BRANCH   8  14
HETATM   14  C2  UNL     1      28.066   0.373  53.232  1.00  0.00     0.001 C 
HETATM   15  C1  UNL     1      28.995  -0.522  53.965  1.00  0.00     0.038 C 
ENDBRANCH   8  14
BRANCH  13  16
HETATM   16  N2  UNL     1      23.443   1.670  52.764  1.00  0.00    -0.353 N 
HETATM   17  H6  UNL     1      23.447   2.539  53.340  1.00  0.00     0.166 HD
BRANCH  16  18
HETATM   18  C7  UNL     1      22.514   1.434  51.720  1.00  0.00     0.034 A 
HETATM   19  C8  UNL     1      22.899   1.772  50.441  1.00  0.00     0.029 A 
HETATM   20  C9  UNL     1      22.027   1.565  49.395  1.00  0.00     0.004 A 
HETATM   21  C10 UNL     1      20.781   1.010  49.705  1.00  0.00     0.024 A 
HETATM   22  C11 UNL     1      20.401   0.673  50.989  1.00  0.00     0.036 A 
HETATM   23 CL1  UNL     1      18.810  -0.019  51.286  1.00  0.00    -0.084 Cl
HETATM   24  C12 UNL     1      21.288   0.888  52.039  1.00  0.00     0.053 A 
ENDBRANCH  16  18
ENDBRANCH  13  16
ENDBRANCH   6   7
ENDBRANCH   5   6
ENDBRANCH   1   5
TORSDOF 6
ENDMDL
MODEL 6
REMARK VINA RESULT:      -6.9      3.252      3.977
REMARK  6 active torsions:
REMARK  status: ('A' for Active; 'I' for Inactive)
REMARK    1  A    between atoms: C2_2  and  C3_3 
REMARK    2  A    between atoms: C6_8  and  N2_9 
REMARK    3  A    between atoms: N2_9  and  C7_10 
REMARK    4  A    between atoms: C13_17  and  C14_18 
REMARK    5  A    between atoms: C14_18  and  C15_19 
REMARK    6  A    between atoms: C15_19  and  N3_20 
ROOT
HETATM    1  N3  UNL     1      24.138   3.942  52.963  1.00  0.00    -0.325 N 
HETATM    2  C16 UNL     1      23.080   4.678  52.379  1.00  0.00     0.177 C 
HETATM    3  N4  UNL     1      22.210   5.266  51.888  1.00  0.00    -0.172 NA
HETATM    4  H14 UNL     1      24.345   4.022  53.988  1.00  0.00     0.171 HD
ENDROOT
BRANCH   1   5
HETATM    5  C15 UNL     1      24.886   3.090  52.042  1.00  0.00     0.159 C 
BRANCH   5   6
HETATM    6  C14 UNL     1      24.178   1.848  51.707  1.00  0.00     0.009 C 
BRANCH   6   7
HETATM    7  C13 UNL     1      23.192   1.093  52.076  1.00  0.00     0.020 A 
HETATM    8  C3  UNL     1      22.028   1.024  51.359  1.00  0.00     0.064 A 
HETATM    9  N1  UNL     1      21.015   0.230  51.731  1.00  0.00    -0.257 NA
HETATM   10  C4  UNL     1      21.109  -0.545  52.850  1.00  0.00     0.162 A 
HETATM   11  C5  UNL     1      22.249  -0.505  53.592  1.00  0.00     0.161 A 
HETATM   12  F1  UNL     1      22.340  -1.259  54.685  1.00  0.00    -0.202 F 
HETATM   13  C6  UNL     1      23.264   0.303  53.202  1.00  0.00     0.085 A 
BRANCH   8  14
HETATM   14  C2  UNL     1      21.754   1.703  50.263  1.00  0.00     0.001 C 
HETATM   15  C1  UNL     1      21.405   0.991  49.010  1.00  0.00     0.038 C 
ENDBRANCH   8  14
BRANCH  13  16
HETATM   16  N2  UNL     1      24.435   0.303  54.021  1.00  0.00    -0.353 N 
HETATM   17  H6  UNL     1      24.165   0.697  54.948  1.00  0.00     0.166 HD
BRANCH  16  18
HETATM   18  C7  UNL     1      25.750  -0.128  53.715  1.00  0.00     0.034 A 
HETATM   19  C8  UNL     1      25.883  -1.304  53.008  1.00  0.00     0.029 A 
HETATM   20  C9  UNL     1      27.142  -1.764  52.691  1.00  0.00     0.004 A 
HETATM   21  C10 UNL     1      28.228  -0.990  53.114  1.00  0.00     0.024 A 
HETATM   22  C11 UNL     1      28.089   0.187  53.821  1.00  0.00     0.036 A 
HETATM   23 CL1  UNL     1      29.514   1.095  54.315  1.00  0.00    -0.084 Cl
HETATM   24  C12 UNL     1      26.813   0.643  54.138  1.00  0.00     0.053 A 
ENDBRANCH  16  18
ENDBRANCH  13  16
ENDBRANCH   6   7
ENDBRANCH   5   6
ENDBRANCH   1   5
TORSDOF 6
ENDMDL
MODEL 7
REMARK VINA RESULT:      -6.9      2.259      4.608
REMARK  6 active torsions:
REMARK  status: ('A' for Active; 'I' for Inactive)
REMARK    1  A    between atoms: C2_2  and  C3_3 
REMARK    2  A    between atoms: C6_8  and  N2_9 
REMARK    3  A    between atoms: N2_9  and  C7_10 
REMARK    4  A    between atoms: C13_17  and  C14_18 
REMARK    5  A    between atoms: C14_18  and  C15_19 
REMARK    6  A    between atoms: C15_19  and  N3_20 
ROOT
HETATM    1  N3  UNL     1      20.919   1.027  53.235  1.00  0.00    -0.325 N 
HETATM    2  C16 UNL     1      19.906   0.420  52.456  1.00  0.00     0.177 C 
HETATM    3  N4  UNL     1      19.087  -0.093  51.816  1.00  0.00    -0.172 NA
HETATM    4  H14 UNL     1      20.674   1.650  54.042  1.00  0.00     0.171 HD
ENDROOT
BRANCH   1   5
HETATM    5  C15 UNL     1      22.287   0.717  52.828  1.00  0.00     0.159 C 
BRANCH   5   6
HETATM    6  C14 UNL     1      23.041   1.903  52.404  1.00  0.00     0.009 C 
BRANCH   6   7
HETATM    7  C13 UNL     1      23.680   2.412  51.399  1.00  0.00     0.020 A 
HETATM    8  C3  UNL     1      23.062   2.666  50.204  1.00  0.00     0.064 A 
HETATM    9  N1  UNL     1      23.719   3.209  49.170  1.00  0.00    -0.257 NA
HETATM   10  C4  UNL     1      25.041   3.530  49.273  1.00  0.00     0.162 A 
HETATM   11  C5  UNL     1      25.693   3.293  50.444  1.00  0.00     0.161 A 
HETATM   12  F1  UNL     1      26.983   3.605  50.545  1.00  0.00    -0.202 F 
HETATM   13  C6  UNL     1      25.014   2.745  51.480  1.00  0.00     0.085 A 
BRANCH   8  14
HETATM   14  C2  UNL     1      21.800   2.415  49.917  1.00  0.00     0.001 C 
HETATM   15  C1  UNL     1      21.441   1.230  49.101  1.00  0.00     0.038 C 
ENDBRANCH   8  14
BRANCH  13  16
HETATM   16  N2  UNL     1      25.751   2.518  52.683  1.00  0.00    -0.353 N 
HETATM   17  H6  UNL     1      25.418   3.213  53.386  1.00  0.00     0.166 HD
BRANCH  16  18
HETATM   18  C7  UNL     1      26.758   1.559  52.957  1.00  0.00     0.034 A 
HETATM   19  C8  UNL     1      27.945   2.019  53.486  1.00  0.00     0.029 A 
HETATM   20  C9  UNL     1      28.954   1.124  53.765  1.00  0.00     0.004 A 
HETATM   21  C10 UNL     1      28.702  -0.224  53.489  1.00  0.00     0.024 A 
HETATM   22  C11 UNL     1      27.511  -0.679  52.959  1.00  0.00     0.036 A 
HETATM   23 CL1  UNL     1      27.284  -2.396  52.642  1.00  0.00    -0.084 Cl
HETATM   24  C12 UNL     1      26.499   0.233  52.680  1.00  0.00     0.053 A 
ENDBRANCH  16  18
ENDBRANCH  13  16
ENDBRANCH   6   7
ENDBRANCH   5   6
ENDBRANCH   1   5
TORSDOF 6
ENDMDL
MODEL 8
REMARK VINA RESULT:      -6.8      3.890      6.409
REMARK  6 active torsions:
REMARK  status: ('A' for Active; 'I' for Inactive)
REMARK    1  A    between atoms: C2_2  and  C3_3 
REMARK    2  A    between atoms: C6_8  and  N2_9 
REMARK    3  A    between atoms: N2_9  and  C7_10 
REMARK    4  A    between atoms: C13_17  and  C14_18 
REMARK    5  A    between atoms: C14_18  and  C15_19 
REMARK    6  A    between atoms: C15_19  and  N3_20 
ROOT
HETATM    1  N3  UNL     1      25.545   3.575  51.632  1.00  0.00    -0.325 N 
HETATM    2  C16 UNL     1      26.289   3.291  50.462  1.00  0.00     0.177 C 
HETATM    3  N4  UNL     1      26.881   3.058  49.493  1.00  0.00    -0.172 NA
HETATM    4  H14 UNL     1      25.946   4.181  52.388  1.00  0.00     0.171 HD
ENDROOT
BRANCH   1   5
HETATM    5  C15 UNL     1      24.217   2.970  51.687  1.00  0.00     0.159 C 
BRANCH   5   6
HETATM    6  C14 UNL     1      24.258   1.517  51.897  1.00  0.00     0.009 C 
BRANCH   6   7
HETATM    7  C13 UNL     1      24.346   0.612  52.819  1.00  0.00     0.020 A 
HETATM    8  C3  UNL     1      25.504  -0.085  53.038  1.00  0.00     0.064 A 
HETATM    9  N1  UNL     1      25.601  -1.009  54.003  1.00  0.00    -0.257 NA
HETATM   10  C4  UNL     1      24.536  -1.292  54.809  1.00  0.00     0.162 A 
HETATM   11  C5  UNL     1      23.366  -0.623  54.624  1.00  0.00     0.161 A 
HETATM   12  F1  UNL     1      22.328  -0.899  55.409  1.00  0.00    -0.202 F 
HETATM   13  C6  UNL     1      23.286   0.310  53.644  1.00  0.00     0.085 A 
BRANCH   8  14
HETATM   14  C2  UNL     1      26.625   0.045  52.357  1.00  0.00     0.001 C 
HETATM   15  C1  UNL     1      27.921  -0.336  52.970  1.00  0.00     0.038 C 
ENDBRANCH   8  14
BRANCH  13  16
HETATM   16  N2  UNL     1      22.032   0.979  53.496  1.00  0.00    -0.353 N 
HETATM   17  H6  UNL     1      22.093   1.873  54.031  1.00  0.00     0.166 HD
BRANCH  16  18
HETATM   18  C7  UNL     1      20.875   0.580  52.781  1.00  0.00     0.034 A 
HETATM   19  C8  UNL     1      20.763   0.997  51.473  1.00  0.00     0.029 A 
HETATM   20  C9  UNL     1      19.654   0.636  50.740  1.00  0.00     0.004 A 
HETATM   21  C10 UNL     1      18.693  -0.150  51.385  1.00  0.00     0.024 A 
HETATM   22  C11 UNL     1      18.811  -0.565  52.696  1.00  0.00     0.036 A 
HETATM   23 CL1  UNL     1      17.549  -1.552  53.427  1.00  0.00    -0.084 Cl
HETATM   24  C12 UNL     1      19.934  -0.194  53.429  1.00  0.00     0.053 A 
ENDBRANCH  16  18
ENDBRANCH  13  16
ENDBRANCH   6   7
ENDBRANCH   5   6
ENDBRANCH   1   5
TORSDOF 6
ENDMDL
MODEL 9
REMARK VINA RESULT:      -6.7      3.646      7.373
REMARK  6 active torsions:
REMARK  status: ('A' for Active; 'I' for Inactive)
REMARK    1  A    between atoms: C2_2  and  C3_3 
REMARK    2  A    between atoms: C6_8  and  N2_9 
REMARK    3  A    between atoms: N2_9  and  C7_10 
REMARK    4  A    between atoms: C13_17  and  C14_18 
REMARK    5  A    between atoms: C14_18  and  C15_19 
REMARK    6  A    between atoms: C15_19  and  N3_20 
ROOT
HETATM    1  N3  UNL     1      21.333  -0.562  53.671  1.00  0.00    -0.325 N 
HETATM    2  C16 UNL     1      22.065  -1.194  54.703  1.00  0.00     0.177 C 
HETATM    3  N4  UNL     1      22.680  -1.700  55.546  1.00  0.00    -0.172 NA
HETATM    4  H14 UNL     1      20.296  -0.430  53.751  1.00  0.00     0.171 HD
ENDROOT
BRANCH   1   5
HETATM    5  C15 UNL     1      22.125  -0.124  52.524  1.00  0.00     0.159 C 
BRANCH   5   6
HETATM    6  C14 UNL     1      23.217   0.785  52.896  1.00  0.00     0.009 C 
BRANCH   6   7
HETATM    7  C13 UNL     1      24.391   1.189  52.528  1.00  0.00     0.020 A 
HETATM    8  C3  UNL     1      25.536   0.578  52.966  1.00  0.00     0.064 A 
HETATM    9  N1  UNL     1      26.749   0.985  52.571  1.00  0.00    -0.257 NA
HETATM   10  C4  UNL     1      26.888   2.035  51.711  1.00  0.00     0.162 A 
HETATM   11  C5  UNL     1      25.776   2.671  51.252  1.00  0.00     0.161 A 
HETATM   12  F1  UNL     1      25.911   3.696  50.414  1.00  0.00    -0.202 F 
HETATM   13  C6  UNL     1      24.556   2.246  51.661  1.00  0.00     0.085 A 
BRANCH   8  14
HETATM   14  C2  UNL     1      25.597  -0.439  53.802  1.00  0.00     0.001 C 
HETATM   15  C1  UNL     1      26.064  -0.234  55.195  1.00  0.00     0.038 C 
ENDBRANCH   8  14
BRANCH  13  16
HETATM   16  N2  UNL     1      23.425   2.953  51.147  1.00  0.00    -0.353 N 
HETATM   17  H6  UNL     1      23.021   3.505  51.934  1.00  0.00     0.166 HD
BRANCH  16  18
HETATM   18  C7  UNL     1      22.885   2.960  49.836  1.00  0.00     0.034 A 
HETATM   19  C8  UNL     1      22.336   1.785  49.370  1.00  0.00     0.029 A 
HETATM   20  C9  UNL     1      21.803   1.744  48.101  1.00  0.00     0.004 A 
HETATM   21  C10 UNL     1      21.853   2.924  47.351  1.00  0.00     0.024 A 
HETATM   22  C11 UNL     1      22.404   4.099  47.824  1.00  0.00     0.036 A 
HETATM   23 CL1  UNL     1      22.423   5.536  46.807  1.00  0.00    -0.084 Cl
HETATM   24  C12 UNL     1      22.941   4.130  49.107  1.00  0.00     0.053 A 
ENDBRANCH  16  18
ENDBRANCH  13  16
ENDBRANCH   6   7
ENDBRANCH   5   6
ENDBRANCH   1   5
TORSDOF 6
ENDMDL
