MODEL 1
REMARK VINA RESULT:      -7.5      0.000      0.000
REMARK  1 active torsions:
REMARK  status: ('A' for Active; 'I' for Inactive)
REMARK    1  A    between atoms: N1_2  and  C2_3 
ROOT
HETATM    1  C2  UNL     1      20.598   2.881  51.991  1.00  0.00     0.025 C 
HETATM    2  C3  UNL     1      21.749   3.459  52.067  1.00  0.00    -0.021 C 
HETATM    3  C4  UNL     1      21.826   4.966  52.024  1.00  0.00     0.051 C 
HETATM    4  C5  UNL     1      23.161   3.279  52.006  1.00  0.00     0.064 A 
HETATM    5  C6  UNL     1      23.196   3.298  50.564  1.00  0.00     0.139 A 
HETATM    6  N2  UNL     1      24.253   3.235  49.684  1.00  0.00    -0.224 NA
HETATM    7  C7  UNL     1      25.500   3.127  50.119  1.00  0.00     0.237 A 
HETATM    8  N3  UNL     1      25.486   3.088  51.447  1.00  0.00    -0.223 NA
HETATM    9  C8  UNL     1      24.449   3.152  52.274  1.00  0.00     0.153 A 
HETATM   10  N4  UNL     1      25.329   2.835  53.418  1.00  0.00    -0.264 N 
HETATM   11  S1  UNL     1      25.827   1.091  53.535  1.00  0.00     0.254 S 
HETATM   12  O1  UNL     1      26.517   0.837  52.248  1.00  0.00    -0.201 OA
HETATM   13  O2  UNL     1      26.713   0.989  54.731  1.00  0.00    -0.201 OA
HETATM   14  C9  UNL     1      24.368   0.221  53.770  1.00  0.00     0.131 C 
HETATM   15  C10 UNL     1      23.216   0.050  53.173  1.00  0.00     0.015 C 
HETATM   16  C11 UNL     1      22.531   0.471  51.984  1.00  0.00     0.021 C 
HETATM   17  C12 UNL     1      21.974   0.920  50.823  1.00  0.00     0.003 C 
HETATM   18  C13 UNL     1      22.264   1.673  49.532  1.00  0.00     0.172 C 
HETATM   19  N5  UNL     1      21.951   3.068  49.704  1.00  0.00    -0.369 N 
HETATM   20  N6  UNL     1      20.607   0.513  51.231  1.00  0.00    -0.289 N 
HETATM   21  C14 UNL     1      20.606   1.465  52.310  1.00  0.00     0.149 C 
HETATM   22  H9  UNL     1      25.489   3.741  53.954  1.00  0.00     0.180 HD
HETATM   23  H15 UNL     1      21.196   3.706  49.388  1.00  0.00     0.161 HD
HETATM   24  H16 UNL     1      20.813  -0.099  50.415  1.00  0.00     0.127 HD
ENDROOT
BRANCH   1  25
HETATM   25  N1  UNL     1      19.443   3.676  51.839  1.00  0.00    -0.396 N 
HETATM   26  C1  UNL     1      18.062   3.687  51.399  1.00  0.00     0.146 C 
HETATM   27  H4  UNL     1      19.731   4.596  52.183  1.00  0.00     0.159 HD
ENDBRANCH   1  25
TORSDOF 1
ENDMDL
MODEL 2
REMARK VINA RESULT:      -7.3      2.472      4.754
REMARK  1 active torsions:
REMARK  status: ('A' for Active; 'I' for Inactive)
REMARK    1  A    between atoms: N1_2  and  C2_3 
ROOT
HETATM    1  C2  UNL     1      25.201   2.637  50.588  1.00  0.00     0.025 C 
HETATM    2  C3  UNL     1      23.941   2.409  50.430  1.00  0.00    -0.021 C 
HETATM    3  C4  UNL     1      23.285   2.750  49.114  1.00  0.00     0.051 C 
HETATM    4  C5  UNL     1      22.714   2.087  51.080  1.00  0.00     0.064 A 
HETATM    5  C6  UNL     1      22.463   3.448  51.486  1.00  0.00     0.139 A 
HETATM    6  N2  UNL     1      21.394   4.012  52.147  1.00  0.00    -0.224 NA
HETATM    7  C7  UNL     1      20.364   3.275  52.534  1.00  0.00     0.237 A 
HETATM    8  N3  UNL     1      20.587   2.013  52.185  1.00  0.00    -0.223 NA
HETATM    9  C8  UNL     1      21.629   1.495  51.546  1.00  0.00     0.153 A 
HETATM   10  N4  UNL     1      21.117   0.131  51.797  1.00  0.00    -0.264 N 
HETATM   11  S1  UNL     1      21.351  -0.468  53.497  1.00  0.00     0.254 S 
HETATM   12  O1  UNL     1      20.631   0.529  54.323  1.00  0.00    -0.201 OA
HETATM   13  O2  UNL     1      20.758  -1.838  53.542  1.00  0.00    -0.201 OA
HETATM   14  C9  UNL     1      23.049  -0.522  53.725  1.00  0.00     0.131 C 
HETATM   15  C10 UNL     1      24.078   0.286  53.666  1.00  0.00     0.015 C 
HETATM   16  C11 UNL     1      24.365   1.666  53.399  1.00  0.00     0.021 C 
HETATM   17  C12 UNL     1      24.529   2.995  53.142  1.00  0.00     0.003 C 
HETATM   18  C13 UNL     1      23.786   4.307  52.932  1.00  0.00     0.172 C 
HETATM   19  N5  UNL     1      23.560   4.515  51.524  1.00  0.00    -0.369 N 
HETATM   20  N6  UNL     1      25.992   2.854  52.936  1.00  0.00    -0.289 N 
HETATM   21  C14 UNL     1      25.785   2.034  51.771  1.00  0.00     0.149 C 
HETATM   22  H9  UNL     1      20.702  -0.223  50.883  1.00  0.00     0.180 HD
HETATM   23  H15 UNL     1      23.956   5.131  50.790  1.00  0.00     0.161 HD
HETATM   24  H16 UNL     1      25.920   3.447  53.787  1.00  0.00     0.127 HD
ENDROOT
BRANCH   1  25
HETATM   25  N1  UNL     1      25.926   3.229  49.533  1.00  0.00    -0.396 N 
HETATM   26  C1  UNL     1      26.883   4.260  49.184  1.00  0.00     0.146 C 
HETATM   27  H4  UNL     1      25.635   2.697  48.707  1.00  0.00     0.159 HD
ENDBRANCH   1  25
TORSDOF 1
ENDMDL
MODEL 3
REMARK VINA RESULT:      -7.0      9.181     11.899
REMARK  1 active torsions:
REMARK  status: ('A' for Active; 'I' for Inactive)
REMARK    1  A    between atoms: N1_2  and  C2_3 
ROOT
HETATM    1  C2  UNL     1      29.966   6.231  48.014  1.00  0.00     0.025 C 
HETATM    2  C3  UNL     1      31.094   5.844  47.521  1.00  0.00    -0.021 C 
HETATM    3  C4  UNL     1      31.277   4.397  47.133  1.00  0.00     0.051 C 
HETATM    4  C5  UNL     1      32.460   6.185  47.304  1.00  0.00     0.064 A 
HETATM    5  C6  UNL     1      32.864   5.813  48.638  1.00  0.00     0.139 A 
HETATM    6  N2  UNL     1      34.104   5.792  49.235  1.00  0.00    -0.224 NA
HETATM    7  C7  UNL     1      35.189   6.166  48.572  1.00  0.00     0.237 A 
HETATM    8  N3  UNL     1      34.833   6.532  47.345  1.00  0.00    -0.223 NA
HETATM    9  C8  UNL     1      33.626   6.541  46.793  1.00  0.00     0.153 A 
HETATM   10  N4  UNL     1      34.163   7.244  45.609  1.00  0.00    -0.264 N 
HETATM   11  S1  UNL     1      34.501   9.012  45.862  1.00  0.00     0.254 S 
HETATM   12  O1  UNL     1      35.479   9.026  46.975  1.00  0.00    -0.201 OA
HETATM   13  O2  UNL     1      35.044   9.522  44.569  1.00  0.00    -0.201 OA
HETATM   14  C9  UNL     1      32.978   9.716  46.213  1.00  0.00     0.131 C 
HETATM   15  C10 UNL     1      32.007   9.582  47.083  1.00  0.00     0.015 C 
HETATM   16  C11 UNL     1      31.677   8.793  48.235  1.00  0.00     0.021 C 
HETATM   17  C12 UNL     1      31.465   8.001  49.324  1.00  0.00     0.003 C 
HETATM   18  C13 UNL     1      32.124   6.996  50.260  1.00  0.00     0.172 C 
HETATM   19  N5  UNL     1      31.867   5.659  49.790  1.00  0.00    -0.369 N 
HETATM   20  N6  UNL     1      30.016   8.316  49.368  1.00  0.00    -0.289 N 
HETATM   21  C14 UNL     1      29.801   7.670  48.100  1.00  0.00     0.149 C 
HETATM   22  H9  UNL     1      34.238   6.528  44.825  1.00  0.00     0.180 HD
HETATM   23  H15 UNL     1      31.261   4.870  50.083  1.00  0.00     0.161 HD
HETATM   24  H16 UNL     1      30.383   8.727  50.250  1.00  0.00     0.127 HD
ENDROOT
BRANCH   1  25
HETATM   25  N1  UNL     1      28.942   5.280  48.203  1.00  0.00    -0.396 N 
HETATM   26  C1  UNL     1      27.562   5.089  48.604  1.00  0.00     0.146 C 
HETATM   27  H4  UNL     1      29.382   4.390  47.951  1.00  0.00     0.159 HD
ENDBRANCH   1  25
TORSDOF 1
ENDMDL
MODEL 4
REMARK VINA RESULT:      -6.9      7.607     10.040
REMARK  1 active torsions:
REMARK  status: ('A' for Active; 'I' for Inactive)
REMARK    1  A    between atoms: N1_2  and  C2_3 
ROOT
HETATM    1  C2  UNL     1      28.457  10.212  46.940  1.00  0.00     0.025 C 
HETATM    2  C3  UNL     1      28.685   8.981  46.627  1.00  0.00    -0.021 C 
HETATM    3  C4  UNL     1      28.137   8.431  45.332  1.00  0.00     0.051 C 
HETATM    4  C5  UNL     1      29.143   7.715  47.094  1.00  0.00     0.064 A 
HETATM    5  C6  UNL     1      27.879   7.375  47.700  1.00  0.00     0.139 A 
HETATM    6  N2  UNL     1      27.463   6.230  48.343  1.00  0.00    -0.224 NA
HETATM    7  C7  UNL     1      28.281   5.199  48.501  1.00  0.00     0.237 A 
HETATM    8  N3  UNL     1      29.458   5.503  47.965  1.00  0.00    -0.223 NA
HETATM    9  C8  UNL     1      29.833   6.617  47.348  1.00  0.00     0.153 A 
HETATM   10  N4  UNL     1      31.231   6.139  47.314  1.00  0.00    -0.264 N 
HETATM   11  S1  UNL     1      32.110   6.245  48.902  1.00  0.00     0.254 S 
HETATM   12  O1  UNL     1      31.288   5.415  49.814  1.00  0.00    -0.201 OA
HETATM   13  O2  UNL     1      33.480   5.706  48.657  1.00  0.00    -0.201 OA
HETATM   14  C9  UNL     1      32.162   7.917  49.277  1.00  0.00     0.131 C 
HETATM   15  C10 UNL     1      31.331   8.914  49.453  1.00  0.00     0.015 C 
HETATM   16  C11 UNL     1      29.919   9.169  49.453  1.00  0.00     0.021 C 
HETATM   17  C12 UNL     1      28.562   9.302  49.442  1.00  0.00     0.003 C 
HETATM   18  C13 UNL     1      27.252   8.529  49.389  1.00  0.00     0.172 C 
HETATM   19  N5  UNL     1      26.809   8.421  48.023  1.00  0.00    -0.369 N 
HETATM   20  N6  UNL     1      28.631  10.782  49.354  1.00  0.00    -0.289 N 
HETATM   21  C14 UNL     1      29.242  10.712  48.052  1.00  0.00     0.149 C 
HETATM   22  H9  UNL     1      31.432   5.821  46.318  1.00  0.00     0.180 HD
HETATM   23  H15 UNL     1      26.066   8.856  47.444  1.00  0.00     0.161 HD
HETATM   24  H16 UNL     1      28.196  10.611  50.283  1.00  0.00     0.127 HD
ENDROOT
BRANCH   1  25
HETATM   25  N1  UNL     1      27.675  11.003  46.073  1.00  0.00    -0.396 N 
HETATM   26  C1  UNL     1      27.683  12.144  45.180  1.00  0.00     0.146 C 
HETATM   27  H4  UNL     1      26.746  10.575  46.120  1.00  0.00     0.159 HD
ENDBRANCH   1  25
TORSDOF 1
ENDMDL
MODEL 5
REMARK VINA RESULT:      -6.8     11.206     12.480
REMARK  1 active torsions:
REMARK  status: ('A' for Active; 'I' for Inactive)
REMARK    1  A    between atoms: N1_2  and  C2_3 
ROOT
HETATM    1  C2  UNL     1      31.530   8.701  46.798  1.00  0.00     0.025 C 
HETATM    2  C3  UNL     1      31.961   7.970  47.770  1.00  0.00    -0.021 C 
HETATM    3  C4  UNL     1      31.680   8.387  49.193  1.00  0.00     0.051 C 
HETATM    4  C5  UNL     1      32.825   6.900  48.142  1.00  0.00     0.064 A 
HETATM    5  C6  UNL     1      33.997   7.739  48.194  1.00  0.00     0.139 A 
HETATM    6  N2  UNL     1      35.297   7.457  48.552  1.00  0.00    -0.224 NA
HETATM    7  C7  UNL     1      35.654   6.235  48.920  1.00  0.00     0.237 A 
HETATM    8  N3  UNL     1      34.590   5.443  48.859  1.00  0.00    -0.223 NA
HETATM    9  C8  UNL     1      33.344   5.742  48.512  1.00  0.00     0.153 A 
HETATM   10  N4  UNL     1      32.982   4.309  48.537  1.00  0.00    -0.264 N 
HETATM   11  S1  UNL     1      33.576   3.349  47.113  1.00  0.00     0.254 S 
HETATM   12  O1  UNL     1      35.047   3.526  47.159  1.00  0.00    -0.201 OA
HETATM   13  O2  UNL     1      33.124   1.945  47.339  1.00  0.00    -0.201 OA
HETATM   14  C9  UNL     1      32.796   4.037  45.750  1.00  0.00     0.131 C 
HETATM   15  C10 UNL     1      32.686   5.202  45.161  1.00  0.00     0.015 C 
HETATM   16  C11 UNL     1      33.165   6.547  45.307  1.00  0.00     0.021 C 
HETATM   17  C12 UNL     1      33.686   7.787  45.527  1.00  0.00     0.003 C 
HETATM   18  C13 UNL     1      34.703   8.565  46.351  1.00  0.00     0.172 C 
HETATM   19  N5  UNL     1      34.061   9.112  47.519  1.00  0.00    -0.369 N 
HETATM   20  N6  UNL     1      32.708   8.443  44.623  1.00  0.00    -0.289 N 
HETATM   21  C14 UNL     1      31.615   8.084  45.488  1.00  0.00     0.149 C 
HETATM   22  H9  UNL     1      32.424   4.141  49.428  1.00  0.00     0.180 HD
HETATM   23  H15 UNL     1      33.750  10.052  47.826  1.00  0.00     0.161 HD
HETATM   24  H16 UNL     1      33.621   8.593  44.148  1.00  0.00     0.127 HD
ENDROOT
BRANCH   1  25
HETATM   25  N1  UNL     1      30.831   9.890  47.095  1.00  0.00    -0.396 N 
HETATM   26  C1  UNL     1      30.881  11.337  47.048  1.00  0.00     0.146 C 
HETATM   27  H4  UNL     1      29.951   9.561  47.504  1.00  0.00     0.159 HD
ENDBRANCH   1  25
TORSDOF 1
ENDMDL
MODEL 6
REMARK VINA RESULT:      -6.8      8.895     11.460
REMARK  1 active torsions:
REMARK  status: ('A' for Active; 'I' for Inactive)
REMARK    1  A    between atoms: N1_2  and  C2_3 
ROOT
HETATM    1  C2  UNL     1      28.685   8.551  49.054  1.00  0.00     0.025 C 
HETATM    2  C3  UNL     1      29.016   7.916  47.981  1.00  0.00    -0.021 C 
HETATM    3  C4  UNL     1      28.172   6.754  47.516  1.00  0.00     0.051 C 
HETATM    4  C5  UNL     1      30.037   7.700  47.011  1.00  0.00     0.064 A 
HETATM    5  C6  UNL     1      30.757   6.765  47.841  1.00  0.00     0.139 A 
HETATM    6  N2  UNL     1      31.889   6.021  47.592  1.00  0.00    -0.224 NA
HETATM    7  C7  UNL     1      32.519   6.102  46.429  1.00  0.00     0.237 A 
HETATM    8  N3  UNL     1      31.881   6.975  45.658  1.00  0.00    -0.223 NA
HETATM    9  C8  UNL     1      30.787   7.680  45.923  1.00  0.00     0.153 A 
HETATM   10  N4  UNL     1      30.966   8.446  44.672  1.00  0.00    -0.264 N 
HETATM   11  S1  UNL     1      32.277   9.703  44.730  1.00  0.00     0.254 S 
HETATM   12  O1  UNL     1      33.495   8.925  45.055  1.00  0.00    -0.201 OA
HETATM   13  O2  UNL     1      32.303  10.342  43.381  1.00  0.00    -0.201 OA
HETATM   14  C9  UNL     1      31.776  10.819  45.932  1.00  0.00     0.131 C 
HETATM   15  C10 UNL     1      31.454  10.822  47.201  1.00  0.00     0.015 C 
HETATM   16  C11 UNL     1      31.355   9.908  48.303  1.00  0.00     0.021 C 
HETATM   17  C12 UNL     1      31.307   8.962  49.284  1.00  0.00     0.003 C 
HETATM   18  C13 UNL     1      31.668   7.522  49.622  1.00  0.00     0.172 C 
HETATM   19  N5  UNL     1      30.542   6.665  49.353  1.00  0.00    -0.369 N 
HETATM   20  N6  UNL     1      30.499   9.824  50.182  1.00  0.00    -0.289 N 
HETATM   21  C14 UNL     1      29.390   9.801  49.264  1.00  0.00     0.149 C 
HETATM   22  H9  UNL     1      30.253   8.078  43.972  1.00  0.00     0.180 HD
HETATM   23  H15 UNL     1      29.839   6.159  49.923  1.00  0.00     0.161 HD
HETATM   24  H16 UNL     1      31.400   9.716  50.690  1.00  0.00     0.127 HD
ENDROOT
BRANCH   1  25
HETATM   25  N1  UNL     1      27.556   8.120  49.782  1.00  0.00    -0.396 N 
HETATM   26  C1  UNL     1      26.194   8.443  50.156  1.00  0.00     0.146 C 
HETATM   27  H4  UNL     1      27.853   7.229  50.192  1.00  0.00     0.159 HD
ENDBRANCH   1  25
TORSDOF 1
ENDMDL
MODEL 7
REMARK VINA RESULT:      -6.8      3.883      5.715
REMARK  1 active torsions:
REMARK  status: ('A' for Active; 'I' for Inactive)
REMARK    1  A    between atoms: N1_2  and  C2_3 
ROOT
HETATM    1  C2  UNL     1      25.444   3.248  51.615  1.00  0.00     0.025 C 
HETATM    2  C3  UNL     1      25.154   3.344  50.361  1.00  0.00    -0.021 C 
HETATM    3  C4  UNL     1      26.228   3.093  49.331  1.00  0.00     0.051 C 
HETATM    4  C5  UNL     1      24.195   3.792  49.408  1.00  0.00     0.064 A 
HETATM    5  C6  UNL     1      24.648   5.160  49.455  1.00  0.00     0.139 A 
HETATM    6  N2  UNL     1      24.248   6.270  48.744  1.00  0.00    -0.224 NA
HETATM    7  C7  UNL     1      23.283   6.192  47.840  1.00  0.00     0.237 A 
HETATM    8  N3  UNL     1      22.839   4.941  47.797  1.00  0.00    -0.223 NA
HETATM    9  C8  UNL     1      23.244   3.886  48.495  1.00  0.00     0.153 A 
HETATM   10  N4  UNL     1      22.119   3.090  47.962  1.00  0.00    -0.264 N 
HETATM   11  S1  UNL     1      20.503   3.464  48.704  1.00  0.00     0.254 S 
HETATM   12  O1  UNL     1      20.313   4.906  48.421  1.00  0.00    -0.201 OA
HETATM   13  O2  UNL     1      19.516   2.575  48.025  1.00  0.00    -0.201 OA
HETATM   14  C9  UNL     1      20.664   3.057  50.362  1.00  0.00     0.131 C 
HETATM   15  C10 UNL     1      21.420   3.369  51.385  1.00  0.00     0.015 C 
HETATM   16  C11 UNL     1      22.519   4.235  51.704  1.00  0.00     0.021 C 
HETATM   17  C12 UNL     1      23.552   5.101  51.906  1.00  0.00     0.003 C 
HETATM   18  C13 UNL     1      24.342   6.240  51.276  1.00  0.00     0.172 C 
HETATM   19  N5  UNL     1      25.500   5.710  50.602  1.00  0.00    -0.369 N 
HETATM   20  N6  UNL     1      23.942   4.458  53.185  1.00  0.00    -0.289 N 
HETATM   21  C14 UNL     1      24.298   3.240  52.506  1.00  0.00     0.149 C 
HETATM   22  H9  UNL     1      22.518   2.436  47.223  1.00  0.00     0.180 HD
HETATM   23  H15 UNL     1      26.521   5.688  50.782  1.00  0.00     0.161 HD
HETATM   24  H16 UNL     1      23.630   5.407  53.473  1.00  0.00     0.127 HD
ENDROOT
BRANCH   1  25
HETATM   25  N1  UNL     1      26.768   2.938  51.988  1.00  0.00    -0.396 N 
HETATM   26  C1  UNL     1      27.595   2.122  52.855  1.00  0.00     0.146 C 
HETATM   27  H4  UNL     1      27.340   3.548  51.396  1.00  0.00     0.159 HD
ENDBRANCH   1  25
TORSDOF 1
ENDMDL
MODEL 8
REMARK VINA RESULT:      -6.7      8.419     10.705
REMARK  1 active torsions:
REMARK  status: ('A' for Active; 'I' for Inactive)
REMARK    1  A    between atoms: N1_2  and  C2_3 
ROOT
HETATM    1  C2  UNL     1      28.326   7.617  47.164  1.00  0.00     0.025 C 
HETATM    2  C3  UNL     1      29.020   6.598  47.547  1.00  0.00    -0.021 C 
HETATM    3  C4  UNL     1      28.380   5.554  48.429  1.00  0.00     0.051 C 
HETATM    4  C5  UNL     1      30.325   6.037  47.648  1.00  0.00     0.064 A 
HETATM    5  C6  UNL     1      30.648   6.765  48.850  1.00  0.00     0.139 A 
HETATM    6  N2  UNL     1      31.766   6.735  49.654  1.00  0.00    -0.224 NA
HETATM    7  C7  UNL     1      32.792   5.947  49.368  1.00  0.00     0.237 A 
HETATM    8  N3  UNL     1      32.521   5.282  48.251  1.00  0.00    -0.223 NA
HETATM    9  C8  UNL     1      31.431   5.329  47.494  1.00  0.00     0.153 A 
HETATM   10  N4  UNL     1      32.094   4.496  46.469  1.00  0.00    -0.264 N 
HETATM   11  S1  UNL     1      33.323   5.372  45.456  1.00  0.00     0.254 S 
HETATM   12  O1  UNL     1      34.303   5.873  46.449  1.00  0.00    -0.201 OA
HETATM   13  O2  UNL     1      33.879   4.362  44.509  1.00  0.00    -0.201 OA
HETATM   14  C9  UNL     1      32.439   6.582  44.622  1.00  0.00     0.131 C 
HETATM   15  C10 UNL     1      31.660   7.598  44.896  1.00  0.00     0.015 C 
HETATM   16  C11 UNL     1      31.123   8.284  46.036  1.00  0.00     0.021 C 
HETATM   17  C12 UNL     1      30.677   8.871  47.183  1.00  0.00     0.003 C 
HETATM   18  C13 UNL     1      30.838   8.890  48.697  1.00  0.00     0.172 C 
HETATM   19  N5  UNL     1      29.872   8.007  49.298  1.00  0.00    -0.369 N 
HETATM   20  N6  UNL     1      29.616   9.628  46.474  1.00  0.00    -0.289 N 
HETATM   21  C14 UNL     1      28.937   8.410  46.114  1.00  0.00     0.149 C 
HETATM   22  H9  UNL     1      31.689   3.515  46.549  1.00  0.00     0.180 HD
HETATM   23  H15 UNL     1      28.990   8.121  49.832  1.00  0.00     0.161 HD
HETATM   24  H16 UNL     1      30.252  10.370  46.828  1.00  0.00     0.127 HD
ENDROOT
BRANCH   1  25
HETATM   25  N1  UNL     1      26.993   7.740  47.608  1.00  0.00    -0.396 N 
HETATM   26  C1  UNL     1      25.606   7.800  47.191  1.00  0.00     0.146 C 
HETATM   27  H4  UNL     1      27.078   7.817  48.626  1.00  0.00     0.159 HD
ENDBRANCH   1  25
TORSDOF 1
ENDMDL
MODEL 9
REMARK VINA RESULT:      -6.7      2.390      4.524
REMARK  1 active torsions:
REMARK  status: ('A' for Active; 'I' for Inactive)
REMARK    1  A    between atoms: N1_2  and  C2_3 
ROOT
HETATM    1  C2  UNL     1      23.726   4.483  49.585  1.00  0.00     0.025 C 
HETATM    2  C3  UNL     1      22.776   3.611  49.541  1.00  0.00    -0.021 C 
HETATM    3  C4  UNL     1      21.992   3.432  48.265  1.00  0.00     0.051 C 
HETATM    4  C5  UNL     1      21.933   2.753  50.305  1.00  0.00     0.064 A 
HETATM    5  C6  UNL     1      21.011   3.808  50.649  1.00  0.00     0.139 A 
HETATM    6  N2  UNL     1      19.831   3.782  51.358  1.00  0.00    -0.224 NA
HETATM    7  C7  UNL     1      19.365   2.651  51.870  1.00  0.00     0.237 A 
HETATM    8  N3  UNL     1      20.213   1.671  51.579  1.00  0.00    -0.223 NA
HETATM    9  C8  UNL     1      21.347   1.723  50.891  1.00  0.00     0.153 A 
HETATM   10  N4  UNL     1      21.648   0.325  51.262  1.00  0.00    -0.264 N 
HETATM   11  S1  UNL     1      22.227   0.099  52.970  1.00  0.00     0.254 S 
HETATM   12  O1  UNL     1      21.117   0.638  53.790  1.00  0.00    -0.201 OA
HETATM   13  O2  UNL     1      22.456  -1.366  53.143  1.00  0.00    -0.201 OA
HETATM   14  C9  UNL     1      23.701   0.970  53.065  1.00  0.00     0.131 C 
HETATM   15  C10 UNL     1      24.139   2.190  52.876  1.00  0.00     0.015 C 
HETATM   16  C11 UNL     1      23.638   3.482  52.505  1.00  0.00     0.021 C 
HETATM   17  C12 UNL     1      23.060   4.667  52.158  1.00  0.00     0.003 C 
HETATM   18  C13 UNL     1      21.726   5.364  51.931  1.00  0.00     0.172 C 
HETATM   19  N5  UNL     1      21.373   5.291  50.536  1.00  0.00    -0.369 N 
HETATM   20  N6  UNL     1      24.365   5.300  51.845  1.00  0.00    -0.289 N 
HETATM   21  C14 UNL     1      24.585   4.391  50.751  1.00  0.00     0.149 C 
HETATM   22  H9  UNL     1      21.452  -0.278  50.406  1.00  0.00     0.180 HD
HETATM   23  H15 UNL     1      21.354   5.952  49.737  1.00  0.00     0.161 HD
HETATM   24  H16 UNL     1      24.019   5.842  52.663  1.00  0.00     0.127 HD
ENDROOT
BRANCH   1  25
HETATM   25  N1  UNL     1      23.986   5.267  48.441  1.00  0.00    -0.396 N 
HETATM   26  C1  UNL     1      24.023   6.616  47.913  1.00  0.00     0.146 C 
HETATM   27  H4  UNL     1      24.246   4.581  47.727  1.00  0.00     0.159 HD
ENDBRANCH   1  25
TORSDOF 1
ENDMDL
