MODEL 1
REMARK VINA RESULT:      -7.0      0.000      0.000
REMARK  3 active torsions:
REMARK  status: ('A' for Active; 'I' for Inactive)
REMARK    1  A    between atoms: C2_2  and  C3_3 
REMARK    2  A    between atoms: C3_3  and  O1_4 
REMARK    3  A    between atoms: C11_16  and  O3_17 
ROOT
HETATM    1  C3  UNL     1      25.065   1.370  52.597  1.00  0.00     0.119 A 
HETATM    2  C5  UNL     1      23.623   1.067  52.734  1.00  0.00     0.053 A 
HETATM    3  C6  UNL     1      23.848  -0.014  53.359  1.00  0.00     0.098 A 
HETATM    4  O2  UNL     1      23.345  -1.159  54.004  1.00  0.00    -0.216 OA
HETATM    5  N1  UNL     1      23.533  -1.612  55.313  1.00  0.00    -0.121 NA
HETATM    6  C7  UNL     1      24.519  -1.298  56.079  1.00  0.00     0.265 C 
HETATM    7  N2  UNL     1      25.601  -0.438  55.755  1.00  0.00    -0.223 NA
HETATM    8  C8  UNL     1      25.934   0.154  54.638  1.00  0.00     0.145 C 
HETATM    9  N3  UNL     1      27.136   0.893  54.941  1.00  0.00    -0.248 NA
HETATM   10  C9  UNL     1      28.345   0.787  54.489  1.00  0.00     0.098 C 
HETATM   11  C10 UNL     1      29.210   0.017  53.550  1.00  0.00     0.111 C 
HETATM   12  C11 UNL     1      28.452  -1.251  53.240  1.00  0.00     0.046 C 
HETATM   13  C13 UNL     1      27.201  -1.435  52.834  1.00  0.00     0.007 C 
HETATM   14  C14 UNL     1      25.857  -0.968  52.436  1.00  0.00     0.058 C 
HETATM   15  C15 UNL     1      25.286   0.121  53.314  1.00  0.00     0.114 A 
ENDROOT
BRANCH   1  16
HETATM   16  C2  UNL     1      25.290   2.667  53.343  1.00  0.00     0.006 C 
HETATM   17  C1  UNL     1      24.348   3.618  53.469  1.00  0.00     0.010 C 
ENDBRANCH   1  16
BRANCH   1  18
HETATM   18  O1  UNL     1      25.456   1.478  51.254  1.00  0.00    -0.375 OA
HETATM   19  C4  UNL     1      26.612   2.214  51.131  1.00  0.00     0.203 C 
ENDBRANCH   1  18
BRANCH  12  20
HETATM   20  O3  UNL     1      29.233  -2.385  53.422  1.00  0.00    -0.360 OA
HETATM   21  C12 UNL     1      30.440  -2.244  54.146  1.00  0.00     0.209 C 
ENDBRANCH  12  20
TORSDOF 3
ENDMDL
MODEL 2
REMARK VINA RESULT:      -6.2      3.101      5.834
REMARK  3 active torsions:
REMARK  status: ('A' for Active; 'I' for Inactive)
REMARK    1  A    between atoms: C2_2  and  C3_3 
REMARK    2  A    between atoms: C3_3  and  O1_4 
REMARK    3  A    between atoms: C11_16  and  O3_17 
ROOT
HETATM    1  C3  UNL     1      25.580   1.597  52.948  1.00  0.00     0.119 A 
HETATM    2  C5  UNL     1      24.834   0.516  53.628  1.00  0.00     0.053 A 
HETATM    3  C6  UNL     1      23.714   0.948  53.217  1.00  0.00     0.098 A 
HETATM    4  O2  UNL     1      22.314   0.813  53.172  1.00  0.00    -0.216 OA
HETATM    5  N1  UNL     1      21.456   0.674  52.078  1.00  0.00    -0.121 NA
HETATM    6  C7  UNL     1      21.718   1.039  50.871  1.00  0.00     0.265 C 
HETATM    7  N2  UNL     1      22.914   1.649  50.414  1.00  0.00    -0.223 NA
HETATM    8  C8  UNL     1      23.972   2.075  51.054  1.00  0.00     0.145 C 
HETATM    9  N3  UNL     1      24.850   2.599  50.037  1.00  0.00    -0.248 NA
HETATM   10  C9  UNL     1      25.297   3.796  49.823  1.00  0.00     0.098 C 
HETATM   11  C10 UNL     1      25.260   5.198  50.329  1.00  0.00     0.111 C 
HETATM   12  C11 UNL     1      24.057   5.273  51.238  1.00  0.00     0.046 C 
HETATM   13  C13 UNL     1      23.687   4.498  52.250  1.00  0.00     0.007 C 
HETATM   14  C14 UNL     1      23.851   3.352  53.168  1.00  0.00     0.058 C 
HETATM   15  C15 UNL     1      24.277   2.067  52.497  1.00  0.00     0.114 A 
ENDROOT
BRANCH   1  16
HETATM   16  C2  UNL     1      26.477   0.912  51.939  1.00  0.00     0.006 C 
HETATM   17  C1  UNL     1      26.718  -0.411  51.945  1.00  0.00     0.010 C 
ENDBRANCH   1  16
BRANCH   1  18
HETATM   18  O1  UNL     1      26.325   2.373  53.849  1.00  0.00    -0.375 OA
HETATM   19  C4  UNL     1      27.667   2.328  53.552  1.00  0.00     0.203 C 
ENDBRANCH   1  18
BRANCH  12  20
HETATM   20  O3  UNL     1      23.232   6.347  50.926  1.00  0.00    -0.360 OA
HETATM   21  C12 UNL     1      23.817   7.633  50.876  1.00  0.00     0.209 C 
ENDBRANCH  12  20
TORSDOF 3
ENDMDL
MODEL 3
REMARK VINA RESULT:      -5.9      4.133      7.454
REMARK  3 active torsions:
REMARK  status: ('A' for Active; 'I' for Inactive)
REMARK    1  A    between atoms: C2_2  and  C3_3 
REMARK    2  A    between atoms: C3_3  and  O1_4 
REMARK    3  A    between atoms: C11_16  and  O3_17 
ROOT
HETATM    1  C3  UNL     1      24.757   2.294  51.618  1.00  0.00     0.119 A 
HETATM    2  C5  UNL     1      26.137   2.184  51.095  1.00  0.00     0.053 A 
HETATM    3  C6  UNL     1      25.948   3.097  50.235  1.00  0.00     0.098 A 
HETATM    4  O2  UNL     1      26.454   3.886  49.185  1.00  0.00    -0.216 OA
HETATM    5  N1  UNL     1      26.554   5.275  49.068  1.00  0.00    -0.121 NA
HETATM    6  C7  UNL     1      25.844   6.133  49.716  1.00  0.00     0.265 C 
HETATM    7  N2  UNL     1      24.831   5.846  50.667  1.00  0.00    -0.223 NA
HETATM    8  C8  UNL     1      24.298   4.716  51.053  1.00  0.00     0.145 C 
HETATM    9  N3  UNL     1      23.315   5.077  52.046  1.00  0.00    -0.248 NA
HETATM   10  C9  UNL     1      22.027   4.944  52.066  1.00  0.00     0.098 C 
HETATM   11  C10 UNL     1      20.861   4.445  51.281  1.00  0.00     0.111 C 
HETATM   12  C11 UNL     1      21.352   4.310  49.860  1.00  0.00     0.046 C 
HETATM   13  C13 UNL     1      22.423   3.700  49.368  1.00  0.00     0.007 C 
HETATM   14  C14 UNL     1      23.667   2.911  49.485  1.00  0.00     0.058 C 
HETATM   15  C15 UNL     1      24.575   3.336  50.616  1.00  0.00     0.114 A 
ENDROOT
BRANCH   1  16
HETATM   16  C2  UNL     1      24.894   2.715  53.065  1.00  0.00     0.006 C 
HETATM   17  C1  UNL     1      25.900   2.309  53.860  1.00  0.00     0.010 C 
ENDBRANCH   1  16
BRANCH   1  18
HETATM   18  O1  UNL     1      24.050   1.087  51.502  1.00  0.00    -0.375 OA
HETATM   19  C4  UNL     1      22.955   1.071  52.334  1.00  0.00     0.203 C 
ENDBRANCH   1  18
BRANCH  12  20
HETATM   20  O3  UNL     1      20.509   4.942  48.954  1.00  0.00    -0.360 OA
HETATM   21  C12 UNL     1      19.607   5.908  49.458  1.00  0.00     0.209 C 
ENDBRANCH  12  20
TORSDOF 3
ENDMDL
MODEL 4
REMARK VINA RESULT:      -5.8      3.859      5.662
REMARK  3 active torsions:
REMARK  status: ('A' for Active; 'I' for Inactive)
REMARK    1  A    between atoms: C2_2  and  C3_3 
REMARK    2  A    between atoms: C3_3  and  O1_4 
REMARK    3  A    between atoms: C11_16  and  O3_17 
ROOT
HETATM    1  C3  UNL     1      22.577   2.398  50.286  1.00  0.00     0.119 A 
HETATM    2  C5  UNL     1      21.495   3.406  50.251  1.00  0.00     0.053 A 
HETATM    3  C6  UNL     1      22.154   4.226  50.960  1.00  0.00     0.098 A 
HETATM    4  O2  UNL     1      22.228   5.480  51.595  1.00  0.00    -0.216 OA
HETATM    5  N1  UNL     1      23.154   6.515  51.442  1.00  0.00    -0.121 NA
HETATM    6  C7  UNL     1      24.353   6.385  50.988  1.00  0.00     0.265 C 
HETATM    7  N2  UNL     1      24.967   5.181  50.557  1.00  0.00    -0.223 NA
HETATM    8  C8  UNL     1      24.561   3.939  50.590  1.00  0.00     0.145 C 
HETATM    9  N3  UNL     1      25.633   3.170  50.006  1.00  0.00    -0.248 NA
HETATM   10  C9  UNL     1      26.399   2.252  50.503  1.00  0.00     0.098 C 
HETATM   11  C10 UNL     1      26.695   1.478  51.743  1.00  0.00     0.111 C 
HETATM   12  C11 UNL     1      26.050   2.249  52.869  1.00  0.00     0.046 C 
HETATM   13  C13 UNL     1      24.814   2.715  53.003  1.00  0.00     0.007 C 
HETATM   14  C14 UNL     1      23.427   2.937  52.546  1.00  0.00     0.058 C 
HETATM   15  C15 UNL     1      23.303   3.363  51.101  1.00  0.00     0.114 A 
ENDROOT
BRANCH   1  16
HETATM   16  C2  UNL     1      23.016   2.209  48.850  1.00  0.00     0.006 C 
HETATM   17  C1  UNL     1      22.410   2.805  47.808  1.00  0.00     0.010 C 
ENDBRANCH   1  16
BRANCH   1  18
HETATM   18  O1  UNL     1      22.154   1.188  50.855  1.00  0.00    -0.375 OA
HETATM   19  C4  UNL     1      21.020   0.717  50.234  1.00  0.00     0.203 C 
ENDBRANCH   1  18
BRANCH  12  20
HETATM   20  O3  UNL     1      26.934   2.482  53.916  1.00  0.00    -0.360 OA
HETATM   21  C12 UNL     1      28.312   2.280  53.672  1.00  0.00     0.209 C 
ENDBRANCH  12  20
TORSDOF 3
ENDMDL
MODEL 5
REMARK VINA RESULT:      -5.8      4.326      7.065
REMARK  3 active torsions:
REMARK  status: ('A' for Active; 'I' for Inactive)
REMARK    1  A    between atoms: C2_2  and  C3_3 
REMARK    2  A    between atoms: C3_3  and  O1_4 
REMARK    3  A    between atoms: C11_16  and  O3_17 
ROOT
HETATM    1  C3  UNL     1      23.708   2.015  52.190  1.00  0.00     0.119 A 
HETATM    2  C5  UNL     1      24.259   3.095  53.037  1.00  0.00     0.053 A 
HETATM    3  C6  UNL     1      23.894   3.999  52.225  1.00  0.00     0.098 A 
HETATM    4  O2  UNL     1      23.828   5.366  51.895  1.00  0.00    -0.216 OA
HETATM    5  N1  UNL     1      22.721   6.178  51.634  1.00  0.00    -0.121 NA
HETATM    6  C7  UNL     1      21.564   5.764  51.248  1.00  0.00     0.265 C 
HETATM    7  N2  UNL     1      21.184   4.417  51.014  1.00  0.00    -0.223 NA
HETATM    8  C8  UNL     1      21.873   3.306  51.022  1.00  0.00     0.145 C 
HETATM    9  N3  UNL     1      20.925   2.265  50.707  1.00  0.00    -0.248 NA
HETATM   10  C9  UNL     1      20.850   1.450  49.703  1.00  0.00     0.098 C 
HETATM   11  C10 UNL     1      21.510   1.056  48.425  1.00  0.00     0.111 C 
HETATM   12  C11 UNL     1      22.416   2.207  48.062  1.00  0.00     0.046 C 
HETATM   13  C13 UNL     1      23.333   2.847  48.777  1.00  0.00     0.007 C 
HETATM   14  C14 UNL     1      24.117   3.097  50.004  1.00  0.00     0.058 C 
HETATM   15  C15 UNL     1      23.307   3.079  51.280  1.00  0.00     0.114 A 
ENDROOT
BRANCH   1  16
HETATM   16  C2  UNL     1      22.633   1.345  53.018  1.00  0.00     0.006 C 
HETATM   17  C1  UNL     1      22.391   0.022  52.983  1.00  0.00     0.010 C 
ENDBRANCH   1  16
BRANCH   1  18
HETATM   18  O1  UNL     1      24.694   1.098  51.796  1.00  0.00    -0.375 OA
HETATM   19  C4  UNL     1      25.745   1.085  52.682  1.00  0.00     0.203 C 
ENDBRANCH   1  18
BRANCH  12  20
HETATM   20  O3  UNL     1      22.222   2.630  46.752  1.00  0.00    -0.360 OA
HETATM   21  C12 UNL     1      21.655   3.910  46.551  1.00  0.00     0.209 C 
ENDBRANCH  12  20
TORSDOF 3
ENDMDL
MODEL 6
REMARK VINA RESULT:      -5.8      8.818     11.031
REMARK  3 active torsions:
REMARK  status: ('A' for Active; 'I' for Inactive)
REMARK    1  A    between atoms: C2_2  and  C3_3 
REMARK    2  A    between atoms: C3_3  and  O1_4 
REMARK    3  A    between atoms: C11_16  and  O3_17 
ROOT
HETATM    1  C3  UNL     1      28.223   7.767  47.953  1.00  0.00     0.119 A 
HETATM    2  C5  UNL     1      28.034   6.315  48.156  1.00  0.00     0.053 A 
HETATM    3  C6  UNL     1      29.281   6.085  48.113  1.00  0.00     0.098 A 
HETATM    4  O2  UNL     1      30.338   5.157  48.175  1.00  0.00    -0.216 OA
HETATM    5  N1  UNL     1      31.440   5.102  49.033  1.00  0.00    -0.121 NA
HETATM    6  C7  UNL     1      31.935   6.099  49.680  1.00  0.00     0.265 C 
HETATM    7  N2  UNL     1      31.468   7.439  49.654  1.00  0.00    -0.223 NA
HETATM    8  C8  UNL     1      30.538   8.020  48.943  1.00  0.00     0.145 C 
HETATM    9  N3  UNL     1      30.534   9.398  49.371  1.00  0.00    -0.248 NA
HETATM   10  C9  UNL     1      30.798  10.495  48.735  1.00  0.00     0.098 C 
HETATM   11  C10 UNL     1      31.206  11.044  47.410  1.00  0.00     0.111 C 
HETATM   12  C11 UNL     1      31.771   9.875  46.640  1.00  0.00     0.046 C 
HETATM   13  C13 UNL     1      31.271   8.667  46.408  1.00  0.00     0.007 C 
HETATM   14  C14 UNL     1      30.235   7.620  46.522  1.00  0.00     0.058 C 
HETATM   15  C15 UNL     1      29.648   7.466  47.906  1.00  0.00     0.114 A 
ENDROOT
BRANCH   1  16
HETATM   16  C2  UNL     1      27.679   8.435  49.197  1.00  0.00     0.006 C 
HETATM   17  C1  UNL     1      26.580   8.007  49.844  1.00  0.00     0.010 C 
ENDBRANCH   1  16
BRANCH   1  18
HETATM   18  O1  UNL     1      27.572   8.229  46.799  1.00  0.00    -0.375 OA
HETATM   19  C4  UNL     1      27.477   9.601  46.798  1.00  0.00     0.203 C 
ENDBRANCH   1  18
BRANCH  12  20
HETATM   20  O3  UNL     1      33.020  10.159  46.102  1.00  0.00    -0.360 OA
HETATM   21  C12 UNL     1      34.149   9.555  46.703  1.00  0.00     0.209 C 
ENDBRANCH  12  20
TORSDOF 3
ENDMDL
MODEL 7
REMARK VINA RESULT:      -5.8      4.072      6.337
REMARK  3 active torsions:
REMARK  status: ('A' for Active; 'I' for Inactive)
REMARK    1  A    between atoms: C2_2  and  C3_3 
REMARK    2  A    between atoms: C3_3  and  O1_4 
REMARK    3  A    between atoms: C11_16  and  O3_17 
ROOT
HETATM    1  C3  UNL     1      21.657   4.355  51.327  1.00  0.00     0.119 A 
HETATM    2  C5  UNL     1      21.510   5.773  50.932  1.00  0.00     0.053 A 
HETATM    3  C6  UNL     1      22.738   6.019  51.134  1.00  0.00     0.098 A 
HETATM    4  O2  UNL     1      23.797   6.945  51.124  1.00  0.00    -0.216 OA
HETATM    5  N1  UNL     1      25.015   6.914  50.439  1.00  0.00    -0.121 NA
HETATM    6  C7  UNL     1      25.595   5.855  49.992  1.00  0.00     0.265 C 
HETATM    7  N2  UNL     1      25.122   4.522  50.102  1.00  0.00    -0.223 NA
HETATM    8  C8  UNL     1      24.092   4.016  50.729  1.00  0.00     0.145 C 
HETATM    9  N3  UNL     1      24.144   2.598  50.466  1.00  0.00    -0.248 NA
HETATM   10  C9  UNL     1      24.302   1.584  51.257  1.00  0.00     0.098 C 
HETATM   11  C10 UNL     1      24.505   1.195  52.682  1.00  0.00     0.111 C 
HETATM   12  C11 UNL     1      24.956   2.451  53.388  1.00  0.00     0.046 C 
HETATM   13  C13 UNL     1      24.434   3.672  53.402  1.00  0.00     0.007 C 
HETATM   14  C14 UNL     1      23.434   4.688  53.015  1.00  0.00     0.058 C 
HETATM   15  C15 UNL     1      23.061   4.675  51.551  1.00  0.00     0.114 A 
ENDROOT
BRANCH   1  16
HETATM   16  C2  UNL     1      21.301   3.543  50.100  1.00  0.00     0.006 C 
HETATM   17  C1  UNL     1      20.625   4.047  49.053  1.00  0.00     0.010 C 
ENDBRANCH   1  16
BRANCH   1  18
HETATM   18  O1  UNL     1      20.838   4.021  52.416  1.00  0.00    -0.375 OA
HETATM   19  C4  UNL     1      20.526   2.682  52.411  1.00  0.00     0.203 C 
ENDBRANCH   1  18
BRANCH  12  20
HETATM   20  O3  UNL     1      26.109   2.244  54.135  1.00  0.00    -0.360 OA
HETATM   21  C12 UNL     1      26.556   0.913  54.302  1.00  0.00     0.209 C 
ENDBRANCH  12  20
TORSDOF 3
ENDMDL
MODEL 8
REMARK VINA RESULT:      -5.8      3.801      5.294
REMARK  3 active torsions:
REMARK  status: ('A' for Active; 'I' for Inactive)
REMARK    1  A    between atoms: C2_2  and  C3_3 
REMARK    2  A    between atoms: C3_3  and  O1_4 
REMARK    3  A    between atoms: C11_16  and  O3_17 
ROOT
HETATM    1  C3  UNL     1      24.153   5.203  50.378  1.00  0.00     0.119 A 
HETATM    2  C5  UNL     1      23.421   5.324  49.098  1.00  0.00     0.053 A 
HETATM    3  C6  UNL     1      23.423   4.069  48.909  1.00  0.00     0.098 A 
HETATM    4  O2  UNL     1      23.063   2.972  48.104  1.00  0.00    -0.216 OA
HETATM    5  N1  UNL     1      22.287   1.849  48.406  1.00  0.00    -0.121 NA
HETATM    6  C7  UNL     1      22.073   1.383  49.587  1.00  0.00     0.265 C 
HETATM    7  N2  UNL     1      22.574   1.908  50.806  1.00  0.00    -0.223 NA
HETATM    8  C8  UNL     1      23.415   2.879  51.053  1.00  0.00     0.145 C 
HETATM    9  N3  UNL     1      23.525   2.933  52.490  1.00  0.00    -0.248 NA
HETATM   10  C9  UNL     1      24.531   2.732  53.281  1.00  0.00     0.098 C 
HETATM   11  C10 UNL     1      25.980   2.379  53.313  1.00  0.00     0.111 C 
HETATM   12  C11 UNL     1      26.284   1.781  51.961  1.00  0.00     0.046 C 
HETATM   13  C13 UNL     1      26.035   2.234  50.738  1.00  0.00     0.007 C 
HETATM   14  C14 UNL     1      25.503   3.220  49.775  1.00  0.00     0.058 C 
HETATM   15  C15 UNL     1      24.140   3.768  50.126  1.00  0.00     0.114 A 
ENDROOT
BRANCH   1  16
HETATM   16  C2  UNL     1      23.224   5.747  51.441  1.00  0.00     0.006 C 
HETATM   17  C1  UNL     1      22.030   6.301  51.165  1.00  0.00     0.010 C 
ENDBRANCH   1  16
BRANCH   1  18
HETATM   18  O1  UNL     1      25.371   5.900  50.358  1.00  0.00    -0.375 OA
HETATM   19  C4  UNL     1      25.227   7.135  49.770  1.00  0.00     0.203 C 
ENDBRANCH   1  18
BRANCH  12  20
HETATM   20  O3  UNL     1      26.936   0.558  52.065  1.00  0.00    -0.360 OA
HETATM   21  C12 UNL     1      26.229  -0.516  52.652  1.00  0.00     0.209 C 
ENDBRANCH  12  20
TORSDOF 3
ENDMDL
MODEL 9
REMARK VINA RESULT:      -5.7      9.359     12.070
REMARK  3 active torsions:
REMARK  status: ('A' for Active; 'I' for Inactive)
REMARK    1  A    between atoms: C2_2  and  C3_3 
REMARK    2  A    between atoms: C3_3  and  O1_4 
REMARK    3  A    between atoms: C11_16  and  O3_17 
ROOT
HETATM    1  C3  UNL     1      33.353   6.933  47.974  1.00  0.00     0.119 A 
HETATM    2  C5  UNL     1      33.105   5.543  48.414  1.00  0.00     0.053 A 
HETATM    3  C6  UNL     1      31.902   5.794  48.730  1.00  0.00     0.098 A 
HETATM    4  O2  UNL     1      30.670   5.339  49.237  1.00  0.00    -0.216 OA
HETATM    5  N1  UNL     1      29.398   5.351  48.658  1.00  0.00    -0.121 NA
HETATM    6  C7  UNL     1      29.013   6.136  47.712  1.00  0.00     0.265 C 
HETATM    7  N2  UNL     1      29.793   7.135  47.074  1.00  0.00    -0.223 NA
HETATM    8  C8  UNL     1      30.998   7.580  47.313  1.00  0.00     0.145 C 
HETATM    9  N3  UNL     1      31.233   8.601  46.322  1.00  0.00    -0.248 NA
HETATM   10  C9  UNL     1      31.441   9.875  46.435  1.00  0.00     0.098 C 
HETATM   11  C10 UNL     1      31.567  10.986  47.421  1.00  0.00     0.111 C 
HETATM   12  C11 UNL     1      30.959  10.467  48.702  1.00  0.00     0.046 C 
HETATM   13  C13 UNL     1      31.180   9.344  49.372  1.00  0.00     0.007 C 
HETATM   14  C14 UNL     1      31.844   8.042  49.590  1.00  0.00     0.058 C 
HETATM   15  C15 UNL     1      31.969   7.186  48.351  1.00  0.00     0.114 A 
ENDROOT
BRANCH   1  16
HETATM   16  C2  UNL     1      33.685   6.850  46.500  1.00  0.00     0.006 C 
HETATM   17  C1  UNL     1      33.893   5.689  45.855  1.00  0.00     0.010 C 
ENDBRANCH   1  16
BRANCH   1  18
HETATM   18  O1  UNL     1      34.392   7.539  48.698  1.00  0.00    -0.375 OA
HETATM   19  C4  UNL     1      35.024   8.502  47.948  1.00  0.00     0.203 C 
ENDBRANCH   1  18
BRANCH  12  20
HETATM   20  O3  UNL     1      30.020  11.347  49.228  1.00  0.00    -0.360 OA
HETATM   21  C12 UNL     1      29.996  12.666  48.719  1.00  0.00     0.209 C 
ENDBRANCH  12  20
TORSDOF 3
ENDMDL
