MODEL 1
REMARK VINA RESULT:      -7.0      0.000      0.000
REMARK  1 active torsions:
REMARK  status: ('A' for Active; 'I' for Inactive)
REMARK    1  A    between atoms: C2_2  and  C3_3 
ROOT
HETATM    1  C3  UNL     1      24.405   0.682  52.903  1.00  0.00     0.265 C 
HETATM    2  O1  UNL     1      23.623  -0.391  52.578  1.00  0.00    -0.360 OA
HETATM    3  C4  UNL     1      22.290  -0.165  52.713  1.00  0.00     0.176 C 
HETATM    4  C5  UNL     1      21.717   0.506  53.851  1.00  0.00     0.026 C 
HETATM    5  C6  UNL     1      20.481   0.867  53.646  1.00  0.00    -0.011 C 
HETATM    6  C7  UNL     1      20.376   1.852  52.784  1.00  0.00     0.045 C 
HETATM    7  C8  UNL     1      21.166   1.803  51.599  1.00  0.00     0.062 C 
HETATM    8  C9  UNL     1      21.625   1.561  50.409  1.00  0.00     0.007 C 
HETATM    9  C10 UNL     1      21.188   0.821  49.200  1.00  0.00     0.210 C 
HETATM   10  O2  UNL     1      21.317   1.643  48.078  1.00  0.00    -0.363 OA
HETATM   11  C11 UNL     1      22.545   2.227  47.984  1.00  0.00     0.339 C 
HETATM   12  O3  UNL     1      22.935   2.962  49.135  1.00  0.00    -0.351 OA
HETATM   13  C12 UNL     1      23.027   2.013  50.126  1.00  0.00     0.214 C 
HETATM   14  C13 UNL     1      23.761   2.406  51.332  1.00  0.00     0.081 C 
HETATM   15  C14 UNL     1      23.998   3.201  52.343  1.00  0.00     0.032 C 
HETATM   16  C15 UNL     1      23.778   4.355  53.181  1.00  0.00     0.261 C 
HETATM   17  N1  UNL     1      22.658   4.758  52.621  1.00  0.00    -0.295 NA
HETATM   18  C16 UNL     1      22.115   3.991  51.523  1.00  0.00     0.169 C 
HETATM   19  N2  UNL     1      21.794   2.945  52.264  1.00  0.00    -0.250 NA
HETATM   20  O4  UNL     1      24.790   1.482  51.731  1.00  0.00    -0.322 OA
ENDROOT
BRANCH   1  21
HETATM   21  C2  UNL     1      25.586   0.301  53.724  1.00  0.00     0.056 C 
HETATM   22  C1  UNL     1      26.484  -0.555  52.855  1.00  0.00     0.010 C 
ENDBRANCH   1  21
TORSDOF 1
ENDMDL
MODEL 2
REMARK VINA RESULT:      -7.0      2.486      4.461
REMARK  1 active torsions:
REMARK  status: ('A' for Active; 'I' for Inactive)
REMARK    1  A    between atoms: C2_2  and  C3_3 
ROOT
HETATM    1  C3  UNL     1      22.993   1.777  52.396  1.00  0.00     0.265 C 
HETATM    2  O1  UNL     1      23.959   2.457  53.085  1.00  0.00    -0.360 OA
HETATM    3  C4  UNL     1      25.007   2.857  52.319  1.00  0.00     0.176 C 
HETATM    4  C5  UNL     1      25.638   2.008  51.343  1.00  0.00     0.026 C 
HETATM    5  C6  UNL     1      26.417   2.670  50.535  1.00  0.00    -0.011 C 
HETATM    6  C7  UNL     1      25.752   3.437  49.702  1.00  0.00     0.045 C 
HETATM    7  C8  UNL     1      24.663   4.203  50.211  1.00  0.00     0.062 C 
HETATM    8  C9  UNL     1      23.923   5.120  50.758  1.00  0.00     0.007 C 
HETATM    9  C10 UNL     1      24.121   6.446  51.392  1.00  0.00     0.210 C 
HETATM   10  O2  UNL     1      23.231   7.367  50.833  1.00  0.00    -0.363 OA
HETATM   11  C11 UNL     1      21.942   6.920  50.819  1.00  0.00     0.339 C 
HETATM   12  O3  UNL     1      21.763   5.665  50.178  1.00  0.00    -0.351 OA
HETATM   13  C12 UNL     1      22.476   4.784  50.956  1.00  0.00     0.214 C 
HETATM   14  C13 UNL     1      22.181   3.362  50.759  1.00  0.00     0.081 C 
HETATM   15  C14 UNL     1      22.046   2.293  50.017  1.00  0.00     0.032 C 
HETATM   16  C15 UNL     1      22.068   1.544  48.783  1.00  0.00     0.261 C 
HETATM   17  N1  UNL     1      22.595   2.482  48.027  1.00  0.00    -0.295 NA
HETATM   18  C16 UNL     1      22.934   3.752  48.629  1.00  0.00     0.169 C 
HETATM   19  N2  UNL     1      23.927   3.271  49.355  1.00  0.00    -0.250 NA
HETATM   20  O4  UNL     1      21.884   2.641  51.969  1.00  0.00    -0.322 OA
ENDROOT
BRANCH   1  21
HETATM   21  C2  UNL     1      22.509   0.575  53.127  1.00  0.00     0.056 C 
HETATM   22  C1  UNL     1      23.721  -0.272  53.457  1.00  0.00     0.010 C 
ENDBRANCH   1  21
TORSDOF 1
ENDMDL
MODEL 3
REMARK VINA RESULT:      -6.8      1.480      4.795
REMARK  1 active torsions:
REMARK  status: ('A' for Active; 'I' for Inactive)
REMARK    1  A    between atoms: C2_2  and  C3_3 
ROOT
HETATM    1  C3  UNL     1      22.453   2.706  48.789  1.00  0.00     0.265 C 
HETATM    2  O1  UNL     1      23.783   2.773  49.100  1.00  0.00    -0.360 OA
HETATM    3  C4  UNL     1      24.058   3.527  50.196  1.00  0.00     0.176 C 
HETATM    4  C5  UNL     1      23.455   4.811  50.439  1.00  0.00     0.026 C 
HETATM    5  C6  UNL     1      23.634   5.223  51.663  1.00  0.00    -0.011 C 
HETATM    6  C7  UNL     1      22.941   4.531  52.538  1.00  0.00     0.045 C 
HETATM    7  C8  UNL     1      22.908   3.112  52.405  1.00  0.00     0.062 C 
HETATM    8  C9  UNL     1      23.174   1.842  52.458  1.00  0.00     0.007 C 
HETATM    9  C10 UNL     1      24.236   0.973  53.020  1.00  0.00     0.210 C 
HETATM   10  O2  UNL     1      23.651  -0.062  53.753  1.00  0.00    -0.363 OA
HETATM   11  C11 UNL     1      22.674  -0.717  53.064  1.00  0.00     0.339 C 
HETATM   12  O3  UNL     1      21.646   0.124  52.562  1.00  0.00    -0.351 OA
HETATM   13  C12 UNL     1      22.287   0.937  51.657  1.00  0.00     0.214 C 
HETATM   14  C13 UNL     1      21.428   1.658  50.714  1.00  0.00     0.081 C 
HETATM   15  C14 UNL     1      20.428   2.449  50.419  1.00  0.00     0.032 C 
HETATM   16  C15 UNL     1      19.309   3.311  50.716  1.00  0.00     0.261 C 
HETATM   17  N1  UNL     1      19.473   3.355  52.020  1.00  0.00    -0.295 NA
HETATM   18  C16 UNL     1      20.579   2.632  52.607  1.00  0.00     0.169 C 
HETATM   19  N2  UNL     1      21.510   3.420  52.099  1.00  0.00    -0.250 NA
HETATM   20  O4  UNL     1      21.801   1.506  49.331  1.00  0.00    -0.322 OA
ENDROOT
BRANCH   1  21
HETATM   21  C2  UNL     1      22.199   2.864  47.332  1.00  0.00     0.056 C 
HETATM   22  C1  UNL     1      22.082   4.349  47.051  1.00  0.00     0.010 C 
ENDBRANCH   1  21
TORSDOF 1
ENDMDL
MODEL 4
REMARK VINA RESULT:      -6.7      2.162      4.508
REMARK  1 active torsions:
REMARK  status: ('A' for Active; 'I' for Inactive)
REMARK    1  A    between atoms: C2_2  and  C3_3 
ROOT
HETATM    1  C3  UNL     1      19.992   1.499  51.318  1.00  0.00     0.265 C 
HETATM    2  O1  UNL     1      20.740   0.422  50.931  1.00  0.00    -0.360 OA
HETATM    3  C4  UNL     1      21.585   0.678  49.898  1.00  0.00     0.176 C 
HETATM    4  C5  UNL     1      21.195   1.422  48.729  1.00  0.00     0.026 C 
HETATM    5  C6  UNL     1      22.218   1.790  48.009  1.00  0.00    -0.011 C 
HETATM    6  C7  UNL     1      22.935   2.726  48.588  1.00  0.00     0.045 C 
HETATM    7  C8  UNL     1      23.224   2.596  49.978  1.00  0.00     0.062 C 
HETATM    8  C9  UNL     1      23.744   2.280  51.125  1.00  0.00     0.007 C 
HETATM    9  C10 UNL     1      24.890   1.479  51.619  1.00  0.00     0.210 C 
HETATM   10  O2  UNL     1      25.623   2.233  52.538  1.00  0.00    -0.363 OA
HETATM   11  C11 UNL     1      24.846   2.790  53.511  1.00  0.00     0.339 C 
HETATM   12  O3  UNL     1      23.773   3.583  53.022  1.00  0.00    -0.351 OA
HETATM   13  C12 UNL     1      22.976   2.691  52.345  1.00  0.00     0.214 C 
HETATM   14  C13 UNL     1      21.613   3.140  52.045  1.00  0.00     0.081 C 
HETATM   15  C14 UNL     1      20.749   3.988  51.549  1.00  0.00     0.032 C 
HETATM   16  C15 UNL     1      20.341   5.192  50.866  1.00  0.00     0.261 C 
HETATM   17  N1  UNL     1      21.536   5.580  50.480  1.00  0.00    -0.295 NA
HETATM   18  C16 UNL     1      22.677   4.761  50.821  1.00  0.00     0.169 C 
HETATM   19  N2  UNL     1      22.344   3.764  50.019  1.00  0.00    -0.250 NA
HETATM   20  O4  UNL     1      20.580   2.224  52.453  1.00  0.00    -0.322 OA
ENDROOT
BRANCH   1  21
HETATM   21  C2  UNL     1      18.568   1.146  51.565  1.00  0.00     0.056 C 
HETATM   22  C1  UNL     1      18.550  -0.204  52.254  1.00  0.00     0.010 C 
ENDBRANCH   1  21
TORSDOF 1
ENDMDL
MODEL 5
REMARK VINA RESULT:      -6.5     11.214     12.819
REMARK  1 active torsions:
REMARK  status: ('A' for Active; 'I' for Inactive)
REMARK    1  A    between atoms: C2_2  and  C3_3 
ROOT
HETATM    1  C3  UNL     1      33.384   4.616  46.992  1.00  0.00     0.265 C 
HETATM    2  O1  UNL     1      33.429   4.742  48.353  1.00  0.00    -0.360 OA
HETATM    3  C4  UNL     1      34.087   5.850  48.784  1.00  0.00     0.176 C 
HETATM    4  C5  UNL     1      35.343   6.284  48.231  1.00  0.00     0.026 C 
HETATM    5  C6  UNL     1      35.649   7.502  48.582  1.00  0.00    -0.011 C 
HETATM    6  C7  UNL     1      34.881   8.402  48.012  1.00  0.00     0.045 C 
HETATM    7  C8  UNL     1      33.479   8.154  47.949  1.00  0.00     0.062 C 
HETATM    8  C9  UNL     1      32.210   8.060  48.210  1.00  0.00     0.007 C 
HETATM    9  C10 UNL     1      31.300   8.391  49.333  1.00  0.00     0.210 C 
HETATM   10  O2  UNL     1      30.203   9.108  48.847  1.00  0.00    -0.363 OA
HETATM   11  C11 UNL     1      29.606   8.507  47.779  1.00  0.00     0.339 C 
HETATM   12  O3  UNL     1      30.483   8.228  46.697  1.00  0.00    -0.351 OA
HETATM   13  C12 UNL     1      31.374   7.316  47.212  1.00  0.00     0.214 C 
HETATM   14  C13 UNL     1      32.170   6.567  46.236  1.00  0.00     0.081 C 
HETATM   15  C14 UNL     1      32.980   6.483  45.212  1.00  0.00     0.032 C 
HETATM   16  C15 UNL     1      33.808   7.007  44.152  1.00  0.00     0.261 C 
HETATM   17  N1  UNL     1      33.740   8.274  44.496  1.00  0.00    -0.295 NA
HETATM   18  C16 UNL     1      32.974   8.637  45.667  1.00  0.00     0.169 C 
HETATM   19  N2  UNL     1      33.806   8.073  46.525  1.00  0.00    -0.250 NA
HETATM   20  O4  UNL     1      32.139   5.138  46.413  1.00  0.00    -0.322 OA
ENDROOT
BRANCH   1  21
HETATM   21  C2  UNL     1      33.666   3.227  46.538  1.00  0.00     0.056 C 
HETATM   22  C1  UNL     1      35.043   3.228  45.905  1.00  0.00     0.010 C 
ENDBRANCH   1  21
TORSDOF 1
ENDMDL
MODEL 6
REMARK VINA RESULT:      -6.5      2.621      5.243
REMARK  1 active torsions:
REMARK  status: ('A' for Active; 'I' for Inactive)
REMARK    1  A    between atoms: C2_2  and  C3_3 
ROOT
HETATM    1  C3  UNL     1      22.809   6.408  50.196  1.00  0.00     0.265 C 
HETATM    2  O1  UNL     1      23.106   6.313  48.864  1.00  0.00    -0.360 OA
HETATM    3  C4  UNL     1      24.174   5.517  48.592  1.00  0.00     0.176 C 
HETATM    4  C5  UNL     1      25.400   5.560  49.345  1.00  0.00     0.026 C 
HETATM    5  C6  UNL     1      26.168   4.534  49.105  1.00  0.00    -0.011 C 
HETATM    6  C7  UNL     1      25.692   3.416  49.601  1.00  0.00     0.045 C 
HETATM    7  C8  UNL     1      24.301   3.144  49.445  1.00  0.00     0.062 C 
HETATM    8  C9  UNL     1      23.139   2.779  48.996  1.00  0.00     0.007 C 
HETATM    9  C10 UNL     1      22.592   2.148  47.769  1.00  0.00     0.210 C 
HETATM   10  O2  UNL     1      21.760   1.084  48.125  1.00  0.00    -0.363 OA
HETATM   11  C11 UNL     1      20.830   1.424  49.062  1.00  0.00     0.339 C 
HETATM   12  O3  UNL     1      21.372   1.994  50.245  1.00  0.00    -0.351 OA
HETATM   13  C12 UNL     1      21.949   3.168  49.821  1.00  0.00     0.214 C 
HETATM   14  C13 UNL     1      22.265   4.148  50.863  1.00  0.00     0.081 C 
HETATM   15  C14 UNL     1      22.822   4.510  51.990  1.00  0.00     0.032 C 
HETATM   16  C15 UNL     1      23.607   4.314  53.185  1.00  0.00     0.261 C 
HETATM   17  N1  UNL     1      24.048   3.108  52.900  1.00  0.00    -0.295 NA
HETATM   18  C16 UNL     1      23.653   2.501  51.649  1.00  0.00     0.169 C 
HETATM   19  N2  UNL     1      24.352   3.330  50.896  1.00  0.00    -0.250 NA
HETATM   20  O4  UNL     1      21.756   5.471  50.612  1.00  0.00    -0.322 OA
ENDROOT
BRANCH   1  21
HETATM   21  C2  UNL     1      22.504   7.803  50.614  1.00  0.00     0.056 C 
HETATM   22  C1  UNL     1      22.026   8.550  49.386  1.00  0.00     0.010 C 
ENDBRANCH   1  21
TORSDOF 1
ENDMDL
MODEL 7
REMARK VINA RESULT:      -6.5      2.749      4.503
REMARK  1 active torsions:
REMARK  status: ('A' for Active; 'I' for Inactive)
REMARK    1  A    between atoms: C2_2  and  C3_3 
ROOT
HETATM    1  C3  UNL     1      22.470   3.735  51.878  1.00  0.00     0.265 C 
HETATM    2  O1  UNL     1      22.423   4.366  50.666  1.00  0.00    -0.360 OA
HETATM    3  C4  UNL     1      22.064   3.556  49.635  1.00  0.00     0.176 C 
HETATM    4  C5  UNL     1      22.595   2.231  49.454  1.00  0.00     0.026 C 
HETATM    5  C6  UNL     1      21.915   1.536  48.586  1.00  0.00    -0.011 C 
HETATM    6  C7  UNL     1      20.727   1.194  49.028  1.00  0.00     0.045 C 
HETATM    7  C8  UNL     1      19.953   2.173  49.716  1.00  0.00     0.062 C 
HETATM    8  C9  UNL     1      19.162   3.157  50.022  1.00  0.00     0.007 C 
HETATM    9  C10 UNL     1      18.312   4.137  49.303  1.00  0.00     0.210 C 
HETATM   10  O2  UNL     1      17.035   4.150  49.871  1.00  0.00    -0.363 OA
HETATM   11  C11 UNL     1      17.056   4.289  51.227  1.00  0.00     0.339 C 
HETATM   12  O3  UNL     1      17.846   3.322  51.904  1.00  0.00    -0.351 OA
HETATM   13  C12 UNL     1      19.126   3.565  51.465  1.00  0.00     0.214 C 
HETATM   14  C13 UNL     1      20.206   2.972  52.259  1.00  0.00     0.081 C 
HETATM   15  C14 UNL     1      20.806   1.966  52.841  1.00  0.00     0.032 C 
HETATM   16  C15 UNL     1      20.975   0.584  53.219  1.00  0.00     0.261 C 
HETATM   17  N1  UNL     1      20.005   0.088  52.483  1.00  0.00    -0.295 NA
HETATM   18  C16 UNL     1      19.231   0.987  51.657  1.00  0.00     0.169 C 
HETATM   19  N2  UNL     1      20.220   1.252  50.821  1.00  0.00    -0.250 NA
HETATM   20  O4  UNL     1      21.233   3.901  52.655  1.00  0.00    -0.322 OA
ENDROOT
BRANCH   1  21
HETATM   21  C2  UNL     1      23.674   4.108  52.670  1.00  0.00     0.056 C 
HETATM   22  C1  UNL     1      24.374   2.822  53.060  1.00  0.00     0.010 C 
ENDBRANCH   1  21
TORSDOF 1
ENDMDL
MODEL 8
REMARK VINA RESULT:      -6.5      2.638      5.214
REMARK  1 active torsions:
REMARK  status: ('A' for Active; 'I' for Inactive)
REMARK    1  A    between atoms: C2_2  and  C3_3 
ROOT
HETATM    1  C3  UNL     1      22.088   5.948  50.703  1.00  0.00     0.265 C 
HETATM    2  O1  UNL     1      21.020   5.095  50.652  1.00  0.00    -0.360 OA
HETATM    3  C4  UNL     1      21.129   4.129  49.703  1.00  0.00     0.176 C 
HETATM    4  C5  UNL     1      21.585   4.390  48.363  1.00  0.00     0.026 C 
HETATM    5  C6  UNL     1      21.883   3.298  47.716  1.00  0.00    -0.011 C 
HETATM    6  C7  UNL     1      22.972   2.722  48.167  1.00  0.00     0.045 C 
HETATM    7  C8  UNL     1      23.152   2.623  49.578  1.00  0.00     0.062 C 
HETATM    8  C9  UNL     1      23.119   2.253  50.822  1.00  0.00     0.007 C 
HETATM    9  C10 UNL     1      22.532   1.147  51.616  1.00  0.00     0.210 C 
HETATM   10  O2  UNL     1      23.516   0.591  52.439  1.00  0.00    -0.363 OA
HETATM   11  C11 UNL     1      24.193   1.526  53.165  1.00  0.00     0.339 C 
HETATM   12  O3  UNL     1      24.779   2.561  52.387  1.00  0.00    -0.351 OA
HETATM   13  C12 UNL     1      23.706   3.206  51.821  1.00  0.00     0.214 C 
HETATM   14  C13 UNL     1      23.971   4.535  51.263  1.00  0.00     0.081 C 
HETATM   15  C14 UNL     1      24.626   5.366  50.494  1.00  0.00     0.032 C 
HETATM   16  C15 UNL     1      25.628   5.739  49.524  1.00  0.00     0.261 C 
HETATM   17  N1  UNL     1      26.027   4.524  49.219  1.00  0.00    -0.295 NA
HETATM   18  C16 UNL     1      25.390   3.399  49.867  1.00  0.00     0.169 C 
HETATM   19  N2  UNL     1      24.228   3.563  49.260  1.00  0.00    -0.250 NA
HETATM   20  O4  UNL     1      23.074   5.564  51.723  1.00  0.00    -0.322 OA
ENDROOT
BRANCH   1  21
HETATM   21  C2  UNL     1      21.677   7.371  50.839  1.00  0.00     0.056 C 
HETATM   22  C1  UNL     1      22.282   8.130  49.675  1.00  0.00     0.010 C 
ENDBRANCH   1  21
TORSDOF 1
ENDMDL
MODEL 9
REMARK VINA RESULT:      -6.4     10.949     12.268
REMARK  1 active torsions:
REMARK  status: ('A' for Active; 'I' for Inactive)
REMARK    1  A    between atoms: C2_2  and  C3_3 
ROOT
HETATM    1  C3  UNL     1      32.931   3.864  47.416  1.00  0.00     0.265 C 
HETATM    2  O1  UNL     1      31.636   4.009  47.001  1.00  0.00    -0.360 OA
HETATM    3  C4  UNL     1      31.040   5.149  47.440  1.00  0.00     0.176 C 
HETATM    4  C5  UNL     1      31.156   5.626  48.793  1.00  0.00     0.026 C 
HETATM    5  C6  UNL     1      30.754   6.860  48.923  1.00  0.00    -0.011 C 
HETATM    6  C7  UNL     1      31.569   7.721  48.357  1.00  0.00     0.045 C 
HETATM    7  C8  UNL     1      32.087   7.415  47.065  1.00  0.00     0.062 C 
HETATM    8  C9  UNL     1      32.259   7.272  45.786  1.00  0.00     0.007 C 
HETATM    9  C10 UNL     1      31.511   7.580  44.544  1.00  0.00     0.210 C 
HETATM   10  O2  UNL     1      32.351   8.245  43.647  1.00  0.00    -0.363 OA
HETATM   11  C11 UNL     1      33.541   7.607  43.460  1.00  0.00     0.339 C 
HETATM   12  O3  UNL     1      34.263   7.350  44.656  1.00  0.00    -0.351 OA
HETATM   13  C12 UNL     1      33.459   6.482  45.355  1.00  0.00     0.214 C 
HETATM   14  C13 UNL     1      34.096   5.754  46.456  1.00  0.00     0.081 C 
HETATM   15  C14 UNL     1      34.792   5.691  47.562  1.00  0.00     0.032 C 
HETATM   16  C15 UNL     1      35.530   6.234  48.677  1.00  0.00     0.261 C 
HETATM   17  N1  UNL     1      35.260   7.502  48.455  1.00  0.00    -0.295 NA
HETATM   18  C16 UNL     1      34.419   7.848  47.331  1.00  0.00     0.169 C 
HETATM   19  N2  UNL     1      33.320   7.329  47.850  1.00  0.00    -0.250 NA
HETATM   20  O4  UNL     1      33.904   4.327  46.417  1.00  0.00    -0.322 OA
ENDROOT
BRANCH   1  21
HETATM   21  C2  UNL     1      33.230   2.482  47.880  1.00  0.00     0.056 C 
HETATM   22  C1  UNL     1      32.492   1.527  46.962  1.00  0.00     0.010 C 
ENDBRANCH   1  21
TORSDOF 1
ENDMDL
