MODEL 1
REMARK VINA RESULT:      -9.2      0.000      0.000
REMARK  3 active torsions:
REMARK  status: ('A' for Active; 'I' for Inactive)
REMARK    1  A    between atoms: N1_1  and  C1_2 
REMARK    2  A    between atoms: C6_7  and  N2_8 
REMARK    3  A    between atoms: N2_8  and  C7_9 
ROOT
HETATM    1  C7  UNL     1      24.999   1.584  52.791  1.00  0.00     0.155 A 
HETATM    2  C8  UNL     1      25.132   2.731  51.857  1.00  0.00     0.120 A 
HETATM    3  N3  UNL     1      23.990   3.129  51.407  1.00  0.00    -0.255 NA
HETATM    4  C9  UNL     1      22.928   2.321  51.963  1.00  0.00     0.106 A 
HETATM    5  S1  UNL     1      21.188   1.966  52.075  1.00  0.00    -0.072 SA
HETATM    6  C10 UNL     1      21.340   0.582  53.237  1.00  0.00     0.019 A 
HETATM    7  C11 UNL     1      22.684   0.494  53.451  1.00  0.00    -0.030 A 
HETATM    8  C12 UNL     1      23.512   1.377  52.807  1.00  0.00     0.012 A 
HETATM    9  C13 UNL     1      22.847  -0.635  54.402  1.00  0.00     0.070 C 
HETATM   10  C14 UNL     1      21.904  -1.734  53.950  1.00  0.00     0.274 C 
HETATM   11  N4  UNL     1      20.584  -1.357  54.338  1.00  0.00     0.088 N 
HETATM   12  C15 UNL     1      20.185  -0.145  53.721  1.00  0.00     0.316 C 
HETATM   13  H18 UNL     1      19.932  -2.132  54.094  1.00  0.00     0.316 HD
ENDROOT
BRANCH   1  14
HETATM   14  N2  UNL     1      25.574   0.415  52.246  1.00  0.00    -0.402 N 
HETATM   15  H11 UNL     1      25.028  -0.119  51.563  1.00  0.00     0.154 HD
BRANCH  14  16
HETATM   16  C6  UNL     1      26.597  -0.254  52.955  1.00  0.00     0.105 C 
HETATM   17  C5  UNL     1      26.722  -1.735  52.679  1.00  0.00     0.053 C 
HETATM   18  C4  UNL     1      28.163  -2.119  52.926  1.00  0.00    -0.028 C 
HETATM   19  C3  UNL     1      29.272  -1.466  53.312  1.00  0.00    -0.026 C 
HETATM   20  C2  UNL     1      29.750  -0.097  53.703  1.00  0.00     0.090 C 
HETATM   21  C1  UNL     1      28.790   0.588  54.629  1.00  0.00     0.356 C 
HETATM   22  O1  UNL     1      27.804  -0.254  55.032  1.00  0.00    -0.355 OA
HETATM   23  C16 UNL     1      26.554  -0.065  54.454  1.00  0.00     0.195 C 
BRANCH  21  24
HETATM   24  N1  UNL     1      28.316   1.840  54.074  1.00  0.00     0.107 N 
HETATM   25  H1  UNL     1      27.514   2.147  54.670  1.00  0.00     0.316 HD
HETATM   26  H2  UNL     1      29.033   2.594  54.153  1.00  0.00     0.316 HD
ENDBRANCH  21  24
ENDBRANCH  14  16
ENDBRANCH   1  14
TORSDOF 3
ENDMDL
MODEL 2
REMARK VINA RESULT:      -8.2      1.965      4.294
REMARK  3 active torsions:
REMARK  status: ('A' for Active; 'I' for Inactive)
REMARK    1  A    between atoms: N1_1  and  C1_2 
REMARK    2  A    between atoms: C6_7  and  N2_8 
REMARK    3  A    between atoms: N2_8  and  C7_9 
ROOT
HETATM    1  C7  UNL     1      24.583   1.247  51.928  1.00  0.00     0.155 A 
HETATM    2  C8  UNL     1      23.374   1.015  52.758  1.00  0.00     0.120 A 
HETATM    3  N3  UNL     1      22.485   1.935  52.593  1.00  0.00    -0.255 NA
HETATM    4  C9  UNL     1      22.954   2.913  51.637  1.00  0.00     0.106 A 
HETATM    5  S1  UNL     1      22.658   4.415  50.729  1.00  0.00    -0.072 SA
HETATM    6  C10 UNL     1      24.242   4.430  49.844  1.00  0.00     0.019 A 
HETATM    7  C11 UNL     1      24.868   3.308  50.299  1.00  0.00    -0.030 A 
HETATM    8  C12 UNL     1      24.224   2.520  51.217  1.00  0.00     0.012 A 
HETATM    9  C13 UNL     1      26.176   3.287  49.595  1.00  0.00     0.070 C 
HETATM   10  C14 UNL     1      26.701   4.711  49.595  1.00  0.00     0.274 C 
HETATM   11  N4  UNL     1      25.971   5.440  48.609  1.00  0.00     0.088 N 
HETATM   12  C15 UNL     1      24.587   5.476  48.905  1.00  0.00     0.316 C 
HETATM   13  H18 UNL     1      26.365   6.403  48.550  1.00  0.00     0.316 HD
ENDROOT
BRANCH   1  14
HETATM   14  N2  UNL     1      25.708   1.526  52.735  1.00  0.00    -0.402 N 
HETATM   15  H11 UNL     1      26.135   2.455  52.665  1.00  0.00     0.154 HD
BRANCH  14  16
HETATM   16  C6  UNL     1      26.501   0.461  53.218  1.00  0.00     0.105 C 
HETATM   17  C5  UNL     1      26.179  -0.902  52.649  1.00  0.00     0.053 C 
HETATM   18  C4  UNL     1      27.447  -1.723  52.704  1.00  0.00    -0.028 C 
HETATM   19  C3  UNL     1      28.706  -1.508  53.122  1.00  0.00    -0.026 C 
HETATM   20  C2  UNL     1      29.573  -0.446  53.734  1.00  0.00     0.090 C 
HETATM   21  C1  UNL     1      28.873   0.274  54.848  1.00  0.00     0.356 C 
HETATM   22  O1  UNL     1      27.690  -0.318  55.155  1.00  0.00    -0.355 OA
HETATM   23  C16 UNL     1      26.542   0.336  54.724  1.00  0.00     0.195 C 
BRANCH  21  24
HETATM   24  N1  UNL     1      28.779   1.696  54.587  1.00  0.00     0.107 N 
HETATM   25  H1  UNL     1      29.278   2.178  55.370  1.00  0.00     0.316 HD
HETATM   26  H2  UNL     1      29.291   1.964  53.718  1.00  0.00     0.316 HD
ENDBRANCH  21  24
ENDBRANCH  14  16
ENDBRANCH   1  14
TORSDOF 3
ENDMDL
MODEL 3
REMARK VINA RESULT:      -8.1      2.249      3.744
REMARK  3 active torsions:
REMARK  status: ('A' for Active; 'I' for Inactive)
REMARK    1  A    between atoms: N1_1  and  C1_2 
REMARK    2  A    between atoms: C6_7  and  N2_8 
REMARK    3  A    between atoms: N2_8  and  C7_9 
ROOT
HETATM    1  C7  UNL     1      22.978  -0.640  53.347  1.00  0.00     0.155 A 
HETATM    2  C8  UNL     1      22.688  -1.199  54.691  1.00  0.00     0.120 A 
HETATM    3  N3  UNL     1      21.422  -1.265  54.930  1.00  0.00    -0.255 NA
HETATM    4  C9  UNL     1      20.676  -0.768  53.796  1.00  0.00     0.106 A 
HETATM    5  S1  UNL     1      19.099  -0.412  53.051  1.00  0.00    -0.072 SA
HETATM    6  C10 UNL     1      19.757   0.228  51.486  1.00  0.00     0.019 A 
HETATM    7  C11 UNL     1      21.107   0.125  51.645  1.00  0.00    -0.030 A 
HETATM    8  C12 UNL     1      21.595  -0.383  52.821  1.00  0.00     0.012 A 
HETATM    9  C13 UNL     1      21.682   0.644  50.378  1.00  0.00     0.070 C 
HETATM   10  C14 UNL     1      20.881   1.876  50.000  1.00  0.00     0.274 C 
HETATM   11  N4  UNL     1      19.633   1.434  49.469  1.00  0.00     0.088 N 
HETATM   12  C15 UNL     1      18.892   0.695  50.424  1.00  0.00     0.316 C 
HETATM   13  H18 UNL     1      19.097   2.266  49.143  1.00  0.00     0.316 HD
ENDROOT
BRANCH   1  14
HETATM   14  N2  UNL     1      23.624   0.613  53.445  1.00  0.00    -0.402 N 
HETATM   15  H11 UNL     1      23.042   1.451  53.536  1.00  0.00     0.154 HD
BRANCH  14  16
HETATM   16  C6  UNL     1      24.936   0.761  52.944  1.00  0.00     0.105 C 
HETATM   17  C5  UNL     1      25.069   1.619  51.705  1.00  0.00     0.053 C 
HETATM   18  C4  UNL     1      26.458   2.214  51.717  1.00  0.00    -0.028 C 
HETATM   19  C3  UNL     1      27.520   2.144  52.538  1.00  0.00    -0.026 C 
HETATM   20  C2  UNL     1      27.968   1.509  53.823  1.00  0.00     0.090 C 
HETATM   21  C1  UNL     1      27.566   0.066  53.904  1.00  0.00     0.356 C 
HETATM   22  O1  UNL     1      27.045  -0.370  52.728  1.00  0.00    -0.355 OA
HETATM   23  C16 UNL     1      25.666  -0.537  52.688  1.00  0.00     0.195 C 
BRANCH  21  24
HETATM   24  N1  UNL     1      26.729  -0.189  55.059  1.00  0.00     0.107 N 
HETATM   25  H1  UNL     1      27.034   0.479  55.803  1.00  0.00     0.316 HD
HETATM   26  H2  UNL     1      25.728   0.037  54.868  1.00  0.00     0.316 HD
ENDBRANCH  21  24
ENDBRANCH  14  16
ENDBRANCH   1  14
TORSDOF 3
ENDMDL
MODEL 4
REMARK VINA RESULT:      -7.5      2.758      5.164
REMARK  3 active torsions:
REMARK  status: ('A' for Active; 'I' for Inactive)
REMARK    1  A    between atoms: N1_1  and  C1_2 
REMARK    2  A    between atoms: C6_7  and  N2_8 
REMARK    3  A    between atoms: N2_8  and  C7_9 
ROOT
HETATM    1  C7  UNL     1      25.588   1.489  52.850  1.00  0.00     0.155 A 
HETATM    2  C8  UNL     1      26.898   1.286  53.519  1.00  0.00     0.120 A 
HETATM    3  N3  UNL     1      26.846   0.372  54.428  1.00  0.00    -0.255 NA
HETATM    4  C9  UNL     1      25.509  -0.172  54.508  1.00  0.00     0.106 A 
HETATM    5  S1  UNL     1      24.377  -1.317  55.268  1.00  0.00    -0.072 SA
HETATM    6  C10 UNL     1      22.928  -0.850  54.281  1.00  0.00     0.019 A 
HETATM    7  C11 UNL     1      23.407   0.127  53.459  1.00  0.00    -0.030 A 
HETATM    8  C12 UNL     1      24.726   0.486  53.562  1.00  0.00     0.012 A 
HETATM    9  C13 UNL     1      22.243   0.536  52.633  1.00  0.00     0.070 C 
HETATM   10  C14 UNL     1      21.044   0.605  53.560  1.00  0.00     0.274 C 
HETATM   11  N4  UNL     1      20.623  -0.732  53.823  1.00  0.00     0.088 N 
HETATM   12  C15 UNL     1      21.639  -1.483  54.463  1.00  0.00     0.316 C 
HETATM   13  H18 UNL     1      19.760  -0.700  54.406  1.00  0.00     0.316 HD
ENDROOT
BRANCH   1  14
HETATM   14  N2  UNL     1      25.061   2.768  53.140  1.00  0.00    -0.402 N 
HETATM   15  H11 UNL     1      24.745   2.954  54.097  1.00  0.00     0.154 HD
BRANCH  14  16
HETATM   16  C6  UNL     1      24.532   3.556  52.095  1.00  0.00     0.105 C 
HETATM   17  C5  UNL     1      23.170   4.159  52.356  1.00  0.00     0.053 C 
HETATM   18  C4  UNL     1      23.075   5.427  51.539  1.00  0.00    -0.028 C 
HETATM   19  C3  UNL     1      23.888   6.080  50.691  1.00  0.00    -0.026 C 
HETATM   20  C2  UNL     1      25.255   5.991  50.076  1.00  0.00     0.090 C 
HETATM   21  C1  UNL     1      25.572   4.600  49.615  1.00  0.00     0.356 C 
HETATM   22  O1  UNL     1      24.486   3.788  49.704  1.00  0.00    -0.355 OA
HETATM   23  C16 UNL     1      24.484   2.872  50.748  1.00  0.00     0.195 C 
BRANCH  21  24
HETATM   24  N1  UNL     1      26.759   4.082  50.263  1.00  0.00     0.107 N 
HETATM   25  H1  UNL     1      27.157   4.865  50.830  1.00  0.00     0.316 HD
HETATM   26  H2  UNL     1      26.529   3.326  50.945  1.00  0.00     0.316 HD
ENDBRANCH  21  24
ENDBRANCH  14  16
ENDBRANCH   1  14
TORSDOF 3
ENDMDL
MODEL 5
REMARK VINA RESULT:      -7.4      3.077      5.725
REMARK  3 active torsions:
REMARK  status: ('A' for Active; 'I' for Inactive)
REMARK    1  A    between atoms: N1_1  and  C1_2 
REMARK    2  A    between atoms: C6_7  and  N2_8 
REMARK    3  A    between atoms: N2_8  and  C7_9 
ROOT
HETATM    1  C7  UNL     1      24.970   1.772  51.751  1.00  0.00     0.155 A 
HETATM    2  C8  UNL     1      26.441   1.716  51.949  1.00  0.00     0.120 A 
HETATM    3  N3  UNL     1      26.778   0.874  52.867  1.00  0.00    -0.255 NA
HETATM    4  C9  UNL     1      25.600   0.242  53.419  1.00  0.00     0.106 A 
HETATM    5  S1  UNL     1      24.896  -0.918  54.570  1.00  0.00    -0.072 SA
HETATM    6  C10 UNL     1      23.165  -0.635  54.105  1.00  0.00     0.019 A 
HETATM    7  C11 UNL     1      23.251   0.308  53.124  1.00  0.00    -0.030 A 
HETATM    8  C12 UNL     1      24.490   0.768  52.759  1.00  0.00     0.012 A 
HETATM    9  C13 UNL     1      21.846   0.567  52.718  1.00  0.00     0.070 C 
HETATM   10  C14 UNL     1      21.021   0.622  53.990  1.00  0.00     0.274 C 
HETATM   11  N4  UNL     1      20.838  -0.718  54.444  1.00  0.00     0.088 N 
HETATM   12  C15 UNL     1      22.074  -1.343  54.741  1.00  0.00     0.316 C 
HETATM   13  H18 UNL     1      20.217  -0.703  55.281  1.00  0.00     0.316 HD
ENDROOT
BRANCH   1  14
HETATM   14  N2  UNL     1      24.452   3.028  52.138  1.00  0.00    -0.402 N 
HETATM   15  H11 UNL     1      24.162   3.151  53.113  1.00  0.00     0.154 HD
BRANCH  14  16
HETATM   16  C6  UNL     1      23.895   3.882  51.161  1.00  0.00     0.105 C 
HETATM   17  C5  UNL     1      23.013   3.211  50.133  1.00  0.00     0.053 C 
HETATM   18  C4  UNL     1      22.018   4.243  49.652  1.00  0.00    -0.028 C 
HETATM   19  C3  UNL     1      21.774   5.535  49.928  1.00  0.00    -0.026 C 
HETATM   20  C2  UNL     1      22.267   6.663  50.787  1.00  0.00     0.090 C 
HETATM   21  C1  UNL     1      23.764   6.742  50.803  1.00  0.00     0.356 C 
HETATM   22  O1  UNL     1      24.316   5.886  49.904  1.00  0.00    -0.355 OA
HETATM   23  C16 UNL     1      24.899   4.737  50.422  1.00  0.00     0.195 C 
BRANCH  21  24
HETATM   24  N1  UNL     1      24.289   6.614  52.148  1.00  0.00     0.107 N 
HETATM   25  H1  UNL     1      25.322   6.483  52.055  1.00  0.00     0.316 HD
HETATM   26  H2  UNL     1      24.164   7.493  52.697  1.00  0.00     0.316 HD
ENDBRANCH  21  24
ENDBRANCH  14  16
ENDBRANCH   1  14
TORSDOF 3
ENDMDL
MODEL 6
REMARK VINA RESULT:      -7.4      3.376      6.709
REMARK  3 active torsions:
REMARK  status: ('A' for Active; 'I' for Inactive)
REMARK    1  A    between atoms: N1_1  and  C1_2 
REMARK    2  A    between atoms: C6_7  and  N2_8 
REMARK    3  A    between atoms: N2_8  and  C7_9 
ROOT
HETATM    1  C7  UNL     1      24.452   3.001  52.609  1.00  0.00     0.155 A 
HETATM    2  C8  UNL     1      23.098   2.433  52.386  1.00  0.00     0.120 A 
HETATM    3  N3  UNL     1      23.012   1.207  52.779  1.00  0.00    -0.255 NA
HETATM    4  C9  UNL     1      24.280   0.769  53.320  1.00  0.00     0.106 A 
HETATM    5  S1  UNL     1      25.249  -0.525  54.064  1.00  0.00    -0.072 SA
HETATM    6  C10 UNL     1      26.783   0.433  54.211  1.00  0.00     0.019 A 
HETATM    7  C11 UNL     1      26.448   1.648  53.691  1.00  0.00    -0.030 A 
HETATM    8  C12 UNL     1      25.171   1.838  53.230  1.00  0.00     0.012 A 
HETATM    9  C13 UNL     1      27.685   2.462  53.793  1.00  0.00     0.070 C 
HETATM   10  C14 UNL     1      28.840   1.565  53.391  1.00  0.00     0.274 C 
HETATM   11  N4  UNL     1      29.107   0.687  54.483  1.00  0.00     0.088 N 
HETATM   12  C15 UNL     1      27.989  -0.131  54.780  1.00  0.00     0.316 C 
HETATM   13  H18 UNL     1      29.940   0.108  54.249  1.00  0.00     0.316 HD
ENDROOT
BRANCH   1  14
HETATM   14  N2  UNL     1      25.096   3.277  51.382  1.00  0.00    -0.402 N 
HETATM   15  H11 UNL     1      26.093   3.055  51.298  1.00  0.00     0.154 HD
BRANCH  14  16
HETATM   16  C6  UNL     1      24.552   4.250  50.514  1.00  0.00     0.105 C 
HETATM   17  C5  UNL     1      23.980   3.723  49.218  1.00  0.00     0.053 C 
HETATM   18  C4  UNL     1      22.901   4.685  48.777  1.00  0.00    -0.028 C 
HETATM   19  C3  UNL     1      22.384   5.827  49.262  1.00  0.00    -0.026 C 
HETATM   20  C2  UNL     1      22.521   6.778  50.416  1.00  0.00     0.090 C 
HETATM   21  C1  UNL     1      23.957   7.064  50.739  1.00  0.00     0.356 C 
HETATM   22  O1  UNL     1      24.790   6.534  49.806  1.00  0.00    -0.355 OA
HETATM   23  C16 UNL     1      25.486   5.390  50.178  1.00  0.00     0.195 C 
BRANCH  21  24
HETATM   24  N1  UNL     1      24.279   6.698  52.104  1.00  0.00     0.107 N 
HETATM   25  H1  UNL     1      25.279   6.396  52.104  1.00  0.00     0.316 HD
HETATM   26  H2  UNL     1      24.230   7.519  52.746  1.00  0.00     0.316 HD
ENDBRANCH  21  24
ENDBRANCH  14  16
ENDBRANCH   1  14
TORSDOF 3
ENDMDL
MODEL 7
REMARK VINA RESULT:      -7.2      3.102      6.309
REMARK  3 active torsions:
REMARK  status: ('A' for Active; 'I' for Inactive)
REMARK    1  A    between atoms: N1_1  and  C1_2 
REMARK    2  A    between atoms: C6_7  and  N2_8 
REMARK    3  A    between atoms: N2_8  and  C7_9 
ROOT
HETATM    1  C7  UNL     1      23.526   1.999  52.282  1.00  0.00     0.155 A 
HETATM    2  C8  UNL     1      22.350   1.100  52.167  1.00  0.00     0.120 A 
HETATM    3  N3  UNL     1      22.535  -0.026  52.770  1.00  0.00    -0.255 NA
HETATM    4  C9  UNL     1      23.848  -0.055  53.375  1.00  0.00     0.106 A 
HETATM    5  S1  UNL     1      25.062  -0.939  54.331  1.00  0.00    -0.072 SA
HETATM    6  C10 UNL     1      26.325   0.363  54.302  1.00  0.00     0.019 A 
HETATM    7  C11 UNL     1      25.738   1.357  53.578  1.00  0.00    -0.030 A 
HETATM    8  C12 UNL     1      24.470   1.161  53.096  1.00  0.00     0.012 A 
HETATM    9  C13 UNL     1      26.749   2.444  53.531  1.00  0.00     0.070 C 
HETATM   10  C14 UNL     1      28.095   1.787  53.288  1.00  0.00     0.274 C 
HETATM   11  N4  UNL     1      28.515   1.197  54.517  1.00  0.00     0.088 N 
HETATM   12  C15 UNL     1      27.607   0.204  54.957  1.00  0.00     0.316 C 
HETATM   13  H18 UNL     1      29.469   0.798  54.385  1.00  0.00     0.316 HD
ENDROOT
BRANCH   1  14
HETATM   14  N2  UNL     1      24.135   2.204  51.023  1.00  0.00    -0.402 N 
HETATM   15  H11 UNL     1      24.612   1.412  50.583  1.00  0.00     0.154 HD
BRANCH  14  16
HETATM   16  C6  UNL     1      24.505   3.510  50.634  1.00  0.00     0.105 C 
HETATM   17  C5  UNL     1      25.966   3.699  50.289  1.00  0.00     0.053 C 
HETATM   18  C4  UNL     1      26.050   4.839  49.300  1.00  0.00    -0.028 C 
HETATM   19  C3  UNL     1      25.164   5.658  48.709  1.00  0.00    -0.026 C 
HETATM   20  C2  UNL     1      23.691   5.944  48.649  1.00  0.00     0.090 C 
HETATM   21  C1  UNL     1      23.062   5.929  50.011  1.00  0.00     0.356 C 
HETATM   22  O1  UNL     1      24.000   5.832  50.989  1.00  0.00    -0.355 OA
HETATM   23  C16 UNL     1      24.117   4.595  51.612  1.00  0.00     0.195 C 
BRANCH  21  24
HETATM   24  N1  UNL     1      22.005   4.942  50.098  1.00  0.00     0.107 N 
HETATM   25  H1  UNL     1      22.307   4.242  50.813  1.00  0.00     0.316 HD
HETATM   26  H2  UNL     1      21.119   5.356  50.463  1.00  0.00     0.316 HD
ENDBRANCH  21  24
ENDBRANCH  14  16
ENDBRANCH   1  14
TORSDOF 3
ENDMDL
MODEL 8
REMARK VINA RESULT:      -7.1      6.362      9.457
REMARK  3 active torsions:
REMARK  status: ('A' for Active; 'I' for Inactive)
REMARK    1  A    between atoms: N1_1  and  C1_2 
REMARK    2  A    between atoms: C6_7  and  N2_8 
REMARK    3  A    between atoms: N2_8  and  C7_9 
ROOT
HETATM    1  C7  UNL     1      26.248   7.937  49.387  1.00  0.00     0.155 A 
HETATM    2  C8  UNL     1      25.805   9.229  49.970  1.00  0.00     0.120 A 
HETATM    3  N3  UNL     1      26.746  10.111  49.972  1.00  0.00    -0.255 NA
HETATM    4  C9  UNL     1      27.950   9.555  49.396  1.00  0.00     0.106 A 
HETATM    5  S1  UNL     1      29.653   9.775  48.927  1.00  0.00    -0.072 SA
HETATM    6  C10 UNL     1      29.899   8.101  48.274  1.00  0.00     0.019 A 
HETATM    7  C11 UNL     1      28.685   7.508  48.459  1.00  0.00    -0.030 A 
HETATM    8  C12 UNL     1      27.676   8.238  49.032  1.00  0.00     0.012 A 
HETATM    9  C13 UNL     1      28.850   6.129  47.934  1.00  0.00     0.070 C 
HETATM   10  C14 UNL     1      30.206   5.636  48.401  1.00  0.00     0.274 C 
HETATM   11  N4  UNL     1      31.197   6.262  47.588  1.00  0.00     0.088 N 
HETATM   12  C15 UNL     1      31.165   7.671  47.718  1.00  0.00     0.316 C 
HETATM   13  H18 UNL     1      32.131   5.884  47.852  1.00  0.00     0.316 HD
ENDROOT
BRANCH   1  14
HETATM   14  N2  UNL     1      26.270   6.918  50.365  1.00  0.00    -0.402 N 
HETATM   15  H11 UNL     1      27.132   6.782  50.902  1.00  0.00     0.154 HD
BRANCH  14  16
HETATM   16  C6  UNL     1      25.368   5.836  50.264  1.00  0.00     0.105 C 
HETATM   17  C5  UNL     1      25.602   4.896  49.103  1.00  0.00     0.053 C 
HETATM   18  C4  UNL     1      25.071   3.540  49.507  1.00  0.00    -0.028 C 
HETATM   19  C3  UNL     1      24.478   3.035  50.602  1.00  0.00    -0.026 C 
HETATM   20  C2  UNL     1      24.011   3.434  51.972  1.00  0.00     0.090 C 
HETATM   21  C1  UNL     1      23.299   4.754  51.958  1.00  0.00     0.356 C 
HETATM   22  O1  UNL     1      23.092   5.192  50.689  1.00  0.00    -0.355 OA
HETATM   23  C16 UNL     1      23.908   6.229  50.253  1.00  0.00     0.195 C 
BRANCH  21  24
HETATM   24  N1  UNL     1      23.947   5.718  52.825  1.00  0.00     0.107 N 
HETATM   25  H1  UNL     1      24.953   5.440  52.882  1.00  0.00     0.316 HD
HETATM   26  H2  UNL     1      23.940   6.676  52.410  1.00  0.00     0.316 HD
ENDBRANCH  21  24
ENDBRANCH  14  16
ENDBRANCH   1  14
TORSDOF 3
ENDMDL
MODEL 9
REMARK VINA RESULT:      -7.1      3.527      6.286
REMARK  3 active torsions:
REMARK  status: ('A' for Active; 'I' for Inactive)
REMARK    1  A    between atoms: N1_1  and  C1_2 
REMARK    2  A    between atoms: C6_7  and  N2_8 
REMARK    3  A    between atoms: N2_8  and  C7_9 
ROOT
HETATM    1  C7  UNL     1      21.697   3.749  52.012  1.00  0.00     0.155 A 
HETATM    2  C8  UNL     1      20.213   3.724  51.953  1.00  0.00     0.120 A 
HETATM    3  N3  UNL     1      19.728   2.595  52.346  1.00  0.00    -0.255 NA
HETATM    4  C9  UNL     1      20.798   1.700  52.725  1.00  0.00     0.106 A 
HETATM    5  S1  UNL     1      21.301   0.106  53.337  1.00  0.00    -0.072 SA
HETATM    6  C10 UNL     1      23.086   0.432  53.300  1.00  0.00     0.019 A 
HETATM    7  C11 UNL     1      23.164   1.710  52.832  1.00  0.00    -0.030 A 
HETATM    8  C12 UNL     1      22.003   2.375  52.533  1.00  0.00     0.012 A 
HETATM    9  C13 UNL     1      24.617   2.012  52.787  1.00  0.00     0.070 C 
HETATM   10  C14 UNL     1      25.310   0.778  52.241  1.00  0.00     0.274 C 
HETATM   11  N4  UNL     1      25.355  -0.191  53.287  1.00  0.00     0.088 N 
HETATM   12  C15 UNL     1      24.056  -0.560  53.713  1.00  0.00     0.316 C 
HETATM   13  H18 UNL     1      25.886  -1.021  52.948  1.00  0.00     0.316 HD
ENDROOT
BRANCH   1  14
HETATM   14  N2  UNL     1      22.256   3.835  50.717  1.00  0.00    -0.402 N 
HETATM   15  H11 UNL     1      22.188   3.015  50.106  1.00  0.00     0.154 HD
BRANCH  14  16
HETATM   16  C6  UNL     1      23.276   4.778  50.460  1.00  0.00     0.105 C 
HETATM   17  C5  UNL     1      24.473   4.254  49.699  1.00  0.00     0.053 C 
HETATM   18  C4  UNL     1      25.074   5.420  48.948  1.00  0.00    -0.028 C 
HETATM   19  C3  UNL     1      24.787   6.727  48.826  1.00  0.00    -0.026 C 
HETATM   20  C2  UNL     1      23.803   7.760  49.296  1.00  0.00     0.090 C 
HETATM   21  C1  UNL     1      23.520   7.636  50.763  1.00  0.00     0.356 C 
HETATM   22  O1  UNL     1      24.346   6.734  51.353  1.00  0.00    -0.355 OA
HETATM   23  C16 UNL     1      23.786   5.506  51.682  1.00  0.00     0.195 C 
BRANCH  21  24
HETATM   24  N1  UNL     1      22.112   7.410  51.016  1.00  0.00     0.107 N 
HETATM   25  H1  UNL     1      22.005   6.392  51.227  1.00  0.00     0.316 HD
HETATM   26  H2  UNL     1      21.786   7.912  51.871  1.00  0.00     0.316 HD
ENDBRANCH  21  24
ENDBRANCH  14  16
ENDBRANCH   1  14
TORSDOF 3
ENDMDL
