MODEL 1
REMARK VINA RESULT:      -7.6      0.000      0.000
REMARK  5 active torsions:
REMARK  status: ('A' for Active; 'I' for Inactive)
REMARK    1  A    between atoms: C3_3  and  N1_4 
REMARK    2  A    between atoms: C3_3  and  C4_5 
REMARK    3  A    between atoms: C5_6  and  C6_7 
REMARK    4  A    between atoms: C9_12  and  N4_13 
REMARK    5  A    between atoms: N4_13  and  C10_14 
ROOT
HETATM    1  C6  UNL     1      26.929   1.583  53.236  1.00  0.00     0.028 A 
HETATM    2  C7  UNL     1      28.062   2.196  53.695  1.00  0.00     0.133 A 
HETATM    3  N2  UNL     1      28.943   1.518  54.467  1.00  0.00    -0.253 NA
HETATM    4  C8  UNL     1      28.700   0.213  54.792  1.00  0.00     0.234 A 
HETATM    5  N3  UNL     1      27.578  -0.330  54.314  1.00  0.00    -0.224 NA
HETATM    6  C9  UNL     1      26.658   0.269  53.547  1.00  0.00     0.141 A 
ENDROOT
BRANCH   6   7
HETATM    7  N4  UNL     1      25.503  -0.423  53.103  1.00  0.00    -0.340 N 
HETATM    8  H11 UNL     1      25.642  -0.953  52.241  1.00  0.00     0.167 HD
BRANCH   7   9
HETATM    9  C10 UNL     1      24.232  -0.475  53.674  1.00  0.00     0.035 A 
HETATM   10  C11 UNL     1      23.844  -1.189  54.761  1.00  0.00     0.029 A 
HETATM   11  C12 UNL     1      22.581  -1.227  55.309  1.00  0.00     0.004 A 
HETATM   12  C13 UNL     1      21.611  -0.463  54.695  1.00  0.00     0.019 A 
HETATM   13  C14 UNL     1      21.913   0.292  53.589  1.00  0.00     0.013 A 
HETATM   14 BR1  UNL     1      20.570   1.345  52.744  1.00  0.00    -0.051 Br
HETATM   15  C15 UNL     1      23.191   0.263  53.121  1.00  0.00     0.048 A 
ENDBRANCH   7   9
ENDBRANCH   6   7
BRANCH   1  16
HETATM   16  C5  UNL     1      26.012   2.349  52.409  1.00  0.00     0.019 C 
HETATM   17  C4  UNL     1      26.122   2.507  51.115  1.00  0.00     0.029 C 
BRANCH  17  18
HETATM   18  C3  UNL     1      25.253   3.254  50.213  1.00  0.00     0.021 C 
HETATM   19  C2  UNL     1      25.629   4.095  49.275  1.00  0.00    -0.002 C 
HETATM   20  C1  UNL     1      27.089   4.257  49.172  1.00  0.00     0.038 C 
BRANCH  18  21
HETATM   21  N1  UNL     1      23.876   2.987  50.442  1.00  0.00    -0.399 N 
HETATM   22  H5  UNL     1      22.881   2.795  50.606  1.00  0.00     0.156 HD
HETATM   23  H6  UNL     1      23.315   2.087  50.391  1.00  0.00     0.156 HD
ENDBRANCH  18  21
ENDBRANCH  17  18
ENDBRANCH   1  16
TORSDOF 5
ENDMDL
MODEL 2
REMARK VINA RESULT:      -7.5      1.767      5.213
REMARK  5 active torsions:
REMARK  status: ('A' for Active; 'I' for Inactive)
REMARK    1  A    between atoms: C3_3  and  N1_4 
REMARK    2  A    between atoms: C3_3  and  C4_5 
REMARK    3  A    between atoms: C5_6  and  C6_7 
REMARK    4  A    between atoms: C9_12  and  N4_13 
REMARK    5  A    between atoms: N4_13  and  C10_14 
ROOT
HETATM    1  C6  UNL     1      26.528   0.589  53.345  1.00  0.00     0.028 A 
HETATM    2  C7  UNL     1      27.071   0.340  54.575  1.00  0.00     0.133 A 
HETATM    3  N2  UNL     1      28.261   0.885  54.922  1.00  0.00    -0.253 NA
HETATM    4  C8  UNL     1      28.925   1.689  54.040  1.00  0.00     0.234 A 
HETATM    5  N3  UNL     1      28.344   1.896  52.855  1.00  0.00    -0.224 NA
HETATM    6  C9  UNL     1      27.175   1.396  52.435  1.00  0.00     0.141 A 
ENDROOT
BRANCH   6   7
HETATM    7  N4  UNL     1      26.666   1.693  51.146  1.00  0.00    -0.340 N 
HETATM    8  H11 UNL     1      26.675   0.900  50.503  1.00  0.00     0.167 HD
BRANCH   7   9
HETATM    9  C10 UNL     1      26.165   2.897  50.651  1.00  0.00     0.035 A 
HETATM   10  C11 UNL     1      26.690   3.664  49.662  1.00  0.00     0.029 A 
HETATM   11  C12 UNL     1      26.178   4.852  49.186  1.00  0.00     0.004 A 
HETATM   12  C13 UNL     1      25.017   5.310  49.772  1.00  0.00     0.019 A 
HETATM   13  C14 UNL     1      24.416   4.599  50.781  1.00  0.00     0.013 A 
HETATM   14 BR1  UNL     1      22.813   5.236  51.587  1.00  0.00    -0.051 Br
HETATM   15  C15 UNL     1      24.998   3.435  51.183  1.00  0.00     0.048 A 
ENDBRANCH   7   9
ENDBRANCH   6   7
BRANCH   1  16
HETATM   16  C5  UNL     1      25.249  -0.016  53.015  1.00  0.00     0.019 C 
HETATM   17  C4  UNL     1      24.085   0.420  53.423  1.00  0.00     0.029 C 
BRANCH  17  18
HETATM   18  C3  UNL     1      22.761  -0.122  53.143  1.00  0.00     0.021 C 
HETATM   19  C2  UNL     1      22.068  -0.939  53.904  1.00  0.00    -0.002 C 
HETATM   20  C1  UNL     1      22.749  -1.308  55.156  1.00  0.00     0.038 C 
BRANCH  18  21
HETATM   21  N1  UNL     1      22.243   0.330  51.899  1.00  0.00    -0.399 N 
HETATM   22  H5  UNL     1      21.868   0.657  51.001  1.00  0.00     0.156 HD
HETATM   23  H6  UNL     1      22.692   0.874  51.105  1.00  0.00     0.156 HD
ENDBRANCH  18  21
ENDBRANCH  17  18
ENDBRANCH   1  16
TORSDOF 5
ENDMDL
MODEL 3
REMARK VINA RESULT:      -7.3      2.499      5.501
REMARK  5 active torsions:
REMARK  status: ('A' for Active; 'I' for Inactive)
REMARK    1  A    between atoms: C3_3  and  N1_4 
REMARK    2  A    between atoms: C3_3  and  C4_5 
REMARK    3  A    between atoms: C5_6  and  C6_7 
REMARK    4  A    between atoms: C9_12  and  N4_13 
REMARK    5  A    between atoms: N4_13  and  C10_14 
ROOT
HETATM    1  C6  UNL     1      25.115  -0.061  53.869  1.00  0.00     0.028 A 
HETATM    2  C7  UNL     1      24.847  -0.865  54.942  1.00  0.00     0.133 A 
HETATM    3  N2  UNL     1      23.581  -1.274  55.193  1.00  0.00    -0.253 NA
HETATM    4  C8  UNL     1      22.564  -0.881  54.370  1.00  0.00     0.234 A 
HETATM    5  N3  UNL     1      22.888  -0.096  53.339  1.00  0.00    -0.224 NA
HETATM    6  C9  UNL     1      24.109   0.351  53.023  1.00  0.00     0.141 A 
ENDROOT
BRANCH   6   7
HETATM    7  N4  UNL     1      24.321   1.183  51.896  1.00  0.00    -0.340 N 
HETATM    8  H11 UNL     1      24.643   0.684  51.064  1.00  0.00     0.167 HD
BRANCH   7   9
HETATM    9  C10 UNL     1      24.153   2.562  51.772  1.00  0.00     0.035 A 
HETATM   10  C11 UNL     1      23.392   3.373  52.549  1.00  0.00     0.029 A 
HETATM   11  C12 UNL     1      23.239   4.735  52.410  1.00  0.00     0.004 A 
HETATM   12  C13 UNL     1      23.929   5.338  51.379  1.00  0.00     0.019 A 
HETATM   13  C14 UNL     1      24.724   4.595  50.543  1.00  0.00     0.013 A 
HETATM   14 BR1  UNL     1      25.674   5.433  49.120  1.00  0.00    -0.051 Br
HETATM   15  C15 UNL     1      24.811   3.255  50.760  1.00  0.00     0.048 A 
ENDBRANCH   7   9
ENDBRANCH   6   7
BRANCH   1  16
HETATM   16  C5  UNL     1      26.489   0.353  53.638  1.00  0.00     0.019 C 
HETATM   17  C4  UNL     1      27.495   0.090  54.431  1.00  0.00     0.029 C 
BRANCH  17  18
HETATM   18  C3  UNL     1      28.896   0.464  54.277  1.00  0.00     0.021 C 
HETATM   19  C2  UNL     1      29.857  -0.276  53.771  1.00  0.00    -0.002 C 
HETATM   20  C1  UNL     1      29.412  -1.608  53.330  1.00  0.00     0.038 C 
BRANCH  18  21
HETATM   21  N1  UNL     1      29.161   1.778  54.750  1.00  0.00    -0.399 N 
HETATM   22  H5  UNL     1      29.354   2.727  55.091  1.00  0.00     0.156 HD
HETATM   23  H6  UNL     1      28.560   2.653  54.773  1.00  0.00     0.156 HD
ENDBRANCH  18  21
ENDBRANCH  17  18
ENDBRANCH   1  16
TORSDOF 5
ENDMDL
MODEL 4
REMARK VINA RESULT:      -7.1      3.359      7.015
REMARK  5 active torsions:
REMARK  status: ('A' for Active; 'I' for Inactive)
REMARK    1  A    between atoms: C3_3  and  N1_4 
REMARK    2  A    between atoms: C3_3  and  C4_5 
REMARK    3  A    between atoms: C5_6  and  C6_7 
REMARK    4  A    between atoms: C9_12  and  N4_13 
REMARK    5  A    between atoms: N4_13  and  C10_14 
ROOT
HETATM    1  C6  UNL     1      25.500   2.143  52.170  1.00  0.00     0.028 A 
HETATM    2  C7  UNL     1      24.549   1.738  53.064  1.00  0.00     0.133 A 
HETATM    3  N2  UNL     1      23.246   1.684  52.701  1.00  0.00    -0.253 NA
HETATM    4  C8  UNL     1      22.878   2.037  51.433  1.00  0.00     0.234 A 
HETATM    5  N3  UNL     1      23.852   2.423  50.606  1.00  0.00    -0.224 NA
HETATM    6  C9  UNL     1      25.159   2.504  50.886  1.00  0.00     0.141 A 
ENDROOT
BRANCH   6   7
HETATM    7  N4  UNL     1      26.096   2.932  49.913  1.00  0.00    -0.340 N 
HETATM    8  H11 UNL     1      26.711   2.191  49.574  1.00  0.00     0.167 HD
BRANCH   7   9
HETATM    9  C10 UNL     1      26.286   4.202  49.369  1.00  0.00     0.035 A 
HETATM   10  C11 UNL     1      25.352   5.169  49.184  1.00  0.00     0.029 A 
HETATM   11  C12 UNL     1      25.562   6.419  48.644  1.00  0.00     0.004 A 
HETATM   12  C13 UNL     1      26.848   6.721  48.251  1.00  0.00     0.019 A 
HETATM   13  C14 UNL     1      27.858   5.803  48.400  1.00  0.00     0.013 A 
HETATM   14 BR1  UNL     1      29.633   6.226  47.856  1.00  0.00    -0.051 Br
HETATM   15  C15 UNL     1      27.552   4.594  48.944  1.00  0.00     0.048 A 
ENDBRANCH   7   9
ENDBRANCH   6   7
BRANCH   1  16
HETATM   16  C5  UNL     1      26.887   2.185  52.604  1.00  0.00     0.019 C 
HETATM   17  C4  UNL     1      27.546   1.174  53.107  1.00  0.00     0.029 C 
BRANCH  17  18
HETATM   18  C3  UNL     1      28.930   1.128  53.565  1.00  0.00     0.021 C 
HETATM   19  C2  UNL     1      29.680   0.056  53.696  1.00  0.00    -0.002 C 
HETATM   20  C1  UNL     1      28.999  -1.196  53.327  1.00  0.00     0.038 C 
BRANCH  18  21
HETATM   21  N1  UNL     1      29.439   2.416  53.882  1.00  0.00    -0.399 N 
HETATM   22  H5  UNL     1      29.807   3.346  54.111  1.00  0.00     0.156 HD
HETATM   23  H6  UNL     1      30.240   2.977  53.469  1.00  0.00     0.156 HD
ENDBRANCH  18  21
ENDBRANCH  17  18
ENDBRANCH   1  16
TORSDOF 5
ENDMDL
MODEL 5
REMARK VINA RESULT:      -7.1      2.493      6.023
REMARK  5 active torsions:
REMARK  status: ('A' for Active; 'I' for Inactive)
REMARK    1  A    between atoms: C3_3  and  N1_4 
REMARK    2  A    between atoms: C3_3  and  C4_5 
REMARK    3  A    between atoms: C5_6  and  C6_7 
REMARK    4  A    between atoms: C9_12  and  N4_13 
REMARK    5  A    between atoms: N4_13  and  C10_14 
ROOT
HETATM    1  C6  UNL     1      23.477   2.042  51.879  1.00  0.00     0.028 A 
HETATM    2  C7  UNL     1      22.669   2.077  50.778  1.00  0.00     0.133 A 
HETATM    3  N2  UNL     1      23.102   2.642  49.626  1.00  0.00    -0.253 NA
HETATM    4  C8  UNL     1      24.355   3.183  49.564  1.00  0.00     0.234 A 
HETATM    5  N3  UNL     1      25.098   3.118  50.672  1.00  0.00    -0.224 NA
HETATM    6  C9  UNL     1      24.745   2.579  51.845  1.00  0.00     0.141 A 
ENDROOT
BRANCH   6   7
HETATM    7  N4  UNL     1      25.631   2.575  52.951  1.00  0.00    -0.340 N 
HETATM    8  H11 UNL     1      25.402   3.264  53.670  1.00  0.00     0.167 HD
BRANCH   7   9
HETATM    9  C10 UNL     1      26.748   1.773  53.184  1.00  0.00     0.035 A 
HETATM   10  C11 UNL     1      27.951   2.158  53.681  1.00  0.00     0.029 A 
HETATM   11  C12 UNL     1      29.043   1.348  53.904  1.00  0.00     0.004 A 
HETATM   12  C13 UNL     1      28.903   0.011  53.594  1.00  0.00     0.019 A 
HETATM   13  C14 UNL     1      27.720  -0.467  53.087  1.00  0.00     0.013 A 
HETATM   14 BR1  UNL     1      27.532  -2.313  52.660  1.00  0.00    -0.051 Br
HETATM   15  C15 UNL     1      26.698   0.412  52.901  1.00  0.00     0.048 A 
ENDBRANCH   7   9
ENDBRANCH   6   7
BRANCH   1  16
HETATM   16  C5  UNL     1      22.970   1.424  53.093  1.00  0.00     0.019 C 
HETATM   17  C4  UNL     1      22.859   0.136  53.288  1.00  0.00     0.029 C 
BRANCH  17  18
HETATM   18  C3  UNL     1      22.364  -0.566  54.467  1.00  0.00     0.021 C 
HETATM   19  C2  UNL     1      23.083  -1.210  55.359  1.00  0.00    -0.002 C 
HETATM   20  C1  UNL     1      24.530  -1.187  55.086  1.00  0.00     0.038 C 
BRANCH  18  21
HETATM   21  N1  UNL     1      20.949  -0.495  54.586  1.00  0.00    -0.399 N 
HETATM   22  H5  UNL     1      19.928  -0.445  54.671  1.00  0.00     0.156 HD
HETATM   23  H6  UNL     1      20.294  -0.768  55.376  1.00  0.00     0.156 HD
ENDBRANCH  18  21
ENDBRANCH  17  18
ENDBRANCH   1  16
TORSDOF 5
ENDMDL
MODEL 6
REMARK VINA RESULT:      -6.9      1.528      4.421
REMARK  5 active torsions:
REMARK  status: ('A' for Active; 'I' for Inactive)
REMARK    1  A    between atoms: C3_3  and  N1_4 
REMARK    2  A    between atoms: C3_3  and  C4_5 
REMARK    3  A    between atoms: C5_6  and  C6_7 
REMARK    4  A    between atoms: C9_12  and  N4_13 
REMARK    5  A    between atoms: N4_13  and  C10_14 
ROOT
HETATM    1  C6  UNL     1      25.836   2.883  51.251  1.00  0.00     0.028 A 
HETATM    2  C7  UNL     1      26.358   3.353  50.079  1.00  0.00     0.133 A 
HETATM    3  N2  UNL     1      25.571   4.001  49.188  1.00  0.00    -0.253 NA
HETATM    4  C8  UNL     1      24.245   4.186  49.460  1.00  0.00     0.234 A 
HETATM    5  N3  UNL     1      23.793   3.705  50.621  1.00  0.00    -0.224 NA
HETATM    6  C9  UNL     1      24.503   3.055  51.552  1.00  0.00     0.141 A 
ENDROOT
BRANCH   6   7
HETATM    7  N4  UNL     1      23.901   2.593  52.749  1.00  0.00    -0.340 N 
HETATM    8  H11 UNL     1      23.972   3.247  53.530  1.00  0.00     0.167 HD
BRANCH   7   9
HETATM    9  C10 UNL     1      23.238   1.390  52.996  1.00  0.00     0.035 A 
HETATM   10  C11 UNL     1      23.748   0.270  53.566  1.00  0.00     0.029 A 
HETATM   11  C12 UNL     1      23.075  -0.909  53.802  1.00  0.00     0.004 A 
HETATM   12  C13 UNL     1      21.751  -0.959  53.422  1.00  0.00     0.019 A 
HETATM   13  C14 UNL     1      21.151   0.129  52.838  1.00  0.00     0.013 A 
HETATM   14 BR1  UNL     1      19.321   0.057  52.315  1.00  0.00    -0.051 Br
HETATM   15  C15 UNL     1      21.899   1.250  52.646  1.00  0.00     0.048 A 
ENDBRANCH   7   9
ENDBRANCH   6   7
BRANCH   1  16
HETATM   16  C5  UNL     1      26.718   2.195  52.178  1.00  0.00     0.019 C 
HETATM   17  C4  UNL     1      27.044   0.931  52.105  1.00  0.00     0.029 C 
BRANCH  17  18
HETATM   18  C3  UNL     1      27.917   0.164  52.987  1.00  0.00     0.021 C 
HETATM   19  C2  UNL     1      27.859  -1.128  53.221  1.00  0.00    -0.002 C 
HETATM   20  C1  UNL     1      26.783  -1.818  52.491  1.00  0.00     0.038 C 
BRANCH  18  21
HETATM   21  N1  UNL     1      28.900   0.975  53.615  1.00  0.00    -0.399 N 
HETATM   22  H5  UNL     1      29.610   1.561  54.070  1.00  0.00     0.156 HD
HETATM   23  H6  UNL     1      29.943   0.835  53.756  1.00  0.00     0.156 HD
ENDBRANCH  18  21
ENDBRANCH  17  18
ENDBRANCH   1  16
TORSDOF 5
ENDMDL
MODEL 7
REMARK VINA RESULT:      -6.9      2.834      5.050
REMARK  5 active torsions:
REMARK  status: ('A' for Active; 'I' for Inactive)
REMARK    1  A    between atoms: C3_3  and  N1_4 
REMARK    2  A    between atoms: C3_3  and  C4_5 
REMARK    3  A    between atoms: C5_6  and  C6_7 
REMARK    4  A    between atoms: C9_12  and  N4_13 
REMARK    5  A    between atoms: N4_13  and  C10_14 
ROOT
HETATM    1  C6  UNL     1      22.601   0.393  53.379  1.00  0.00     0.028 A 
HETATM    2  C7  UNL     1      21.321   0.371  52.900  1.00  0.00     0.133 A 
HETATM    3  N2  UNL     1      20.454  -0.586  53.305  1.00  0.00    -0.253 NA
HETATM    4  C8  UNL     1      20.860  -1.538  54.197  1.00  0.00     0.234 A 
HETATM    5  N3  UNL     1      22.121  -1.464  54.629  1.00  0.00    -0.224 NA
HETATM    6  C9  UNL     1      23.038  -0.553  54.280  1.00  0.00     0.141 A 
ENDROOT
BRANCH   6   7
HETATM    7  N4  UNL     1      24.350  -0.585  54.813  1.00  0.00    -0.340 N 
HETATM    8  H11 UNL     1      24.384  -0.574  55.834  1.00  0.00     0.167 HD
BRANCH   7   9
HETATM    9  C10 UNL     1      25.574  -0.628  54.146  1.00  0.00     0.035 A 
HETATM   10  C11 UNL     1      25.927  -1.447  53.123  1.00  0.00     0.029 A 
HETATM   11  C12 UNL     1      27.144  -1.474  52.477  1.00  0.00     0.004 A 
HETATM   12  C13 UNL     1      28.100  -0.579  52.909  1.00  0.00     0.019 A 
HETATM   13  C14 UNL     1      27.830   0.288  53.938  1.00  0.00     0.013 A 
HETATM   14 BR1  UNL     1      29.154   1.522  54.532  1.00  0.00    -0.051 Br
HETATM   15  C15 UNL     1      26.598   0.238  54.515  1.00  0.00     0.048 A 
ENDBRANCH   7   9
ENDBRANCH   6   7
BRANCH   1  16
HETATM   16  C5  UNL     1      23.497   1.441  52.917  1.00  0.00     0.019 C 
HETATM   17  C4  UNL     1      23.946   1.559  51.695  1.00  0.00     0.029 C 
BRANCH  17  18
HETATM   18  C3  UNL     1      24.842   2.571  51.149  1.00  0.00     0.021 C 
HETATM   19  C2  UNL     1      24.675   3.253  50.038  1.00  0.00    -0.002 C 
HETATM   20  C1  UNL     1      23.438   2.918  49.314  1.00  0.00     0.038 C 
BRANCH  18  21
HETATM   21  N1  UNL     1      25.988   2.777  51.964  1.00  0.00    -0.399 N 
HETATM   22  H5  UNL     1      26.816   2.927  52.553  1.00  0.00     0.156 HD
HETATM   23  H6  UNL     1      26.174   2.556  52.986  1.00  0.00     0.156 HD
ENDBRANCH  18  21
ENDBRANCH  17  18
ENDBRANCH   1  16
TORSDOF 5
ENDMDL
MODEL 8
REMARK VINA RESULT:      -6.8      2.949      6.277
REMARK  5 active torsions:
REMARK  status: ('A' for Active; 'I' for Inactive)
REMARK    1  A    between atoms: C3_3  and  N1_4 
REMARK    2  A    between atoms: C3_3  and  C4_5 
REMARK    3  A    between atoms: C5_6  and  C6_7 
REMARK    4  A    between atoms: C9_12  and  N4_13 
REMARK    5  A    between atoms: N4_13  and  C10_14 
ROOT
HETATM    1  C6  UNL     1      22.470   1.208  51.010  1.00  0.00     0.028 A 
HETATM    2  C7  UNL     1      21.856   1.527  49.832  1.00  0.00     0.133 A 
HETATM    3  N2  UNL     1      22.357   2.505  49.040  1.00  0.00    -0.253 NA
HETATM    4  C8  UNL     1      23.483   3.177  49.421  1.00  0.00     0.234 A 
HETATM    5  N3  UNL     1      24.039   2.821  50.582  1.00  0.00    -0.224 NA
HETATM    6  C9  UNL     1      23.607   1.870  51.419  1.00  0.00     0.141 A 
ENDROOT
BRANCH   6   7
HETATM    7  N4  UNL     1      24.290   1.586  52.628  1.00  0.00    -0.340 N 
HETATM    8  H11 UNL     1      23.838   1.969  53.461  1.00  0.00     0.167 HD
BRANCH   7   9
HETATM    9  C10 UNL     1      25.470   0.871  52.829  1.00  0.00     0.035 A 
HETATM   10  C11 UNL     1      25.683  -0.449  52.601  1.00  0.00     0.029 A 
HETATM   11  C12 UNL     1      26.859  -1.138  52.807  1.00  0.00     0.004 A 
HETATM   12  C13 UNL     1      27.929  -0.415  53.291  1.00  0.00     0.019 A 
HETATM   13  C14 UNL     1      27.804   0.927  53.551  1.00  0.00     0.013 A 
HETATM   14 BR1  UNL     1      29.284   1.921  54.220  1.00  0.00    -0.051 Br
HETATM   15  C15 UNL     1      26.601   1.519  53.316  1.00  0.00     0.048 A 
ENDBRANCH   7   9
ENDBRANCH   6   7
BRANCH   1  16
HETATM   16  C5  UNL     1      21.898   0.152  51.828  1.00  0.00     0.019 C 
HETATM   17  C4  UNL     1      21.339   0.328  52.997  1.00  0.00     0.029 C 
BRANCH  17  18
HETATM   18  C3  UNL     1      20.743  -0.669  53.880  1.00  0.00     0.021 C 
HETATM   19  C2  UNL     1      21.368  -1.399  54.777  1.00  0.00    -0.002 C 
HETATM   20  C1  UNL     1      22.814  -1.139  54.853  1.00  0.00     0.038 C 
BRANCH  18  21
HETATM   21  N1  UNL     1      19.342  -0.800  53.682  1.00  0.00    -0.399 N 
HETATM   22  H5  UNL     1      18.330  -0.895  53.538  1.00  0.00     0.156 HD
HETATM   23  H6  UNL     1      18.554  -1.032  54.355  1.00  0.00     0.156 HD
ENDBRANCH  18  21
ENDBRANCH  17  18
ENDBRANCH   1  16
TORSDOF 5
ENDMDL
MODEL 9
REMARK VINA RESULT:      -6.8      3.018      5.924
REMARK  5 active torsions:
REMARK  status: ('A' for Active; 'I' for Inactive)
REMARK    1  A    between atoms: C3_3  and  N1_4 
REMARK    2  A    between atoms: C3_3  and  C4_5 
REMARK    3  A    between atoms: C5_6  and  C6_7 
REMARK    4  A    between atoms: C9_12  and  N4_13 
REMARK    5  A    between atoms: N4_13  and  C10_14 
ROOT
HETATM    1  C6  UNL     1      22.540  -0.121  53.666  1.00  0.00     0.028 A 
HETATM    2  C7  UNL     1      22.426  -1.274  54.391  1.00  0.00     0.133 A 
HETATM    3  N2  UNL     1      21.214  -1.845  54.585  1.00  0.00    -0.253 NA
HETATM    4  C8  UNL     1      20.096  -1.265  54.055  1.00  0.00     0.234 A 
HETATM    5  N3  UNL     1      20.271  -0.141  53.357  1.00  0.00    -0.224 NA
HETATM    6  C9  UNL     1      21.430   0.485  53.120  1.00  0.00     0.141 A 
ENDROOT
BRANCH   6   7
HETATM    7  N4  UNL     1      21.481   1.680  52.359  1.00  0.00    -0.340 N 
HETATM    8  H11 UNL     1      21.241   2.520  52.888  1.00  0.00     0.167 HD
BRANCH   7   9
HETATM    9  C10 UNL     1      21.810   1.858  51.016  1.00  0.00     0.035 A 
HETATM   10  C11 UNL     1      21.381   1.125  49.958  1.00  0.00     0.029 A 
HETATM   11  C12 UNL     1      21.719   1.318  48.636  1.00  0.00     0.004 A 
HETATM   12  C13 UNL     1      22.577   2.360  48.356  1.00  0.00     0.019 A 
HETATM   13  C14 UNL     1      23.060   3.156  49.365  1.00  0.00     0.013 A 
HETATM   14 BR1  UNL     1      24.245   4.595  48.975  1.00  0.00    -0.051 Br
HETATM   15  C15 UNL     1      22.670   2.886  50.641  1.00  0.00     0.048 A 
ENDBRANCH   7   9
ENDBRANCH   6   7
BRANCH   1  16
HETATM   16  C5  UNL     1      23.861   0.455  53.482  1.00  0.00     0.019 C 
HETATM   17  C4  UNL     1      24.980  -0.090  53.883  1.00  0.00     0.029 C 
BRANCH  17  18
HETATM   18  C3  UNL     1      26.340   0.416  53.741  1.00  0.00     0.021 C 
HETATM   19  C2  UNL     1      27.346  -0.188  53.148  1.00  0.00    -0.002 C 
HETATM   20  C1  UNL     1      27.003  -1.506  52.589  1.00  0.00     0.038 C 
BRANCH  18  21
HETATM   21  N1  UNL     1      26.507   1.697  54.333  1.00  0.00    -0.399 N 
HETATM   22  H5  UNL     1      26.628   2.623  54.760  1.00  0.00     0.156 HD
HETATM   23  H6  UNL     1      25.995   2.615  54.181  1.00  0.00     0.156 HD
ENDBRANCH  18  21
ENDBRANCH  17  18
ENDBRANCH   1  16
TORSDOF 5
ENDMDL
