MODEL 1
REMARK VINA RESULT:      -8.6      0.000      0.000
REMARK  6 active torsions:
REMARK  status: ('A' for Active; 'I' for Inactive)
REMARK    1  A    between atoms: C9_10  and  O1_11 
REMARK    2  A    between atoms: O1_11  and  S1_12 
REMARK    3  A    between atoms: S1_12  and  C10_15 
REMARK    4  A    between atoms: C13_18  and  C14_19 
REMARK    5  A    between atoms: C14_19  and  O4_20 
REMARK    6  A    between atoms: C18_25  and  O6_26 
ROOT
HETATM    1  C1  UNL     1      26.427  -1.297  52.821  1.00  0.00     0.016 C 
HETATM    2  C2  UNL     1      26.185  -0.321  53.943  1.00  0.00     0.041 C 
HETATM    3  C3  UNL     1      27.429  -0.005  54.731  1.00  0.00     0.280 C 
HETATM    4  N1  UNL     1      28.018   1.173  54.150  1.00  0.00     0.088 N 
HETATM    5  C4  UNL     1      29.287   0.873  53.517  1.00  0.00     0.310 C 
HETATM    6  C5  UNL     1      27.066   1.777  53.281  1.00  0.00     0.307 C 
HETATM    7  C6  UNL     1      25.811   0.984  53.323  1.00  0.00    -0.033 C 
HETATM    8  C7  UNL     1      24.662   1.461  52.869  1.00  0.00     0.008 A 
HETATM    9  C8  UNL     1      24.516   2.811  52.282  1.00  0.00     0.080 A 
HETATM   10  C9  UNL     1      23.331   3.202  51.855  1.00  0.00     0.203 A 
HETATM   11  O5  UNL     1      22.201   2.390  51.932  1.00  0.00    -0.297 OA
HETATM   12  C17 UNL     1      22.256   1.111  52.469  1.00  0.00     0.182 A 
HETATM   13  C18 UNL     1      23.423   0.672  52.912  1.00  0.00     0.098 A 
ENDROOT
BRANCH  10  14
HETATM   14  O1  UNL     1      23.360   4.487  51.333  1.00  0.00    -0.204 OA
BRANCH  14  15
HETATM   15  S1  UNL     1      23.524   4.745  49.661  1.00  0.00     0.304 S 
HETATM   16  O2  UNL     1      23.031   3.531  48.889  1.00  0.00    -0.193 OA
HETATM   17  O3  UNL     1      22.572   5.866  49.282  1.00  0.00    -0.193 OA
BRANCH  15  18
HETATM   18  C10 UNL     1      25.153   5.131  49.196  1.00  0.00     0.086 A 
HETATM   19  C11 UNL     1      26.071   4.085  49.290  1.00  0.00     0.026 A 
HETATM   20  C12 UNL     1      27.403   4.315  48.934  1.00  0.00     0.011 A 
HETATM   21  C13 UNL     1      27.800   5.564  48.495  1.00  0.00    -0.035 A 
HETATM   22  C15 UNL     1      26.901   6.609  48.397  1.00  0.00     0.011 A 
HETATM   23  C16 UNL     1      25.596   6.356  48.754  1.00  0.00     0.026 A 
BRANCH  21  24
HETATM   24  C14 UNL     1      29.236   5.725  48.134  1.00  0.00     0.202 C 
BRANCH  24  25
HETATM   25  O4  UNL     1      29.985   5.566  49.315  1.00  0.00    -0.396 OA
HETATM   26  H17 UNL     1      29.640   4.798  49.861  1.00  0.00     0.209 HD
ENDBRANCH  24  25
ENDBRANCH  21  24
ENDBRANCH  15  18
ENDBRANCH  14  15
ENDBRANCH  10  14
BRANCH  13  27
HETATM   27  O6  UNL     1      23.424  -0.611  53.438  1.00  0.00    -0.358 OA
HETATM   28  H21 UNL     1      22.693  -0.949  54.068  1.00  0.00     0.217 HD
ENDBRANCH  13  27
TORSDOF 6
ENDMDL
MODEL 2
REMARK VINA RESULT:      -7.9      2.653      6.990
REMARK  6 active torsions:
REMARK  status: ('A' for Active; 'I' for Inactive)
REMARK    1  A    between atoms: C9_10  and  O1_11 
REMARK    2  A    between atoms: O1_11  and  S1_12 
REMARK    3  A    between atoms: S1_12  and  C10_15 
REMARK    4  A    between atoms: C13_18  and  C14_19 
REMARK    5  A    between atoms: C14_19  and  O4_20 
REMARK    6  A    between atoms: C18_25  and  O6_26 
ROOT
HETATM    1  C1  UNL     1      27.193   8.391  49.693  1.00  0.00     0.016 C 
HETATM    2  C2  UNL     1      26.797   7.586  48.483  1.00  0.00     0.041 C 
HETATM    3  C3  UNL     1      27.905   7.453  47.472  1.00  0.00     0.280 C 
HETATM    4  N1  UNL     1      28.606   6.230  47.762  1.00  0.00     0.088 N 
HETATM    5  C4  UNL     1      29.954   6.490  48.230  1.00  0.00     0.310 C 
HETATM    6  C5  UNL     1      27.821   5.456  48.662  1.00  0.00     0.307 C 
HETATM    7  C6  UNL     1      26.558   6.185  48.941  1.00  0.00    -0.033 C 
HETATM    8  C7  UNL     1      25.508   5.591  49.488  1.00  0.00     0.008 A 
HETATM    9  C8  UNL     1      25.489   4.163  49.871  1.00  0.00     0.080 A 
HETATM   10  C9  UNL     1      24.398   3.655  50.410  1.00  0.00     0.203 A 
HETATM   11  O5  UNL     1      23.252   4.414  50.638  1.00  0.00    -0.297 OA
HETATM   12  C17 UNL     1      23.190   5.761  50.306  1.00  0.00     0.182 A 
HETATM   13  C18 UNL     1      24.260   6.318  49.762  1.00  0.00     0.098 A 
ENDROOT
BRANCH  10  14
HETATM   14  O1  UNL     1      24.540   2.308  50.712  1.00  0.00    -0.204 OA
BRANCH  14  15
HETATM   15  S1  UNL     1      24.632   1.783  52.326  1.00  0.00     0.304 S 
HETATM   16  O2  UNL     1      24.664   2.977  53.269  1.00  0.00    -0.193 OA
HETATM   17  O3  UNL     1      23.331   1.067  52.642  1.00  0.00    -0.193 OA
BRANCH  15  18
HETATM   18  C10 UNL     1      25.996   0.749  52.621  1.00  0.00     0.086 A 
HETATM   19  C11 UNL     1      25.716  -0.617  52.679  1.00  0.00     0.026 A 
HETATM   20  C12 UNL     1      26.760  -1.516  52.913  1.00  0.00     0.011 A 
HETATM   21  C13 UNL     1      28.052  -1.053  53.084  1.00  0.00    -0.035 A 
HETATM   22  C15 UNL     1      28.343   0.296  53.029  1.00  0.00     0.011 A 
HETATM   23  C16 UNL     1      27.297   1.161  52.797  1.00  0.00     0.026 A 
BRANCH  21  24
HETATM   24  C14 UNL     1      29.107  -2.075  53.328  1.00  0.00     0.202 C 
BRANCH  24  25
HETATM   25  O4  UNL     1      28.566  -3.328  52.979  1.00  0.00    -0.396 OA
HETATM   26  H17 UNL     1      29.086  -3.750  52.233  1.00  0.00     0.209 HD
ENDBRANCH  24  25
ENDBRANCH  21  24
ENDBRANCH  15  18
ENDBRANCH  14  15
ENDBRANCH  10  14
BRANCH  13  27
HETATM   27  O6  UNL     1      24.147   7.664  49.450  1.00  0.00    -0.358 OA
HETATM   28  H21 UNL     1      24.906   8.195  49.019  1.00  0.00     0.217 HD
ENDBRANCH  13  27
TORSDOF 6
ENDMDL
MODEL 3
REMARK VINA RESULT:      -7.7      2.710      6.614
REMARK  6 active torsions:
REMARK  status: ('A' for Active; 'I' for Inactive)
REMARK    1  A    between atoms: C9_10  and  O1_11 
REMARK    2  A    between atoms: O1_11  and  S1_12 
REMARK    3  A    between atoms: S1_12  and  C10_15 
REMARK    4  A    between atoms: C13_18  and  C14_19 
REMARK    5  A    between atoms: C14_19  and  O4_20 
REMARK    6  A    between atoms: C18_25  and  O6_26 
ROOT
HETATM    1  C1  UNL     1      27.010   2.100  53.752  1.00  0.00     0.016 C 
HETATM    2  C2  UNL     1      26.796   1.153  52.600  1.00  0.00     0.041 C 
HETATM    3  C3  UNL     1      26.752  -0.292  53.022  1.00  0.00     0.280 C 
HETATM    4  N1  UNL     1      25.373  -0.632  53.248  1.00  0.00     0.088 N 
HETATM    5  C4  UNL     1      25.117  -0.897  54.651  1.00  0.00     0.310 C 
HETATM    6  C5  UNL     1      24.554   0.391  52.694  1.00  0.00     0.307 C 
HETATM    7  C6  UNL     1      25.427   1.412  52.062  1.00  0.00    -0.033 C 
HETATM    8  C7  UNL     1      24.958   2.309  51.208  1.00  0.00     0.008 A 
HETATM    9  C8  UNL     1      23.537   2.385  50.808  1.00  0.00     0.080 A 
HETATM   10  C9  UNL     1      23.158   3.315  49.951  1.00  0.00     0.203 A 
HETATM   11  O5  UNL     1      24.049   4.237  49.403  1.00  0.00    -0.297 OA
HETATM   12  C17 UNL     1      25.398   4.230  49.729  1.00  0.00     0.182 A 
HETATM   13  C18 UNL     1      25.828   3.317  50.585  1.00  0.00     0.098 A 
ENDROOT
BRANCH  10  14
HETATM   14  O1  UNL     1      21.799   3.254  49.678  1.00  0.00    -0.204 OA
BRANCH  14  15
HETATM   15  S1  UNL     1      20.653   3.504  50.908  1.00  0.00     0.304 S 
HETATM   16  O2  UNL     1      21.262   4.319  52.040  1.00  0.00    -0.193 OA
HETATM   17  O3  UNL     1      19.559   4.387  50.332  1.00  0.00    -0.193 OA
BRANCH  15  18
HETATM   18  C10 UNL     1      19.992   2.021  51.525  1.00  0.00     0.086 A 
HETATM   19  C11 UNL     1      20.510   1.593  52.748  1.00  0.00     0.026 A 
HETATM   20  C12 UNL     1      20.029   0.408  53.312  1.00  0.00     0.011 A 
HETATM   21  C13 UNL     1      19.054  -0.326  52.663  1.00  0.00    -0.035 A 
HETATM   22  C15 UNL     1      18.533   0.086  51.452  1.00  0.00     0.011 A 
HETATM   23  C16 UNL     1      19.023   1.257  50.918  1.00  0.00     0.026 A 
BRANCH  21  24
HETATM   24  C14 UNL     1      18.597  -1.577  53.331  1.00  0.00     0.202 C 
BRANCH  24  25
HETATM   25  O4  UNL     1      17.445  -1.257  54.074  1.00  0.00    -0.396 OA
HETATM   26  H17 UNL     1      16.892  -0.565  53.603  1.00  0.00     0.209 HD
ENDBRANCH  24  25
ENDBRANCH  21  24
ENDBRANCH  15  18
ENDBRANCH  14  15
ENDBRANCH  10  14
BRANCH  13  27
HETATM   27  O6  UNL     1      27.183   3.354  50.877  1.00  0.00    -0.358 OA
HETATM   28  H21 UNL     1      27.542   3.656  51.784  1.00  0.00     0.217 HD
ENDBRANCH  13  27
TORSDOF 6
ENDMDL
MODEL 4
REMARK VINA RESULT:      -7.7      2.791      7.106
REMARK  6 active torsions:
REMARK  status: ('A' for Active; 'I' for Inactive)
REMARK    1  A    between atoms: C9_10  and  O1_11 
REMARK    2  A    between atoms: O1_11  and  S1_12 
REMARK    3  A    between atoms: S1_12  and  C10_15 
REMARK    4  A    between atoms: C13_18  and  C14_19 
REMARK    5  A    between atoms: C14_19  and  O4_20 
REMARK    6  A    between atoms: C18_25  and  O6_26 
ROOT
HETATM    1  C1  UNL     1      28.948   8.585  49.072  1.00  0.00     0.016 C 
HETATM    2  C2  UNL     1      28.736   7.768  47.825  1.00  0.00     0.041 C 
HETATM    3  C3  UNL     1      30.019   7.436  47.109  1.00  0.00     0.280 C 
HETATM    4  N1  UNL     1      30.458   6.153  47.590  1.00  0.00     0.088 N 
HETATM    5  C4  UNL     1      31.683   6.266  48.357  1.00  0.00     0.310 C 
HETATM    6  C5  UNL     1      29.387   5.539  48.298  1.00  0.00     0.307 C 
HETATM    7  C6  UNL     1      28.207   6.438  48.250  1.00  0.00    -0.033 C 
HETATM    8  C7  UNL     1      26.987   6.016  48.547  1.00  0.00     0.008 A 
HETATM    9  C8  UNL     1      26.683   4.627  48.952  1.00  0.00     0.080 A 
HETATM   10  C9  UNL     1      25.437   4.295  49.231  1.00  0.00     0.203 A 
HETATM   11  O5  UNL     1      24.385   5.206  49.160  1.00  0.00    -0.297 OA
HETATM   12  C17 UNL     1      24.589   6.528  48.787  1.00  0.00     0.182 A 
HETATM   13  C18 UNL     1      25.822   6.911  48.498  1.00  0.00     0.098 A 
ENDROOT
BRANCH  10  14
HETATM   14  O1  UNL     1      25.319   2.961  49.593  1.00  0.00    -0.204 OA
BRANCH  14  15
HETATM   15  S1  UNL     1      24.869   2.525  51.174  1.00  0.00     0.304 S 
HETATM   16  O2  UNL     1      24.525   3.765  51.985  1.00  0.00    -0.193 OA
HETATM   17  O3  UNL     1      23.568   1.747  51.074  1.00  0.00    -0.193 OA
BRANCH  15  18
HETATM   18  C10 UNL     1      26.087   1.593  51.988  1.00  0.00     0.086 A 
HETATM   19  C11 UNL     1      27.191   2.313  52.446  1.00  0.00     0.026 A 
HETATM   20  C12 UNL     1      28.216   1.636  53.112  1.00  0.00     0.011 A 
HETATM   21  C13 UNL     1      28.133   0.270  53.312  1.00  0.00    -0.035 A 
HETATM   22  C15 UNL     1      27.045  -0.455  52.864  1.00  0.00     0.011 A 
HETATM   23  C16 UNL     1      26.050   0.236  52.211  1.00  0.00     0.026 A 
BRANCH  21  24
HETATM   24  C14 UNL     1      29.266  -0.375  54.031  1.00  0.00     0.202 C 
BRANCH  24  25
HETATM   25  O4  UNL     1      30.457   0.148  53.492  1.00  0.00    -0.396 OA
HETATM   26  H17 UNL     1      31.091   0.423  54.219  1.00  0.00     0.209 HD
ENDBRANCH  24  25
ENDBRANCH  21  24
ENDBRANCH  15  18
ENDBRANCH  14  15
ENDBRANCH  10  14
BRANCH  13  27
HETATM   27  O6  UNL     1      25.971   8.240  48.132  1.00  0.00    -0.358 OA
HETATM   28  H21 UNL     1      25.198   8.800  47.767  1.00  0.00     0.217 HD
ENDBRANCH  13  27
TORSDOF 6
ENDMDL
MODEL 5
REMARK VINA RESULT:      -7.7      3.641      6.033
REMARK  6 active torsions:
REMARK  status: ('A' for Active; 'I' for Inactive)
REMARK    1  A    between atoms: C9_10  and  O1_11 
REMARK    2  A    between atoms: O1_11  and  S1_12 
REMARK    3  A    between atoms: S1_12  and  C10_15 
REMARK    4  A    between atoms: C13_18  and  C14_19 
REMARK    5  A    between atoms: C14_19  and  O4_20 
REMARK    6  A    between atoms: C18_25  and  O6_26 
ROOT
HETATM    1  C1  UNL     1      19.379   1.962  52.258  1.00  0.00     0.016 C 
HETATM    2  C2  UNL     1      19.758   0.678  51.568  1.00  0.00     0.041 C 
HETATM    3  C3  UNL     1      19.592   0.738  50.072  1.00  0.00     0.280 C 
HETATM    4  N1  UNL     1      20.859   1.133  49.516  1.00  0.00     0.088 N 
HETATM    5  C4  UNL     1      20.787   2.452  48.918  1.00  0.00     0.310 C 
HETATM    6  C5  UNL     1      21.858   1.008  50.522  1.00  0.00     0.307 C 
HETATM    7  C6  UNL     1      21.226   0.487  51.760  1.00  0.00    -0.033 C 
HETATM    8  C7  UNL     1      21.939  -0.019  52.755  1.00  0.00     0.008 A 
HETATM    9  C8  UNL     1      23.414  -0.113  52.734  1.00  0.00     0.080 A 
HETATM   10  C9  UNL     1      24.041  -0.632  53.772  1.00  0.00     0.203 A 
HETATM   11  O5  UNL     1      23.367  -1.099  54.899  1.00  0.00    -0.297 OA
HETATM   12  C17 UNL     1      21.983  -1.046  54.995  1.00  0.00     0.182 A 
HETATM   13  C18 UNL     1      21.307  -0.533  53.979  1.00  0.00     0.098 A 
ENDROOT
BRANCH  10  14
HETATM   14  O1  UNL     1      25.418  -0.648  53.598  1.00  0.00    -0.204 OA
BRANCH  14  15
HETATM   15  S1  UNL     1      26.303   0.801  53.523  1.00  0.00     0.304 S 
HETATM   16  O2  UNL     1      26.645   1.284  54.924  1.00  0.00    -0.193 OA
HETATM   17  O3  UNL     1      27.641   0.479  52.880  1.00  0.00    -0.193 OA
BRANCH  15  18
HETATM   18  C10 UNL     1      25.477   2.049  52.642  1.00  0.00     0.086 A 
HETATM   19  C11 UNL     1      24.622   2.854  53.396  1.00  0.00     0.026 A 
HETATM   20  C12 UNL     1      23.920   3.882  52.761  1.00  0.00     0.011 A 
HETATM   21  C13 UNL     1      24.075   4.095  51.404  1.00  0.00    -0.035 A 
HETATM   22  C15 UNL     1      24.919   3.307  50.646  1.00  0.00     0.011 A 
HETATM   23  C16 UNL     1      25.598   2.301  51.295  1.00  0.00     0.026 A 
BRANCH  21  24
HETATM   24  C14 UNL     1      23.292   5.211  50.804  1.00  0.00     0.202 C 
BRANCH  24  25
HETATM   25  O4  UNL     1      22.691   5.918  51.863  1.00  0.00    -0.396 OA
HETATM   26  H17 UNL     1      22.074   6.630  51.518  1.00  0.00     0.209 HD
ENDBRANCH  24  25
ENDBRANCH  21  24
ENDBRANCH  15  18
ENDBRANCH  14  15
ENDBRANCH  10  14
BRANCH  13  27
HETATM   27  O6  UNL     1      19.928  -0.503  54.125  1.00  0.00    -0.358 OA
HETATM   28  H21 UNL     1      19.314  -0.033  53.458  1.00  0.00     0.217 HD
ENDBRANCH  13  27
TORSDOF 6
ENDMDL
MODEL 6
REMARK VINA RESULT:      -7.6      3.069      7.458
REMARK  6 active torsions:
REMARK  status: ('A' for Active; 'I' for Inactive)
REMARK    1  A    between atoms: C9_10  and  O1_11 
REMARK    2  A    between atoms: O1_11  and  S1_12 
REMARK    3  A    between atoms: S1_12  and  C10_15 
REMARK    4  A    between atoms: C13_18  and  C14_19 
REMARK    5  A    between atoms: C14_19  and  O4_20 
REMARK    6  A    between atoms: C18_25  and  O6_26 
ROOT
HETATM    1  C1  UNL     1      25.071   7.558  47.177  1.00  0.00     0.016 C 
HETATM    2  C2  UNL     1      25.314   7.729  48.653  1.00  0.00     0.041 C 
HETATM    3  C3  UNL     1      24.538   8.873  49.252  1.00  0.00     0.280 C 
HETATM    4  N1  UNL     1      23.304   8.334  49.759  1.00  0.00     0.088 N 
HETATM    5  C4  UNL     1      22.165   8.819  49.004  1.00  0.00     0.310 C 
HETATM    6  C5  UNL     1      23.408   6.916  49.802  1.00  0.00     0.307 C 
HETATM    7  C6  UNL     1      24.762   6.523  49.337  1.00  0.00    -0.033 C 
HETATM    8  C7  UNL     1      25.258   5.314  49.554  1.00  0.00     0.008 A 
HETATM    9  C8  UNL     1      24.522   4.249  50.269  1.00  0.00     0.080 A 
HETATM   10  C9  UNL     1      25.096   3.073  50.439  1.00  0.00     0.203 A 
HETATM   11  O5  UNL     1      26.376   2.788  49.968  1.00  0.00    -0.297 OA
HETATM   12  C17 UNL     1      27.130   3.734  49.288  1.00  0.00     0.182 A 
HETATM   13  C18 UNL     1      26.600   4.930  49.092  1.00  0.00     0.098 A 
ENDROOT
BRANCH  10  14
HETATM   14  O1  UNL     1      24.278   2.186  51.126  1.00  0.00    -0.204 OA
BRANCH  14  15
HETATM   15  S1  UNL     1      24.566   1.825  52.762  1.00  0.00     0.304 S 
HETATM   16  O2  UNL     1      24.732   3.107  53.564  1.00  0.00    -0.193 OA
HETATM   17  O3  UNL     1      23.306   1.178  53.309  1.00  0.00    -0.193 OA
BRANCH  15  18
HETATM   18  C10 UNL     1      25.943   0.791  52.991  1.00  0.00     0.086 A 
HETATM   19  C11 UNL     1      25.985  -0.345  52.182  1.00  0.00     0.026 A 
HETATM   20  C12 UNL     1      27.062  -1.228  52.305  1.00  0.00     0.011 A 
HETATM   21  C13 UNL     1      28.069  -0.974  53.218  1.00  0.00    -0.035 A 
HETATM   22  C15 UNL     1      28.040   0.147  54.024  1.00  0.00     0.011 A 
HETATM   23  C16 UNL     1      26.969   1.001  53.883  1.00  0.00     0.026 A 
BRANCH  21  24
HETATM   24  C14 UNL     1      29.180  -1.963  53.287  1.00  0.00     0.202 C 
BRANCH  24  25
HETATM   25  O4  UNL     1      28.598  -3.239  53.415  1.00  0.00    -0.396 OA
HETATM   26  H17 UNL     1      29.275  -3.962  53.256  1.00  0.00     0.209 HD
ENDBRANCH  24  25
ENDBRANCH  21  24
ENDBRANCH  15  18
ENDBRANCH  14  15
ENDBRANCH  10  14
BRANCH  13  27
HETATM   27  O6  UNL     1      27.394   5.838  48.407  1.00  0.00    -0.358 OA
HETATM   28  H21 UNL     1      28.311   5.592  48.030  1.00  0.00     0.217 HD
ENDBRANCH  13  27
TORSDOF 6
ENDMDL
MODEL 7
REMARK VINA RESULT:      -7.5      2.536      7.138
REMARK  6 active torsions:
REMARK  status: ('A' for Active; 'I' for Inactive)
REMARK    1  A    between atoms: C9_10  and  O1_11 
REMARK    2  A    between atoms: O1_11  and  S1_12 
REMARK    3  A    between atoms: S1_12  and  C10_15 
REMARK    4  A    between atoms: C13_18  and  C14_19 
REMARK    5  A    between atoms: C14_19  and  O4_20 
REMARK    6  A    between atoms: C18_25  and  O6_26 
ROOT
HETATM    1  C1  UNL     1      27.814   7.717  47.415  1.00  0.00     0.016 C 
HETATM    2  C2  UNL     1      27.600   7.749  48.905  1.00  0.00     0.041 C 
HETATM    3  C3  UNL     1      27.384   9.140  49.443  1.00  0.00     0.280 C 
HETATM    4  N1  UNL     1      25.965   9.373  49.473  1.00  0.00     0.088 N 
HETATM    5  C4  UNL     1      25.575  10.391  48.517  1.00  0.00     0.310 C 
HETATM    6  C5  UNL     1      25.294   8.130  49.300  1.00  0.00     0.307 C 
HETATM    7  C6  UNL     1      26.310   7.052  49.184  1.00  0.00    -0.033 C 
HETATM    8  C7  UNL     1      25.997   5.773  49.324  1.00  0.00     0.008 A 
HETATM    9  C8  UNL     1      24.626   5.296  49.603  1.00  0.00     0.080 A 
HETATM   10  C9  UNL     1      24.408   4.000  49.726  1.00  0.00     0.203 A 
HETATM   11  O5  UNL     1      25.423   3.054  49.602  1.00  0.00    -0.297 OA
HETATM   12  C17 UNL     1      26.736   3.422  49.340  1.00  0.00     0.182 A 
HETATM   13  C18 UNL     1      27.007   4.710  49.208  1.00  0.00     0.098 A 
ENDROOT
BRANCH  10  14
HETATM   14  O1  UNL     1      23.075   3.716  49.986  1.00  0.00    -0.204 OA
BRANCH  14  15
HETATM   15  S1  UNL     1      22.560   3.316  51.556  1.00  0.00     0.304 S 
HETATM   16  O2  UNL     1      22.199   4.575  52.330  1.00  0.00    -0.193 OA
HETATM   17  O3  UNL     1      21.255   2.550  51.421  1.00  0.00    -0.193 OA
BRANCH  15  18
HETATM   18  C10 UNL     1      23.735   2.387  52.434  1.00  0.00     0.086 A 
HETATM   19  C11 UNL     1      23.544   1.005  52.421  1.00  0.00     0.026 A 
HETATM   20  C12 UNL     1      24.448   0.187  53.104  1.00  0.00     0.011 A 
HETATM   21  C13 UNL     1      25.515   0.745  53.783  1.00  0.00    -0.035 A 
HETATM   22  C15 UNL     1      25.716   2.111  53.805  1.00  0.00     0.011 A 
HETATM   23  C16 UNL     1      24.812   2.895  53.123  1.00  0.00     0.026 A 
BRANCH  21  24
HETATM   24  C14 UNL     1      26.432  -0.195  54.485  1.00  0.00     0.202 C 
BRANCH  24  25
HETATM   25  O4  UNL     1      25.667  -0.893  55.440  1.00  0.00    -0.396 OA
HETATM   26  H17 UNL     1      24.739  -1.064  55.102  1.00  0.00     0.209 HD
ENDBRANCH  24  25
ENDBRANCH  21  24
ENDBRANCH  15  18
ENDBRANCH  14  15
ENDBRANCH  10  14
BRANCH  13  27
HETATM   27  O6  UNL     1      28.332   5.024  48.947  1.00  0.00    -0.358 OA
HETATM   28  H21 UNL     1      28.938   5.472  49.637  1.00  0.00     0.217 HD
ENDBRANCH  13  27
TORSDOF 6
ENDMDL
MODEL 8
REMARK VINA RESULT:      -7.5      1.811      2.256
REMARK  6 active torsions:
REMARK  status: ('A' for Active; 'I' for Inactive)
REMARK    1  A    between atoms: C9_10  and  O1_11 
REMARK    2  A    between atoms: O1_11  and  S1_12 
REMARK    3  A    between atoms: S1_12  and  C10_15 
REMARK    4  A    between atoms: C13_18  and  C14_19 
REMARK    5  A    between atoms: C14_19  and  O4_20 
REMARK    6  A    between atoms: C18_25  and  O6_26 
ROOT
HETATM    1  C1  UNL     1      26.367  -0.846  52.386  1.00  0.00     0.016 C 
HETATM    2  C2  UNL     1      25.936  -0.157  53.654  1.00  0.00     0.041 C 
HETATM    3  C3  UNL     1      27.093   0.342  54.480  1.00  0.00     0.280 C 
HETATM    4  N1  UNL     1      27.334   1.708  54.099  1.00  0.00     0.088 N 
HETATM    5  C4  UNL     1      28.607   1.853  53.421  1.00  0.00     0.310 C 
HETATM    6  C5  UNL     1      26.221   2.175  53.346  1.00  0.00     0.307 C 
HETATM    7  C6  UNL     1      25.213   1.088  53.260  1.00  0.00    -0.033 C 
HETATM    8  C7  UNL     1      23.961   1.316  52.894  1.00  0.00     0.008 A 
HETATM    9  C8  UNL     1      23.448   2.656  52.539  1.00  0.00     0.080 A 
HETATM   10  C9  UNL     1      22.184   2.789  52.186  1.00  0.00     0.203 A 
HETATM   11  O5  UNL     1      21.303   1.710  52.132  1.00  0.00    -0.297 OA
HETATM   12  C17 UNL     1      21.708   0.421  52.451  1.00  0.00     0.182 A 
HETATM   13  C18 UNL     1      22.967   0.235  52.811  1.00  0.00     0.098 A 
ENDROOT
BRANCH  10  14
HETATM   14  O1  UNL     1      21.860   4.104  51.884  1.00  0.00    -0.204 OA
BRANCH  14  15
HETATM   15  S1  UNL     1      22.110   4.726  50.322  1.00  0.00     0.304 S 
HETATM   16  O2  UNL     1      22.194   3.593  49.310  1.00  0.00    -0.193 OA
HETATM   17  O3  UNL     1      20.862   5.503  49.941  1.00  0.00    -0.193 OA
BRANCH  15  18
HETATM   18  C10 UNL     1      23.523   5.731  50.216  1.00  0.00     0.086 A 
HETATM   19  C11 UNL     1      23.388   7.018  50.736  1.00  0.00     0.026 A 
HETATM   20  C12 UNL     1      24.480   7.889  50.689  1.00  0.00     0.011 A 
HETATM   21  C13 UNL     1      25.676   7.475  50.132  1.00  0.00    -0.035 A 
HETATM   22  C15 UNL     1      25.824   6.203  49.613  1.00  0.00     0.011 A 
HETATM   23  C16 UNL     1      24.733   5.365  49.673  1.00  0.00     0.026 A 
BRANCH  21  24
HETATM   24  C14 UNL     1      26.791   8.462  50.121  1.00  0.00     0.202 C 
BRANCH  24  25
HETATM   25  O4  UNL     1      26.274   9.684  50.594  1.00  0.00    -0.396 OA
HETATM   26  H17 UNL     1      25.573  10.043  49.973  1.00  0.00     0.209 HD
ENDBRANCH  24  25
ENDBRANCH  21  24
ENDBRANCH  15  18
ENDBRANCH  14  15
ENDBRANCH  10  14
BRANCH  13  27
HETATM   27  O6  UNL     1      23.321  -1.070  53.118  1.00  0.00    -0.358 OA
HETATM   28  H21 UNL     1      22.781  -1.876  52.798  1.00  0.00     0.217 HD
ENDBRANCH  13  27
TORSDOF 6
ENDMDL
MODEL 9
REMARK VINA RESULT:      -7.4      3.060      7.762
REMARK  6 active torsions:
REMARK  status: ('A' for Active; 'I' for Inactive)
REMARK    1  A    between atoms: C9_10  and  O1_11 
REMARK    2  A    between atoms: O1_11  and  S1_12 
REMARK    3  A    between atoms: S1_12  and  C10_15 
REMARK    4  A    between atoms: C13_18  and  C14_19 
REMARK    5  A    between atoms: C14_19  and  O4_20 
REMARK    6  A    between atoms: C18_25  and  O6_26 
ROOT
HETATM    1  C1  UNL     1      27.849   7.649  47.303  1.00  0.00     0.016 C 
HETATM    2  C2  UNL     1      27.622   7.751  48.788  1.00  0.00     0.041 C 
HETATM    3  C3  UNL     1      27.430   9.167  49.262  1.00  0.00     0.280 C 
HETATM    4  N1  UNL     1      26.015   9.430  49.268  1.00  0.00     0.088 N 
HETATM    5  C4  UNL     1      25.655  10.412  48.264  1.00  0.00     0.310 C 
HETATM    6  C5  UNL     1      25.321   8.194  49.143  1.00  0.00     0.307 C 
HETATM    7  C6  UNL     1      26.315   7.092  49.085  1.00  0.00    -0.033 C 
HETATM    8  C7  UNL     1      25.975   5.827  49.277  1.00  0.00     0.008 A 
HETATM    9  C8  UNL     1      24.592   5.390  49.563  1.00  0.00     0.080 A 
HETATM   10  C9  UNL     1      24.346   4.106  49.740  1.00  0.00     0.203 A 
HETATM   11  O5  UNL     1      25.343   3.135  49.668  1.00  0.00    -0.297 OA
HETATM   12  C17 UNL     1      26.666   3.465  49.404  1.00  0.00     0.182 A 
HETATM   13  C18 UNL     1      26.964   4.740  49.218  1.00  0.00     0.098 A 
ENDROOT
BRANCH  10  14
HETATM   14  O1  UNL     1      23.005   3.860  49.999  1.00  0.00    -0.204 OA
BRANCH  14  15
HETATM   15  S1  UNL     1      22.387   3.977  51.578  1.00  0.00     0.304 S 
HETATM   16  O2  UNL     1      23.285   4.860  52.432  1.00  0.00    -0.193 OA
HETATM   17  O3  UNL     1      21.067   4.723  51.492  1.00  0.00    -0.193 OA
BRANCH  15  18
HETATM   18  C10 UNL     1      22.176   2.428  52.334  1.00  0.00     0.086 A 
HETATM   19  C11 UNL     1      23.343   1.692  52.538  1.00  0.00     0.026 A 
HETATM   20  C12 UNL     1      23.258   0.434  53.142  1.00  0.00     0.011 A 
HETATM   21  C13 UNL     1      22.030  -0.069  53.530  1.00  0.00    -0.035 A 
HETATM   22  C15 UNL     1      20.866   0.649  53.334  1.00  0.00     0.011 A 
HETATM   23  C16 UNL     1      20.978   1.884  52.738  1.00  0.00     0.026 A 
BRANCH  21  24
HETATM   24  C14 UNL     1      22.025  -1.416  54.166  1.00  0.00     0.202 C 
BRANCH  24  25
HETATM   25  O4  UNL     1      20.800  -1.554  54.846  1.00  0.00    -0.396 OA
HETATM   26  H17 UNL     1      20.285  -0.693  54.840  1.00  0.00     0.209 HD
ENDBRANCH  24  25
ENDBRANCH  21  24
ENDBRANCH  15  18
ENDBRANCH  14  15
ENDBRANCH  10  14
BRANCH  13  27
HETATM   27  O6  UNL     1      28.298   5.016  48.957  1.00  0.00    -0.358 OA
HETATM   28  H21 UNL     1      28.911   4.359  48.471  1.00  0.00     0.217 HD
ENDBRANCH  13  27
TORSDOF 6
ENDMDL
