MODEL 1
REMARK VINA RESULT:      -6.9      0.000      0.000
REMARK  5 active torsions:
REMARK  status: ('A' for Active; 'I' for Inactive)
REMARK    1  A    between atoms: O1_2  and  C2_3 
REMARK    2  A    between atoms: C2_3  and  C3_4 
REMARK    3  A    between atoms: C3_4  and  O2_5 
REMARK    4  A    between atoms: C9_13  and  N3_14 
REMARK    5  A    between atoms: N3_14  and  C10_15 
ROOT
HETATM    1  C3  UNL     1      22.658   0.883  52.105  1.00  0.00     0.081 C 
HETATM    2  C5  UNL     1      22.806   0.125  53.207  1.00  0.00     0.041 A 
HETATM    3  C6  UNL     1      21.740  -0.394  54.054  1.00  0.00     0.044 A 
HETATM    4  C7  UNL     1      20.353  -0.107  53.695  1.00  0.00     0.071 C 
HETATM    5  N1  UNL     1      22.008  -1.099  55.099  1.00  0.00    -0.246 NA
HETATM    6  C8  UNL     1      23.310  -1.416  55.492  1.00  0.00     0.229 A 
HETATM    7  N2  UNL     1      24.281  -0.995  54.791  1.00  0.00    -0.252 NA
HETATM    8  C9  UNL     1      24.199  -0.206  53.603  1.00  0.00     0.245 A 
ENDROOT
BRANCH   8   9
HETATM    9  N3  UNL     1      24.982   0.994  53.851  1.00  0.00    -0.363 N 
HETATM   10  H14 UNL     1      24.474   1.840  54.121  1.00  0.00     0.162 HD
BRANCH   9  11
HETATM   11  C10 UNL     1      26.400   1.020  53.734  1.00  0.00     0.031 A 
HETATM   12  C11 UNL     1      27.150   2.175  53.735  1.00  0.00     0.029 A 
HETATM   13  C12 UNL     1      28.524   2.206  53.621  1.00  0.00     0.004 A 
HETATM   14  C13 UNL     1      29.197   0.991  53.497  1.00  0.00     0.019 A 
HETATM   15  C14 UNL     1      28.472  -0.192  53.493  1.00  0.00     0.013 A 
HETATM   16 BR1  UNL     1      29.393  -1.855  53.324  1.00  0.00    -0.051 Br
HETATM   17  C15 UNL     1      27.099  -0.160  53.611  1.00  0.00     0.048 A 
ENDBRANCH   9  11
ENDBRANCH   8   9
BRANCH   1  18
HETATM   18  C2  UNL     1      21.601   1.488  51.303  1.00  0.00     0.232 C 
BRANCH  18  19
HETATM   19  O1  UNL     1      21.233   0.561  50.326  1.00  0.00    -0.390 OA
HETATM   20  C1  UNL     1      21.004   1.116  49.089  1.00  0.00     0.201 C 
ENDBRANCH  18  19
ENDBRANCH   1  18
BRANCH   1  21
HETATM   21  O2  UNL     1      23.865   1.230  51.497  1.00  0.00    -0.357 OA
HETATM   22  C4  UNL     1      24.157   2.393  50.803  1.00  0.00     0.209 C 
ENDBRANCH   1  21
TORSDOF 5
ENDMDL
MODEL 2
REMARK VINA RESULT:      -6.8      3.464      5.655
REMARK  5 active torsions:
REMARK  status: ('A' for Active; 'I' for Inactive)
REMARK    1  A    between atoms: O1_2  and  C2_3 
REMARK    2  A    between atoms: C2_3  and  C3_4 
REMARK    3  A    between atoms: C3_4  and  O2_5 
REMARK    4  A    between atoms: C9_13  and  N3_14 
REMARK    5  A    between atoms: N3_14  and  C10_15 
ROOT
HETATM    1  C3  UNL     1      26.617   1.049  53.810  1.00  0.00     0.081 C 
HETATM    2  C5  UNL     1      25.317   1.013  53.467  1.00  0.00     0.041 A 
HETATM    3  C6  UNL     1      24.340   0.009  53.869  1.00  0.00     0.044 A 
HETATM    4  C7  UNL     1      24.766  -1.073  54.752  1.00  0.00     0.071 C 
HETATM    5  N1  UNL     1      23.118   0.072  53.460  1.00  0.00    -0.246 NA
HETATM    6  C8  UNL     1      22.646   1.084  52.623  1.00  0.00     0.229 A 
HETATM    7  N2  UNL     1      23.449   1.990  52.242  1.00  0.00    -0.252 NA
HETATM    8  C9  UNL     1      24.832   2.103  52.581  1.00  0.00     0.245 A 
ENDROOT
BRANCH   8   9
HETATM    9  N3  UNL     1      25.563   2.132  51.323  1.00  0.00    -0.363 N 
HETATM   10  H14 UNL     1      25.929   1.243  50.972  1.00  0.00     0.162 HD
BRANCH   9  11
HETATM   11  C10 UNL     1      25.774   3.332  50.590  1.00  0.00     0.031 A 
HETATM   12  C11 UNL     1      26.745   3.481  49.625  1.00  0.00     0.029 A 
HETATM   13  C12 UNL     1      26.955   4.642  48.910  1.00  0.00     0.004 A 
HETATM   14  C13 UNL     1      26.132   5.735  49.183  1.00  0.00     0.019 A 
HETATM   15  C14 UNL     1      25.144   5.619  50.148  1.00  0.00     0.013 A 
HETATM   16 BR1  UNL     1      24.017   7.114  50.521  1.00  0.00    -0.051 Br
HETATM   17  C15 UNL     1      24.981   4.431  50.830  1.00  0.00     0.048 A 
ENDBRANCH   9  11
ENDBRANCH   8   9
BRANCH   1  18
HETATM   18  C2  UNL     1      27.584   0.289  54.593  1.00  0.00     0.232 C 
BRANCH  18  19
HETATM   19  O1  UNL     1      27.909  -0.856  53.862  1.00  0.00    -0.390 OA
HETATM   20  C1  UNL     1      29.261  -1.033  53.676  1.00  0.00     0.201 C 
ENDBRANCH  18  19
ENDBRANCH   1  18
BRANCH   1  21
HETATM   21  O2  UNL     1      27.308   2.136  53.274  1.00  0.00    -0.357 OA
HETATM   22  C4  UNL     1      28.606   2.533  53.555  1.00  0.00     0.209 C 
ENDBRANCH   1  21
TORSDOF 5
ENDMDL
MODEL 3
REMARK VINA RESULT:      -6.7      3.087      5.497
REMARK  5 active torsions:
REMARK  status: ('A' for Active; 'I' for Inactive)
REMARK    1  A    between atoms: O1_2  and  C2_3 
REMARK    2  A    between atoms: C2_3  and  C3_4 
REMARK    3  A    between atoms: C3_4  and  O2_5 
REMARK    4  A    between atoms: C9_13  and  N3_14 
REMARK    5  A    between atoms: N3_14  and  C10_15 
ROOT
HETATM    1  C3  UNL     1      26.610   0.905  53.736  1.00  0.00     0.081 C 
HETATM    2  C5  UNL     1      25.290   0.936  53.477  1.00  0.00     0.041 A 
HETATM    3  C6  UNL     1      24.293  -0.023  53.935  1.00  0.00     0.044 A 
HETATM    4  C7  UNL     1      24.721  -1.133  54.783  1.00  0.00     0.071 C 
HETATM    5  N1  UNL     1      23.052   0.103  53.606  1.00  0.00    -0.246 NA
HETATM    6  C8  UNL     1      22.577   1.145  52.806  1.00  0.00     0.229 A 
HETATM    7  N2  UNL     1      23.399   2.014  52.381  1.00  0.00    -0.252 NA
HETATM    8  C9  UNL     1      24.804   2.056  52.630  1.00  0.00     0.245 A 
ENDROOT
BRANCH   8   9
HETATM    9  N3  UNL     1      25.454   2.061  51.329  1.00  0.00    -0.363 N 
HETATM   10  H14 UNL     1      25.912   1.197  51.029  1.00  0.00     0.162 HD
BRANCH   9  11
HETATM   11  C10 UNL     1      25.465   3.206  50.484  1.00  0.00     0.031 A 
HETATM   12  C11 UNL     1      24.339   3.925  50.151  1.00  0.00     0.029 A 
HETATM   13  C12 UNL     1      24.343   5.036  49.333  1.00  0.00     0.004 A 
HETATM   14  C13 UNL     1      25.566   5.457  48.810  1.00  0.00     0.019 A 
HETATM   15  C14 UNL     1      26.720   4.755  49.125  1.00  0.00     0.013 A 
HETATM   16 BR1  UNL     1      28.393   5.332  48.410  1.00  0.00    -0.051 Br
HETATM   17  C15 UNL     1      26.653   3.652  49.950  1.00  0.00     0.048 A 
ENDBRANCH   9  11
ENDBRANCH   8   9
BRANCH   1  18
HETATM   18  C2  UNL     1      27.586   0.092  54.451  1.00  0.00     0.232 C 
BRANCH  18  19
HETATM   19  O1  UNL     1      27.932  -0.975  53.619  1.00  0.00    -0.390 OA
HETATM   20  C1  UNL     1      29.284  -1.224  53.566  1.00  0.00     0.201 C 
ENDBRANCH  18  19
ENDBRANCH   1  18
BRANCH   1  21
HETATM   21  O2  UNL     1      27.318   1.962  53.163  1.00  0.00    -0.357 OA
HETATM   22  C4  UNL     1      28.548   2.465  53.555  1.00  0.00     0.209 C 
ENDBRANCH   1  21
TORSDOF 5
ENDMDL
MODEL 4
REMARK VINA RESULT:      -6.5      3.335      6.805
REMARK  5 active torsions:
REMARK  status: ('A' for Active; 'I' for Inactive)
REMARK    1  A    between atoms: O1_2  and  C2_3 
REMARK    2  A    between atoms: C2_3  and  C3_4 
REMARK    3  A    between atoms: C3_4  and  O2_5 
REMARK    4  A    between atoms: C9_13  and  N3_14 
REMARK    5  A    between atoms: N3_14  and  C10_15 
ROOT
HETATM    1  C3  UNL     1      25.843   0.238  53.915  1.00  0.00     0.081 C 
HETATM    2  C5  UNL     1      25.425   0.993  52.884  1.00  0.00     0.041 A 
HETATM    3  C6  UNL     1      26.178   2.050  52.220  1.00  0.00     0.044 A 
HETATM    4  C7  UNL     1      27.537   2.336  52.672  1.00  0.00     0.071 C 
HETATM    5  N1  UNL     1      25.662   2.721  51.247  1.00  0.00    -0.246 NA
HETATM    6  C8  UNL     1      24.372   2.492  50.763  1.00  0.00     0.229 A 
HETATM    7  N2  UNL     1      23.669   1.581  51.299  1.00  0.00    -0.252 NA
HETATM    8  C9  UNL     1      24.053   0.729  52.379  1.00  0.00     0.245 A 
ENDROOT
BRANCH   8   9
HETATM    9  N3  UNL     1      23.056   0.914  53.423  1.00  0.00    -0.363 N 
HETATM   10  H14 UNL     1      23.300   1.531  54.202  1.00  0.00     0.162 HD
BRANCH   9  11
HETATM   11  C10 UNL     1      21.785   0.275  53.387  1.00  0.00     0.031 A 
HETATM   12  C11 UNL     1      21.460  -0.829  54.143  1.00  0.00     0.029 A 
HETATM   13  C12 UNL     1      20.230  -1.452  54.113  1.00  0.00     0.004 A 
HETATM   14  C13 UNL     1      19.254  -0.932  53.263  1.00  0.00     0.019 A 
HETATM   15  C14 UNL     1      19.549   0.180  52.488  1.00  0.00     0.013 A 
HETATM   16 BR1  UNL     1      18.213   0.893  51.325  1.00  0.00    -0.051 Br
HETATM   17  C15 UNL     1      20.797   0.761  52.561  1.00  0.00     0.048 A 
ENDBRANCH   9  11
ENDBRANCH   8   9
BRANCH   1  18
HETATM   18  C2  UNL     1      27.011   0.070  54.772  1.00  0.00     0.232 C 
BRANCH  18  19
HETATM   19  O1  UNL     1      27.863  -0.842  54.145  1.00  0.00    -0.390 OA
HETATM   20  C1  UNL     1      29.191  -0.482  54.185  1.00  0.00     0.201 C 
ENDBRANCH  18  19
ENDBRANCH   1  18
BRANCH   1  21
HETATM   21  O2  UNL     1      24.901  -0.700  54.341  1.00  0.00    -0.357 OA
HETATM   22  C4  UNL     1      24.719  -1.190  55.624  1.00  0.00     0.209 C 
ENDBRANCH   1  21
TORSDOF 5
ENDMDL
MODEL 5
REMARK VINA RESULT:      -6.4      3.064      4.415
REMARK  5 active torsions:
REMARK  status: ('A' for Active; 'I' for Inactive)
REMARK    1  A    between atoms: O1_2  and  C2_3 
REMARK    2  A    between atoms: C2_3  and  C3_4 
REMARK    3  A    between atoms: C3_4  and  O2_5 
REMARK    4  A    between atoms: C9_13  and  N3_14 
REMARK    5  A    between atoms: N3_14  and  C10_15 
ROOT
HETATM    1  C3  UNL     1      22.478   0.596  53.299  1.00  0.00     0.081 C 
HETATM    2  C5  UNL     1      23.755   0.188  53.415  1.00  0.00     0.041 A 
HETATM    3  C6  UNL     1      24.283  -0.737  54.410  1.00  0.00     0.044 A 
HETATM    4  C7  UNL     1      23.365  -1.323  55.383  1.00  0.00     0.071 C 
HETATM    5  N1  UNL     1      25.536  -1.042  54.432  1.00  0.00    -0.246 NA
HETATM    6  C8  UNL     1      26.463  -0.524  53.524  1.00  0.00     0.229 A 
HETATM    7  N2  UNL     1      26.060   0.284  52.632  1.00  0.00    -0.252 NA
HETATM    8  C9  UNL     1      24.723   0.745  52.436  1.00  0.00     0.245 A 
ENDROOT
BRANCH   8   9
HETATM    9  N3  UNL     1      24.774   2.197  52.505  1.00  0.00    -0.363 N 
HETATM   10  H14 UNL     1      24.525   2.635  53.395  1.00  0.00     0.162 HD
BRANCH   9  11
HETATM   11  C10 UNL     1      25.153   3.002  51.394  1.00  0.00     0.031 A 
HETATM   12  C11 UNL     1      26.315   2.822  50.677  1.00  0.00     0.029 A 
HETATM   13  C12 UNL     1      26.688   3.598  49.600  1.00  0.00     0.004 A 
HETATM   14  C13 UNL     1      25.835   4.632  49.213  1.00  0.00     0.019 A 
HETATM   15  C14 UNL     1      24.657   4.841  49.914  1.00  0.00     0.013 A 
HETATM   16 BR1  UNL     1      23.489   6.256  49.385  1.00  0.00    -0.051 Br
HETATM   17  C15 UNL     1      24.336   4.031  50.983  1.00  0.00     0.048 A 
ENDBRANCH   9  11
ENDBRANCH   8   9
BRANCH   1  18
HETATM   18  C2  UNL     1      21.184   0.404  53.942  1.00  0.00     0.232 C 
BRANCH  18  19
HETATM   19  O1  UNL     1      20.606  -0.740  53.389  1.00  0.00    -0.390 OA
HETATM   20  C1  UNL     1      19.237  -0.673  53.273  1.00  0.00     0.201 C 
ENDBRANCH  18  19
ENDBRANCH   1  18
BRANCH   1  21
HETATM   21  O2  UNL     1      22.269   1.487  52.245  1.00  0.00    -0.357 OA
HETATM   22  C4  UNL     1      21.205   2.358  52.075  1.00  0.00     0.209 C 
ENDBRANCH   1  21
TORSDOF 5
ENDMDL
MODEL 6
REMARK VINA RESULT:      -6.4      3.429      5.961
REMARK  5 active torsions:
REMARK  status: ('A' for Active; 'I' for Inactive)
REMARK    1  A    between atoms: O1_2  and  C2_3 
REMARK    2  A    between atoms: C2_3  and  C3_4 
REMARK    3  A    between atoms: C3_4  and  O2_5 
REMARK    4  A    between atoms: C9_13  and  N3_14 
REMARK    5  A    between atoms: N3_14  and  C10_15 
ROOT
HETATM    1  C3  UNL     1      23.429   3.947  51.153  1.00  0.00     0.081 C 
HETATM    2  C5  UNL     1      24.538   3.196  51.278  1.00  0.00     0.041 A 
HETATM    3  C6  UNL     1      25.812   3.408  50.603  1.00  0.00     0.044 A 
HETATM    4  C7  UNL     1      25.952   4.555  49.710  1.00  0.00     0.071 C 
HETATM    5  N1  UNL     1      26.804   2.606  50.792  1.00  0.00    -0.246 NA
HETATM    6  C8  UNL     1      26.738   1.498  51.639  1.00  0.00     0.229 A 
HETATM    7  N2  UNL     1      25.655   1.264  52.258  1.00  0.00    -0.252 NA
HETATM    8  C9  UNL     1      24.449   2.026  52.190  1.00  0.00     0.245 A 
ENDROOT
BRANCH   8   9
HETATM    9  N3  UNL     1      23.402   1.105  51.774  1.00  0.00    -0.363 N 
HETATM   10  H14 UNL     1      23.205   1.039  50.772  1.00  0.00     0.162 HD
BRANCH   9  11
HETATM   11  C10 UNL     1      22.668   0.314  52.700  1.00  0.00     0.031 A 
HETATM   12  C11 UNL     1      23.229  -0.307  53.794  1.00  0.00     0.029 A 
HETATM   13  C12 UNL     1      22.523  -1.075  54.696  1.00  0.00     0.004 A 
HETATM   14  C13 UNL     1      21.153  -1.234  54.486  1.00  0.00     0.019 A 
HETATM   15  C14 UNL     1      20.555  -0.623  53.394  1.00  0.00     0.013 A 
HETATM   16 BR1  UNL     1      18.681  -0.840  53.108  1.00  0.00    -0.051 Br
HETATM   17  C15 UNL     1      21.314   0.134  52.527  1.00  0.00     0.048 A 
ENDBRANCH   9  11
ENDBRANCH   8   9
BRANCH   1  18
HETATM   18  C2  UNL     1      22.959   5.129  50.440  1.00  0.00     0.232 C 
BRANCH  18  19
HETATM   19  O1  UNL     1      23.400   6.249  51.149  1.00  0.00    -0.390 OA
HETATM   20  C1  UNL     1      22.954   7.445  50.635  1.00  0.00     0.201 C 
ENDBRANCH  18  19
ENDBRANCH   1  18
BRANCH   1  21
HETATM   21  O2  UNL     1      22.358   3.500  51.927  1.00  0.00    -0.357 OA
HETATM   22  C4  UNL     1      21.038   3.915  51.862  1.00  0.00     0.209 C 
ENDBRANCH   1  21
TORSDOF 5
ENDMDL
MODEL 7
REMARK VINA RESULT:      -6.4      2.982      5.669
REMARK  5 active torsions:
REMARK  status: ('A' for Active; 'I' for Inactive)
REMARK    1  A    between atoms: O1_2  and  C2_3 
REMARK    2  A    between atoms: C2_3  and  C3_4 
REMARK    3  A    between atoms: C3_4  and  O2_5 
REMARK    4  A    between atoms: C9_13  and  N3_14 
REMARK    5  A    between atoms: N3_14  and  C10_15 
ROOT
HETATM    1  C3  UNL     1      24.617   0.183  53.283  1.00  0.00     0.081 C 
HETATM    2  C5  UNL     1      23.288   0.378  53.373  1.00  0.00     0.041 A 
HETATM    3  C6  UNL     1      22.368  -0.309  54.270  1.00  0.00     0.044 A 
HETATM    4  C7  UNL     1      22.902  -1.301  55.200  1.00  0.00     0.071 C 
HETATM    5  N1  UNL     1      21.106  -0.047  54.253  1.00  0.00    -0.246 NA
HETATM    6  C8  UNL     1      20.534   0.896  53.395  1.00  0.00     0.229 A 
HETATM    7  N2  UNL     1      21.287   1.529  52.593  1.00  0.00    -0.252 NA
HETATM    8  C9  UNL     1      22.702   1.390  52.456  1.00  0.00     0.245 A 
ENDROOT
BRANCH   8   9
HETATM    9  N3  UNL     1      22.950   1.054  51.063  1.00  0.00    -0.363 N 
HETATM   10  H14 UNL     1      23.242   0.096  50.855  1.00  0.00     0.162 HD
BRANCH   9  11
HETATM   11  C10 UNL     1      22.799   1.999  50.011  1.00  0.00     0.031 A 
HETATM   12  C11 UNL     1      21.881   1.874  48.992  1.00  0.00     0.029 A 
HETATM   13  C12 UNL     1      21.730   2.787  47.968  1.00  0.00     0.004 A 
HETATM   14  C13 UNL     1      22.560   3.908  47.966  1.00  0.00     0.019 A 
HETATM   15  C14 UNL     1      23.495   4.066  48.977  1.00  0.00     0.013 A 
HETATM   16 BR1  UNL     1      24.631   5.600  48.974  1.00  0.00    -0.051 Br
HETATM   17  C15 UNL     1      23.600   3.119  49.975  1.00  0.00     0.048 A 
ENDBRANCH   9  11
ENDBRANCH   8   9
BRANCH   1  18
HETATM   18  C2  UNL     1      25.665  -0.634  53.882  1.00  0.00     0.232 C 
BRANCH  18  19
HETATM   19  O1  UNL     1      26.202   0.090  54.949  1.00  0.00    -0.390 OA
HETATM   20  C1  UNL     1      27.576   0.163  54.937  1.00  0.00     0.201 C 
ENDBRANCH  18  19
ENDBRANCH   1  18
BRANCH   1  21
HETATM   21  O2  UNL     1      25.239   0.991  52.330  1.00  0.00    -0.357 OA
HETATM   22  C4  UNL     1      26.413   0.732  51.642  1.00  0.00     0.209 C 
ENDBRANCH   1  21
TORSDOF 5
ENDMDL
MODEL 8
REMARK VINA RESULT:      -6.3      2.614      3.362
REMARK  5 active torsions:
REMARK  status: ('A' for Active; 'I' for Inactive)
REMARK    1  A    between atoms: O1_2  and  C2_3 
REMARK    2  A    between atoms: C2_3  and  C3_4 
REMARK    3  A    between atoms: C3_4  and  O2_5 
REMARK    4  A    between atoms: C9_13  and  N3_14 
REMARK    5  A    between atoms: N3_14  and  C10_15 
ROOT
HETATM    1  C3  UNL     1      20.656   0.314  51.588  1.00  0.00     0.081 C 
HETATM    2  C5  UNL     1      21.215  -0.233  52.682  1.00  0.00     0.041 A 
HETATM    3  C6  UNL     1      20.518  -0.919  53.762  1.00  0.00     0.044 A 
HETATM    4  C7  UNL     1      19.068  -1.072  53.679  1.00  0.00     0.071 C 
HETATM    5  N1  UNL     1      21.164  -1.391  54.774  1.00  0.00    -0.246 NA
HETATM    6  C8  UNL     1      22.550  -1.285  54.910  1.00  0.00     0.229 A 
HETATM    7  N2  UNL     1      23.212  -0.701  53.998  1.00  0.00    -0.252 NA
HETATM    8  C9  UNL     1      22.691  -0.116  52.804  1.00  0.00     0.245 A 
ENDROOT
BRANCH   8   9
HETATM    9  N3  UNL     1      23.117   1.275  52.807  1.00  0.00    -0.363 N 
HETATM   10  H14 UNL     1      22.523   1.947  53.298  1.00  0.00     0.162 HD
BRANCH   9  11
HETATM   11  C10 UNL     1      24.308   1.710  52.162  1.00  0.00     0.031 A 
HETATM   12  C11 UNL     1      25.510   1.042  52.236  1.00  0.00     0.029 A 
HETATM   13  C12 UNL     1      26.668   1.459  51.614  1.00  0.00     0.004 A 
HETATM   14  C13 UNL     1      26.619   2.633  50.862  1.00  0.00     0.019 A 
HETATM   15  C14 UNL     1      25.424   3.331  50.766  1.00  0.00     0.013 A 
HETATM   16 BR1  UNL     1      25.357   4.937  49.737  1.00  0.00    -0.051 Br
HETATM   17  C15 UNL     1      24.298   2.864  51.411  1.00  0.00     0.048 A 
ENDBRANCH   9  11
ENDBRANCH   8   9
BRANCH   1  18
HETATM   18  C2  UNL     1      19.342   0.502  50.983  1.00  0.00     0.232 C 
BRANCH  18  19
HETATM   19  O1  UNL     1      18.798   1.672  51.517  1.00  0.00    -0.390 OA
HETATM   20  C1  UNL     1      17.439   1.785  51.342  1.00  0.00     0.201 C 
ENDBRANCH  18  19
ENDBRANCH   1  18
BRANCH   1  21
HETATM   21  O2  UNL     1      21.579   0.904  50.722  1.00  0.00    -0.357 OA
HETATM   22  C4  UNL     1      21.505   0.991  49.342  1.00  0.00     0.209 C 
ENDBRANCH   1  21
TORSDOF 5
ENDMDL
MODEL 9
REMARK VINA RESULT:      -6.3      4.258      6.064
REMARK  5 active torsions:
REMARK  status: ('A' for Active; 'I' for Inactive)
REMARK    1  A    between atoms: O1_2  and  C2_3 
REMARK    2  A    between atoms: C2_3  and  C3_4 
REMARK    3  A    between atoms: C3_4  and  O2_5 
REMARK    4  A    between atoms: C9_13  and  N3_14 
REMARK    5  A    between atoms: N3_14  and  C10_15 
ROOT
HETATM    1  C3  UNL     1      25.115   5.872  49.935  1.00  0.00     0.081 C 
HETATM    2  C5  UNL     1      23.938   5.542  50.497  1.00  0.00     0.041 A 
HETATM    3  C6  UNL     1      22.810   6.433  50.736  1.00  0.00     0.044 A 
HETATM    4  C7  UNL     1      22.914   7.828  50.316  1.00  0.00     0.071 C 
HETATM    5  N1  UNL     1      21.734   6.002  51.301  1.00  0.00    -0.246 NA
HETATM    6  C8  UNL     1      21.567   4.680  51.718  1.00  0.00     0.229 A 
HETATM    7  N2  UNL     1      22.515   3.856  51.533  1.00  0.00    -0.252 NA
HETATM    8  C9  UNL     1      23.779   4.128  50.927  1.00  0.00     0.245 A 
ENDROOT
BRANCH   8   9
HETATM    9  N3  UNL     1      24.792   3.750  51.900  1.00  0.00    -0.363 N 
HETATM   10  H14 UNL     1      25.265   4.505  52.404  1.00  0.00     0.162 HD
BRANCH   9  11
HETATM   11  C10 UNL     1      25.131   2.394  52.162  1.00  0.00     0.031 A 
HETATM   12  C11 UNL     1      26.292   1.794  51.726  1.00  0.00     0.029 A 
HETATM   13  C12 UNL     1      26.626   0.480  51.977  1.00  0.00     0.004 A 
HETATM   14  C13 UNL     1      25.732  -0.292  52.719  1.00  0.00     0.019 A 
HETATM   15  C14 UNL     1      24.554   0.281  53.174  1.00  0.00     0.013 A 
HETATM   16 BR1  UNL     1      23.330  -0.774  54.190  1.00  0.00    -0.051 Br
HETATM   17  C15 UNL     1      24.274   1.601  52.892  1.00  0.00     0.048 A 
ENDBRANCH   9  11
ENDBRANCH   8   9
BRANCH   1  18
HETATM   18  C2  UNL     1      25.793   7.032  49.370  1.00  0.00     0.232 C 
BRANCH  18  19
HETATM   19  O1  UNL     1      26.250   7.811  50.437  1.00  0.00    -0.390 OA
HETATM   20  C1  UNL     1      27.032   8.876  50.054  1.00  0.00     0.201 C 
ENDBRANCH  18  19
ENDBRANCH   1  18
BRANCH   1  21
HETATM   21  O2  UNL     1      26.007   4.803  49.835  1.00  0.00    -0.357 OA
HETATM   22  C4  UNL     1      27.056   4.661  48.941  1.00  0.00     0.209 C 
ENDBRANCH   1  21
TORSDOF 5
ENDMDL
