MODEL 1
REMARK VINA RESULT:      -8.7      0.000      0.000
REMARK  5 active torsions:
REMARK  status: ('A' for Active; 'I' for Inactive)
REMARK    1  A    between atoms: C6_8  and  N3_9 
REMARK    2  A    between atoms: N3_9  and  C7_10 
REMARK    3  A    between atoms: C14_18  and  C15_19 
REMARK    4  A    between atoms: C16_20  and  C17_21 
REMARK    5  A    between atoms: C17_21  and  C18_22 
ROOT
HETATM    1  N1  UNL     1      22.665  -1.711  55.700  1.00  0.00    -0.191 NA
HETATM    2  C1  UNL     1      22.121  -1.208  54.827  1.00  0.00     0.103 C 
HETATM    3  C2  UNL     1      21.446  -0.589  53.709  1.00  0.00     0.089 A 
HETATM    4  C3  UNL     1      20.068  -0.414  53.867  1.00  0.00     0.142 A 
HETATM    5  N2  UNL     1      19.344   0.158  52.875  1.00  0.00    -0.259 NA
HETATM    6  C4  UNL     1      19.963   0.545  51.756  1.00  0.00     0.070 A 
HETATM    7  C5  UNL     1      21.310   0.390  51.564  1.00  0.00     0.020 A 
HETATM    8  C6  UNL     1      22.093  -0.186  52.544  1.00  0.00     0.067 A 
HETATM    9  C13 UNL     1      22.075   0.704  50.553  1.00  0.00     0.029 A 
HETATM   10  C14 UNL     1      21.804   1.328  49.261  1.00  0.00     0.210 A 
HETATM   11  N4  UNL     1      20.446   1.690  48.995  1.00  0.00    -0.280 NA
HETATM   12  C21 UNL     1      19.323   1.626  49.588  1.00  0.00     0.114 A 
HETATM   13  C22 UNL     1      19.092   1.077  50.913  1.00  0.00     0.051 A 
ENDROOT
BRANCH   8  14
HETATM   14  N3  UNL     1      23.473  -0.406  52.483  1.00  0.00    -0.354 N 
HETATM   15  H2  UNL     1      23.621  -1.345  52.052  1.00  0.00     0.166 HD
BRANCH  14  16
HETATM   16  C7  UNL     1      24.519   0.454  52.911  1.00  0.00     0.033 A 
HETATM   17  C8  UNL     1      24.218   1.795  53.044  1.00  0.00     0.029 A 
HETATM   18  C9  UNL     1      25.287   2.580  53.467  1.00  0.00     0.004 A 
HETATM   19  C10 UNL     1      26.530   2.082  53.731  1.00  0.00     0.019 A 
HETATM   20  C11 UNL     1      26.753   0.725  53.574  1.00  0.00     0.013 A 
HETATM   21 BR1  UNL     1      28.460  -0.063  53.921  1.00  0.00    -0.051 Br
HETATM   22  C12 UNL     1      25.741  -0.142  53.154  1.00  0.00     0.048 A 
ENDBRANCH  14  16
ENDBRANCH   8  14
BRANCH  10  23
HETATM   23  C15 UNL     1      22.593   2.580  49.161  1.00  0.00    -0.075 C 
HETATM   24  C16 UNL     1      23.255   3.595  49.087  1.00  0.00    -0.100 C 
BRANCH  24  25
HETATM   25  C17 UNL     1      24.070   4.809  49.010  1.00  0.00     0.132 C 
BRANCH  25  26
HETATM   26  C18 UNL     1      25.478   4.420  49.277  1.00  0.00    -0.023 A 
HETATM   27  C19 UNL     1      26.131   3.474  49.894  1.00  0.00     0.140 A 
HETATM   28  O1  UNL     1      27.348   4.006  49.565  1.00  0.00    -0.358 OA
HETATM   29  C20 UNL     1      26.745   5.066  48.875  1.00  0.00     0.211 A 
ENDBRANCH  25  26
ENDBRANCH  24  25
ENDBRANCH  10  23
TORSDOF 5
ENDMDL
MODEL 2
REMARK VINA RESULT:      -8.5      2.990      6.266
REMARK  5 active torsions:
REMARK  status: ('A' for Active; 'I' for Inactive)
REMARK    1  A    between atoms: C6_8  and  N3_9 
REMARK    2  A    between atoms: N3_9  and  C7_10 
REMARK    3  A    between atoms: C14_18  and  C15_19 
REMARK    4  A    between atoms: C16_20  and  C17_21 
REMARK    5  A    between atoms: C17_21  and  C18_22 
ROOT
HETATM    1  N1  UNL     1      22.254   4.841  46.520  1.00  0.00    -0.191 NA
HETATM    2  C1  UNL     1      22.285   4.117  47.407  1.00  0.00     0.103 C 
HETATM    3  C2  UNL     1      22.318   3.222  48.541  1.00  0.00     0.089 A 
HETATM    4  C3  UNL     1      21.584   2.043  48.392  1.00  0.00     0.142 A 
HETATM    5  N2  UNL     1      21.552   1.137  49.400  1.00  0.00    -0.259 NA
HETATM    6  C4  UNL     1      22.227   1.391  50.525  1.00  0.00     0.070 A 
HETATM    7  C5  UNL     1      22.957   2.534  50.709  1.00  0.00     0.020 A 
HETATM    8  C6  UNL     1      23.023   3.488  49.713  1.00  0.00     0.067 A 
HETATM    9  C13 UNL     1      23.669   2.946  51.724  1.00  0.00     0.029 A 
HETATM   10  C14 UNL     1      23.960   2.363  53.031  1.00  0.00     0.210 A 
HETATM   11  N4  UNL     1      23.374   1.088  53.311  1.00  0.00    -0.280 NA
HETATM   12  C21 UNL     1      22.623   0.249  52.720  1.00  0.00     0.114 A 
HETATM   13  C22 UNL     1      22.073   0.395  51.384  1.00  0.00     0.051 A 
ENDROOT
BRANCH   8  14
HETATM   14  N3  UNL     1      23.725   4.695  49.764  1.00  0.00    -0.354 N 
HETATM   15  H2  UNL     1      23.092   5.409  50.187  1.00  0.00     0.166 HD
BRANCH  14  16
HETATM   16  C7  UNL     1      25.054   4.958  49.334  1.00  0.00     0.033 A 
HETATM   17  C8  UNL     1      25.975   3.940  49.479  1.00  0.00     0.029 A 
HETATM   18  C9  UNL     1      27.256   4.263  49.038  1.00  0.00     0.004 A 
HETATM   19  C10 UNL     1      27.586   5.476  48.507  1.00  0.00     0.019 A 
HETATM   20  C11 UNL     1      26.605   6.445  48.395  1.00  0.00     0.013 A 
HETATM   21 BR1  UNL     1      26.974   8.173  47.664  1.00  0.00    -0.051 Br
HETATM   22  C12 UNL     1      25.292   6.214  48.810  1.00  0.00     0.048 A 
ENDBRANCH  14  16
ENDBRANCH   8  14
BRANCH  10  23
HETATM   23  C15 UNL     1      25.426   2.183  53.157  1.00  0.00    -0.075 C 
HETATM   24  C16 UNL     1      26.629   2.040  53.240  1.00  0.00    -0.100 C 
BRANCH  24  25
HETATM   25  C17 UNL     1      28.081   1.868  53.317  1.00  0.00     0.132 C 
BRANCH  25  26
HETATM   26  C18 UNL     1      28.351   0.418  53.489  1.00  0.00    -0.023 A 
HETATM   27  C19 UNL     1      29.224  -0.351  54.079  1.00  0.00     0.140 A 
HETATM   28  O1  UNL     1      28.608  -1.495  53.650  1.00  0.00    -0.358 OA
HETATM   29  C20 UNL     1      27.619  -0.762  52.980  1.00  0.00     0.211 A 
ENDBRANCH  25  26
ENDBRANCH  24  25
ENDBRANCH  10  23
TORSDOF 5
ENDMDL
MODEL 3
REMARK VINA RESULT:      -8.3      2.765      5.809
REMARK  5 active torsions:
REMARK  status: ('A' for Active; 'I' for Inactive)
REMARK    1  A    between atoms: C6_8  and  N3_9 
REMARK    2  A    between atoms: N3_9  and  C7_10 
REMARK    3  A    between atoms: C14_18  and  C15_19 
REMARK    4  A    between atoms: C16_20  and  C17_21 
REMARK    5  A    between atoms: C17_21  and  C18_22 
ROOT
HETATM    1  N1  UNL     1      22.127   3.750  47.068  1.00  0.00    -0.191 NA
HETATM    2  C1  UNL     1      22.012   3.101  48.005  1.00  0.00     0.103 C 
HETATM    3  C2  UNL     1      21.875   2.302  49.202  1.00  0.00     0.089 A 
HETATM    4  C3  UNL     1      20.640   1.666  49.356  1.00  0.00     0.142 A 
HETATM    5  N2  UNL     1      20.412   0.892  50.445  1.00  0.00    -0.259 NA
HETATM    6  C4  UNL     1      21.378   0.752  51.358  1.00  0.00     0.070 A 
HETATM    7  C5  UNL     1      22.600   1.359  51.242  1.00  0.00     0.020 A 
HETATM    8  C6  UNL     1      22.883   2.156  50.152  1.00  0.00     0.067 A 
HETATM    9  C13 UNL     1      23.648   1.336  52.022  1.00  0.00     0.029 A 
HETATM   10  C14 UNL     1      23.924   0.671  53.292  1.00  0.00     0.210 A 
HETATM   11  N4  UNL     1      22.872  -0.129  53.840  1.00  0.00    -0.280 NA
HETATM   12  C21 UNL     1      21.683  -0.458  53.531  1.00  0.00     0.114 A 
HETATM   13  C22 UNL     1      20.967  -0.036  52.340  1.00  0.00     0.051 A 
ENDROOT
BRANCH   8  14
HETATM   14  N3  UNL     1      24.081   2.834  49.906  1.00  0.00    -0.354 N 
HETATM   15  H2  UNL     1      24.757   2.142  49.513  1.00  0.00     0.166 HD
BRANCH  14  16
HETATM   16  C7  UNL     1      24.378   4.205  50.130  1.00  0.00     0.033 A 
HETATM   17  C8  UNL     1      23.623   4.866  51.078  1.00  0.00     0.029 A 
HETATM   18  C9  UNL     1      23.965   6.204  51.248  1.00  0.00     0.004 A 
HETATM   19  C10 UNL     1      24.957   6.823  50.545  1.00  0.00     0.019 A 
HETATM   20  C11 UNL     1      25.669   6.092  49.610  1.00  0.00     0.013 A 
HETATM   21 BR1  UNL     1      27.076   6.874  48.578  1.00  0.00    -0.051 Br
HETATM   22  C12 UNL     1      25.398   4.743  49.371  1.00  0.00     0.048 A 
ENDBRANCH  14  16
ENDBRANCH   8  14
BRANCH  10  23
HETATM   23  C15 UNL     1      25.083  -0.236  53.114  1.00  0.00    -0.075 C 
HETATM   24  C16 UNL     1      26.029  -0.980  52.949  1.00  0.00    -0.100 C 
BRANCH  24  25
HETATM   25  C17 UNL     1      27.160  -1.883  52.728  1.00  0.00     0.132 C 
BRANCH  25  26
HETATM   26  C18 UNL     1      28.388  -1.178  53.174  1.00  0.00    -0.023 A 
HETATM   27  C19 UNL     1      29.634  -1.458  53.442  1.00  0.00     0.140 A 
HETATM   28  O1  UNL     1      29.928  -0.160  53.759  1.00  0.00    -0.358 OA
HETATM   29  C20 UNL     1      28.613   0.247  53.497  1.00  0.00     0.211 A 
ENDBRANCH  25  26
ENDBRANCH  24  25
ENDBRANCH  10  23
TORSDOF 5
ENDMDL
MODEL 4
REMARK VINA RESULT:      -8.2      2.357      3.154
REMARK  5 active torsions:
REMARK  status: ('A' for Active; 'I' for Inactive)
REMARK    1  A    between atoms: C6_8  and  N3_9 
REMARK    2  A    between atoms: N3_9  and  C7_10 
REMARK    3  A    between atoms: C14_18  and  C15_19 
REMARK    4  A    between atoms: C16_20  and  C17_21 
REMARK    5  A    between atoms: C17_21  and  C18_22 
ROOT
HETATM    1  N1  UNL     1      22.535  -1.243  55.434  1.00  0.00    -0.191 NA
HETATM    2  C1  UNL     1      22.418  -0.734  54.414  1.00  0.00     0.103 C 
HETATM    3  C2  UNL     1      22.294  -0.098  53.123  1.00  0.00     0.089 A 
HETATM    4  C3  UNL     1      21.163  -0.459  52.386  1.00  0.00     0.142 A 
HETATM    5  N2  UNL     1      20.955   0.083  51.162  1.00  0.00    -0.259 NA
HETATM    6  C4  UNL     1      21.841   0.958  50.678  1.00  0.00     0.070 A 
HETATM    7  C5  UNL     1      22.960   1.337  51.369  1.00  0.00     0.020 A 
HETATM    8  C6  UNL     1      23.219   0.815  52.620  1.00  0.00     0.067 A 
HETATM    9  C13 UNL     1      23.922   2.166  51.060  1.00  0.00     0.029 A 
HETATM   10  C14 UNL     1      24.176   2.995  49.886  1.00  0.00     0.210 A 
HETATM   11  N4  UNL     1      23.212   2.927  48.830  1.00  0.00    -0.280 NA
HETATM   12  C21 UNL     1      22.123   2.316  48.591  1.00  0.00     0.114 A 
HETATM   13  C22 UNL     1      21.465   1.372  49.477  1.00  0.00     0.051 A 
ENDROOT
BRANCH   8  14
HETATM   14  N3  UNL     1      24.316   1.110  53.434  1.00  0.00    -0.354 N 
HETATM   15  H2  UNL     1      24.009   1.829  54.125  1.00  0.00     0.166 HD
BRANCH  14  16
HETATM   16  C7  UNL     1      25.626   0.562  53.376  1.00  0.00     0.033 A 
HETATM   17  C8  UNL     1      25.750  -0.722  52.884  1.00  0.00     0.029 A 
HETATM   18  C9  UNL     1      27.058  -1.197  52.854  1.00  0.00     0.004 A 
HETATM   19  C10 UNL     1      28.135  -0.468  53.271  1.00  0.00     0.019 A 
HETATM   20  C11 UNL     1      27.927   0.813  53.751  1.00  0.00     0.013 A 
HETATM   21 BR1  UNL     1      29.373   1.909  54.357  1.00  0.00    -0.051 Br
HETATM   22  C12 UNL     1      26.650   1.375  53.819  1.00  0.00     0.048 A 
ENDBRANCH  14  16
ENDBRANCH   8  14
BRANCH  10  23
HETATM   23  C15 UNL     1      24.227   4.416  50.307  1.00  0.00    -0.075 C 
HETATM   24  C16 UNL     1      24.284   5.583  50.638  1.00  0.00    -0.100 C 
BRANCH  24  25
HETATM   25  C17 UNL     1      24.372   6.992  51.025  1.00  0.00     0.132 C 
BRANCH  25  26
HETATM   26  C18 UNL     1      23.216   7.697  50.416  1.00  0.00    -0.023 A 
HETATM   27  C19 UNL     1      22.994   8.625  49.527  1.00  0.00     0.140 A 
HETATM   28  O1  UNL     1      21.637   8.551  49.689  1.00  0.00    -0.358 OA
HETATM   29  C20 UNL     1      21.765   7.547  50.658  1.00  0.00     0.211 A 
ENDBRANCH  25  26
ENDBRANCH  24  25
ENDBRANCH  10  23
TORSDOF 5
ENDMDL
MODEL 5
REMARK VINA RESULT:      -8.2      3.207      5.565
REMARK  5 active torsions:
REMARK  status: ('A' for Active; 'I' for Inactive)
REMARK    1  A    between atoms: C6_8  and  N3_9 
REMARK    2  A    between atoms: N3_9  and  C7_10 
REMARK    3  A    between atoms: C14_18  and  C15_19 
REMARK    4  A    between atoms: C16_20  and  C17_21 
REMARK    5  A    between atoms: C17_21  and  C18_22 
ROOT
HETATM    1  N1  UNL     1      22.103  -1.709  55.304  1.00  0.00    -0.191 NA
HETATM    2  C1  UNL     1      22.812  -1.113  54.631  1.00  0.00     0.103 C 
HETATM    3  C2  UNL     1      23.701  -0.339  53.793  1.00  0.00     0.089 A 
HETATM    4  C3  UNL     1      25.013  -0.813  53.718  1.00  0.00     0.142 A 
HETATM    5  N2  UNL     1      25.924  -0.158  52.958  1.00  0.00    -0.259 NA
HETATM    6  C4  UNL     1      25.547   0.937  52.290  1.00  0.00     0.070 A 
HETATM    7  C5  UNL     1      24.272   1.432  52.339  1.00  0.00     0.020 A 
HETATM    8  C6  UNL     1      23.306   0.801  53.098  1.00  0.00     0.067 A 
HETATM    9  C13 UNL     1      23.731   2.472  51.762  1.00  0.00     0.029 A 
HETATM   10  C14 UNL     1      24.260   3.492  50.861  1.00  0.00     0.210 A 
HETATM   11  N4  UNL     1      25.641   3.380  50.504  1.00  0.00    -0.280 NA
HETATM   12  C21 UNL     1      26.616   2.603  50.754  1.00  0.00     0.114 A 
HETATM   13  C22 UNL     1      26.570   1.431  51.610  1.00  0.00     0.051 A 
ENDROOT
BRANCH   8  14
HETATM   14  N3  UNL     1      21.972   1.194  53.239  1.00  0.00    -0.354 N 
HETATM   15  H2  UNL     1      21.920   1.834  54.061  1.00  0.00     0.166 HD
BRANCH  14  16
HETATM   16  C7  UNL     1      20.858   0.821  52.441  1.00  0.00     0.033 A 
HETATM   17  C8  UNL     1      20.833   1.281  51.139  1.00  0.00     0.029 A 
HETATM   18  C9  UNL     1      19.715   0.880  50.413  1.00  0.00     0.004 A 
HETATM   19  C10 UNL     1      18.721   0.100  50.930  1.00  0.00     0.019 A 
HETATM   20  C11 UNL     1      18.818  -0.321  52.245  1.00  0.00     0.013 A 
HETATM   21 BR1  UNL     1      17.476  -1.415  53.055  1.00  0.00    -0.051 Br
HETATM   22  C12 UNL     1      19.903   0.031  53.051  1.00  0.00     0.048 A 
ENDBRANCH  14  16
ENDBRANCH   8  14
BRANCH  10  23
HETATM   23  C15 UNL     1      23.498   3.446  49.589  1.00  0.00    -0.075 C 
HETATM   24  C16 UNL     1      22.859   3.401  48.558  1.00  0.00    -0.100 C 
BRANCH  24  25
HETATM   25  C17 UNL     1      22.071   3.333  47.326  1.00  0.00     0.132 C 
BRANCH  25  26
HETATM   26  C18 UNL     1      20.643   3.487  47.699  1.00  0.00    -0.023 A 
HETATM   27  C19 UNL     1      19.476   3.057  47.304  1.00  0.00     0.140 A 
HETATM   28  O1  UNL     1      18.812   3.760  48.273  1.00  0.00    -0.358 OA
HETATM   29  C20 UNL     1      20.012   4.279  48.777  1.00  0.00     0.211 A 
ENDBRANCH  25  26
ENDBRANCH  24  25
ENDBRANCH  10  23
TORSDOF 5
ENDMDL
MODEL 6
REMARK VINA RESULT:      -8.1      2.966      6.009
REMARK  5 active torsions:
REMARK  status: ('A' for Active; 'I' for Inactive)
REMARK    1  A    between atoms: C6_8  and  N3_9 
REMARK    2  A    between atoms: N3_9  and  C7_10 
REMARK    3  A    between atoms: C14_18  and  C15_19 
REMARK    4  A    between atoms: C16_20  and  C17_21 
REMARK    5  A    between atoms: C17_21  and  C18_22 
ROOT
HETATM    1  N1  UNL     1      19.057   2.877  49.691  1.00  0.00    -0.191 NA
HETATM    2  C1  UNL     1      20.104   3.331  49.593  1.00  0.00     0.103 C 
HETATM    3  C2  UNL     1      21.432   3.886  49.453  1.00  0.00     0.089 A 
HETATM    4  C3  UNL     1      21.479   5.242  49.121  1.00  0.00     0.142 A 
HETATM    5  N2  UNL     1      22.678   5.856  48.968  1.00  0.00    -0.259 NA
HETATM    6  C4  UNL     1      23.799   5.149  49.138  1.00  0.00     0.070 A 
HETATM    7  C5  UNL     1      23.792   3.819  49.463  1.00  0.00     0.020 A 
HETATM    8  C6  UNL     1      22.599   3.147  49.631  1.00  0.00     0.067 A 
HETATM    9  C13 UNL     1      24.773   2.979  49.666  1.00  0.00     0.029 A 
HETATM   10  C14 UNL     1      26.225   3.124  49.627  1.00  0.00     0.210 A 
HETATM   11  N4  UNL     1      26.733   4.422  49.308  1.00  0.00    -0.280 NA
HETATM   12  C21 UNL     1      26.266   5.571  49.028  1.00  0.00     0.114 A 
HETATM   13  C22 UNL     1      24.858   5.919  48.946  1.00  0.00     0.051 A 
ENDROOT
BRANCH   8  14
HETATM   14  N3  UNL     1      22.444   1.797  49.962  1.00  0.00    -0.354 N 
HETATM   15  H2  UNL     1      22.416   1.257  49.069  1.00  0.00     0.166 HD
BRANCH  14  16
HETATM   16  C7  UNL     1      22.339   1.215  51.254  1.00  0.00     0.033 A 
HETATM   17  C8  UNL     1      23.447   1.298  52.073  1.00  0.00     0.029 A 
HETATM   18  C9  UNL     1      23.278   0.709  53.323  1.00  0.00     0.004 A 
HETATM   19  C10 UNL     1      22.123   0.098  53.717  1.00  0.00     0.019 A 
HETATM   20  C11 UNL     1      21.055   0.056  52.837  1.00  0.00     0.013 A 
HETATM   21 BR1  UNL     1      19.398  -0.777  53.302  1.00  0.00    -0.051 Br
HETATM   22  C12 UNL     1      21.131   0.620  51.562  1.00  0.00     0.048 A 
ENDBRANCH  14  16
ENDBRANCH   8  14
BRANCH  10  23
HETATM   23  C15 UNL     1      26.774   2.781  50.961  1.00  0.00    -0.075 C 
HETATM   24  C16 UNL     1      27.213   2.483  52.054  1.00  0.00    -0.100 C 
BRANCH  24  25
HETATM   25  C17 UNL     1      27.724   2.108  53.373  1.00  0.00     0.132 C 
BRANCH  25  26
HETATM   26  C18 UNL     1      27.124   0.797  53.729  1.00  0.00    -0.023 A 
HETATM   27  C19 UNL     1      26.633   0.198  54.779  1.00  0.00     0.140 A 
HETATM   28  O1  UNL     1      26.356  -0.946  54.082  1.00  0.00    -0.358 OA
HETATM   29  C20 UNL     1      26.861  -0.396  52.896  1.00  0.00     0.211 A 
ENDBRANCH  25  26
ENDBRANCH  24  25
ENDBRANCH  10  23
TORSDOF 5
ENDMDL
MODEL 7
REMARK VINA RESULT:      -7.9      2.919      5.725
REMARK  5 active torsions:
REMARK  status: ('A' for Active; 'I' for Inactive)
REMARK    1  A    between atoms: C6_8  and  N3_9 
REMARK    2  A    between atoms: N3_9  and  C7_10 
REMARK    3  A    between atoms: C14_18  and  C15_19 
REMARK    4  A    between atoms: C16_20  and  C17_21 
REMARK    5  A    between atoms: C17_21  and  C18_22 
ROOT
HETATM    1  N1  UNL     1      28.991   1.733  53.076  1.00  0.00    -0.191 NA
HETATM    2  C1  UNL     1      28.031   1.225  53.440  1.00  0.00     0.103 C 
HETATM    3  C2  UNL     1      26.820   0.569  53.878  1.00  0.00     0.089 A 
HETATM    4  C3  UNL     1      26.844   0.086  55.189  1.00  0.00     0.142 A 
HETATM    5  N2  UNL     1      25.756  -0.544  55.695  1.00  0.00    -0.259 NA
HETATM    6  C4  UNL     1      24.673  -0.694  54.925  1.00  0.00     0.070 A 
HETATM    7  C5  UNL     1      24.612  -0.234  53.637  1.00  0.00     0.020 A 
HETATM    8  C6  UNL     1      25.692   0.415  53.075  1.00  0.00     0.067 A 
HETATM    9  C13 UNL     1      23.654  -0.288  52.750  1.00  0.00     0.029 A 
HETATM   10  C14 UNL     1      22.305  -0.846  52.782  1.00  0.00     0.210 A 
HETATM   11  N4  UNL     1      21.896  -1.470  54.002  1.00  0.00    -0.280 NA
HETATM   12  C21 UNL     1      22.391  -1.702  55.150  1.00  0.00     0.114 A 
HETATM   13  C22 UNL     1      23.723  -1.329  55.593  1.00  0.00     0.051 A 
ENDROOT
BRANCH   8  14
HETATM   14  N3  UNL     1      25.768   0.933  51.779  1.00  0.00    -0.354 N 
HETATM   15  H2  UNL     1      26.099   0.165  51.153  1.00  0.00     0.166 HD
BRANCH  14  16
HETATM   16  C7  UNL     1      25.465   2.250  51.339  1.00  0.00     0.033 A 
HETATM   17  C8  UNL     1      26.354   2.843  50.466  1.00  0.00     0.029 A 
HETATM   18  C9  UNL     1      25.997   4.130  50.075  1.00  0.00     0.004 A 
HETATM   19  C10 UNL     1      24.869   4.764  50.509  1.00  0.00     0.019 A 
HETATM   20  C11 UNL     1      24.027   4.102  51.385  1.00  0.00     0.013 A 
HETATM   21 BR1  UNL     1      22.425   4.909  52.048  1.00  0.00    -0.051 Br
HETATM   22  C12 UNL     1      24.302   2.808  51.833  1.00  0.00     0.048 A 
ENDBRANCH  14  16
ENDBRANCH   8  14
BRANCH  10  23
HETATM   23  C15 UNL     1      21.332   0.244  52.528  1.00  0.00    -0.075 C 
HETATM   24  C16 UNL     1      20.551   1.150  52.318  1.00  0.00    -0.100 C 
BRANCH  24  25
HETATM   25  C17 UNL     1      19.627   2.257  52.066  1.00  0.00     0.132 C 
BRANCH  25  26
HETATM   26  C18 UNL     1      19.499   2.407  50.595  1.00  0.00    -0.023 A 
HETATM   27  C19 UNL     1      20.209   2.184  49.523  1.00  0.00     0.140 A 
HETATM   28  O1  UNL     1      19.225   2.646  48.692  1.00  0.00    -0.358 OA
HETATM   29  C20 UNL     1      18.382   2.925  49.777  1.00  0.00     0.211 A 
ENDBRANCH  25  26
ENDBRANCH  24  25
ENDBRANCH  10  23
TORSDOF 5
ENDMDL
MODEL 8
REMARK VINA RESULT:      -7.7      3.446      5.356
REMARK  5 active torsions:
REMARK  status: ('A' for Active; 'I' for Inactive)
REMARK    1  A    between atoms: C6_8  and  N3_9 
REMARK    2  A    between atoms: N3_9  and  C7_10 
REMARK    3  A    between atoms: C14_18  and  C15_19 
REMARK    4  A    between atoms: C16_20  and  C17_21 
REMARK    5  A    between atoms: C17_21  and  C18_22 
ROOT
HETATM    1  N1  UNL     1      26.352  -0.366  54.656  1.00  0.00    -0.191 NA
HETATM    2  C1  UNL     1      25.227  -0.505  54.494  1.00  0.00     0.103 C 
HETATM    3  C2  UNL     1      23.811  -0.689  54.266  1.00  0.00     0.089 A 
HETATM    4  C3  UNL     1      23.147  -1.454  55.228  1.00  0.00     0.142 A 
HETATM    5  N2  UNL     1      21.817  -1.684  55.104  1.00  0.00    -0.259 NA
HETATM    6  C4  UNL     1      21.162  -1.171  54.058  1.00  0.00     0.070 A 
HETATM    7  C5  UNL     1      21.778  -0.416  53.097  1.00  0.00     0.020 A 
HETATM    8  C6  UNL     1      23.130  -0.153  53.176  1.00  0.00     0.067 A 
HETATM    9  C13 UNL     1      21.306   0.158  52.022  1.00  0.00     0.029 A 
HETATM   10  C14 UNL     1      19.970   0.220  51.437  1.00  0.00     0.210 A 
HETATM   11  N4  UNL     1      18.929  -0.467  52.138  1.00  0.00    -0.280 NA
HETATM   12  C21 UNL     1      18.810  -1.166  53.193  1.00  0.00     0.114 A 
HETATM   13  C22 UNL     1      19.881  -1.503  54.114  1.00  0.00     0.051 A 
ENDROOT
BRANCH   8  14
HETATM   14  N3  UNL     1      23.885   0.598  52.270  1.00  0.00    -0.354 N 
HETATM   15  H2  UNL     1      24.575  -0.048  51.826  1.00  0.00     0.166 HD
BRANCH  14  16
HETATM   16  C7  UNL     1      23.777   1.982  51.970  1.00  0.00     0.033 A 
HETATM   17  C8  UNL     1      23.985   2.869  53.008  1.00  0.00     0.029 A 
HETATM   18  C9  UNL     1      23.864   4.208  52.646  1.00  0.00     0.004 A 
HETATM   19  C10 UNL     1      23.565   4.623  51.381  1.00  0.00     0.019 A 
HETATM   20  C11 UNL     1      23.371   3.671  50.395  1.00  0.00     0.013 A 
HETATM   21 BR1  UNL     1      22.949   4.157  48.594  1.00  0.00    -0.051 Br
HETATM   22  C12 UNL     1      23.472   2.304  50.662  1.00  0.00     0.048 A 
ENDBRANCH  14  16
ENDBRANCH   8  14
BRANCH  10  23
HETATM   23  C15 UNL     1      19.549   1.640  51.359  1.00  0.00    -0.075 C 
HETATM   24  C16 UNL     1      19.188   2.797  51.285  1.00  0.00    -0.100 C 
BRANCH  24  25
HETATM   25  C17 UNL     1      18.737   4.186  51.178  1.00  0.00     0.132 C 
BRANCH  25  26
HETATM   26  C18 UNL     1      17.261   4.166  51.018  1.00  0.00    -0.023 A 
HETATM   27  C19 UNL     1      16.382   4.077  50.058  1.00  0.00     0.140 A 
HETATM   28  O1  UNL     1      15.326   4.149  50.926  1.00  0.00    -0.358 OA
HETATM   29  C20 UNL     1      16.185   4.251  52.029  1.00  0.00     0.211 A 
ENDBRANCH  25  26
ENDBRANCH  24  25
ENDBRANCH  10  23
TORSDOF 5
ENDMDL
MODEL 9
REMARK VINA RESULT:      -7.6      3.071      5.319
REMARK  5 active torsions:
REMARK  status: ('A' for Active; 'I' for Inactive)
REMARK    1  A    between atoms: C6_8  and  N3_9 
REMARK    2  A    between atoms: N3_9  and  C7_10 
REMARK    3  A    between atoms: C14_18  and  C15_19 
REMARK    4  A    between atoms: C16_20  and  C17_21 
REMARK    5  A    between atoms: C17_21  and  C18_22 
ROOT
HETATM    1  N1  UNL     1      22.044  -1.684  55.295  1.00  0.00    -0.191 NA
HETATM    2  C1  UNL     1      22.755  -1.094  54.616  1.00  0.00     0.103 C 
HETATM    3  C2  UNL     1      23.645  -0.329  53.773  1.00  0.00     0.089 A 
HETATM    4  C3  UNL     1      24.943  -0.835  53.663  1.00  0.00     0.142 A 
HETATM    5  N2  UNL     1      25.854  -0.190  52.894  1.00  0.00    -0.259 NA
HETATM    6  C4  UNL     1      25.492   0.925  52.252  1.00  0.00     0.070 A 
HETATM    7  C5  UNL     1      24.230   1.450  52.335  1.00  0.00     0.020 A 
HETATM    8  C6  UNL     1      23.265   0.832  53.104  1.00  0.00     0.067 A 
HETATM    9  C13 UNL     1      23.704   2.513  51.786  1.00  0.00     0.029 A 
HETATM   10  C14 UNL     1      24.239   3.534  50.890  1.00  0.00     0.210 A 
HETATM   11  N4  UNL     1      25.610   3.394  50.502  1.00  0.00    -0.280 NA
HETATM   12  C21 UNL     1      26.570   2.589  50.720  1.00  0.00     0.114 A 
HETATM   13  C22 UNL     1      26.513   1.405  51.559  1.00  0.00     0.051 A 
ENDROOT
BRANCH   8  14
HETATM   14  N3  UNL     1      21.944   1.255  53.279  1.00  0.00    -0.354 N 
HETATM   15  H2  UNL     1      21.922   1.872  54.120  1.00  0.00     0.166 HD
BRANCH  14  16
HETATM   16  C7  UNL     1      20.807   0.935  52.489  1.00  0.00     0.033 A 
HETATM   17  C8  UNL     1      20.026  -0.123  52.910  1.00  0.00     0.029 A 
HETATM   18  C9  UNL     1      18.929  -0.382  52.093  1.00  0.00     0.004 A 
HETATM   19  C10 UNL     1      18.639   0.338  50.970  1.00  0.00     0.019 A 
HETATM   20  C11 UNL     1      19.472   1.384  50.614  1.00  0.00     0.013 A 
HETATM   21 BR1  UNL     1      19.146   2.448  49.059  1.00  0.00    -0.051 Br
HETATM   22  C12 UNL     1      20.596   1.719  51.372  1.00  0.00     0.048 A 
ENDBRANCH  14  16
ENDBRANCH   8  14
BRANCH  10  23
HETATM   23  C15 UNL     1      23.451   3.527  49.634  1.00  0.00    -0.075 C 
HETATM   24  C16 UNL     1      22.822   3.527  48.595  1.00  0.00    -0.100 C 
BRANCH  24  25
HETATM   25  C17 UNL     1      22.083   3.539  47.332  1.00  0.00     0.132 C 
BRANCH  25  26
HETATM   26  C18 UNL     1      22.232   4.891  46.739  1.00  0.00    -0.023 A 
HETATM   27  C19 UNL     1      22.666   6.071  47.089  1.00  0.00     0.140 A 
HETATM   28  O1  UNL     1      22.382   6.614  45.865  1.00  0.00    -0.358 OA
HETATM   29  C20 UNL     1      21.892   5.390  45.389  1.00  0.00     0.211 A 
ENDBRANCH  25  26
ENDBRANCH  24  25
ENDBRANCH  10  23
TORSDOF 5
ENDMDL
