MODEL 1
REMARK VINA RESULT:      -8.3      0.000      0.000
REMARK  2 active torsions:
REMARK  status: ('A' for Active; 'I' for Inactive)
REMARK    1  A    between atoms: C8_11  and  P1_12 
REMARK    2  A    between atoms: C15_21  and  C16_22 
REMARK       I    between atoms: C16_22  and  N6_23 
ROOT
HETATM    1  C1  UNL     1      19.571   0.101  51.885  1.00  0.00     0.178 C 
HETATM    2  N1  UNL     1      20.239   1.332  51.709  1.00  0.00    -0.294 N 
HETATM    3  C2  UNL     1      19.655   2.509  52.214  1.00  0.00     0.169 C 
HETATM    4  C3  UNL     1      18.422   2.872  51.419  1.00  0.00     0.145 C 
HETATM    5  N2  UNL     1      18.665   3.187  50.038  1.00  0.00    -0.370 N 
HETATM    6  C4  UNL     1      18.560   4.640  49.897  1.00  0.00     0.204 C 
HETATM    7  N3  UNL     1      19.856   4.636  50.068  1.00  0.00    -0.256 NA
HETATM    8  C5  UNL     1      20.708   5.741  50.083  1.00  0.00     0.122 C 
HETATM    9  C6  UNL     1      21.632   6.264  49.251  1.00  0.00    -0.042 C 
HETATM   10  C7  UNL     1      21.895   5.593  47.991  1.00  0.00     0.051 C 
HETATM   11  C8  UNL     1      21.112   4.451  47.546  1.00  0.00     0.048 C 
HETATM   12  C9  UNL     1      21.478   3.202  48.252  1.00  0.00    -0.027 C 
HETATM   13  C10 UNL     1      22.478   2.421  48.627  1.00  0.00     0.098 C 
HETATM   14  N4  UNL     1      22.855   2.205  50.012  1.00  0.00    -0.340 N 
HETATM   15  C11 UNL     1      23.809   2.908  50.837  1.00  0.00     0.275 C 
HETATM   16  N5  UNL     1      24.332   4.072  50.178  1.00  0.00    -0.280 NA
HETATM   17  C12 UNL     1      24.221   5.286  50.573  1.00  0.00     0.143 C 
HETATM   18  C13 UNL     1      24.527   6.680  50.305  1.00  0.00     0.072 A 
HETATM   19  C14 UNL     1      25.761   7.261  50.381  1.00  0.00     0.072 A 
HETATM   20  C15 UNL     1      25.589   8.581  50.018  1.00  0.00     0.146 A 
HETATM   21  N7  UNL     1      24.308   8.673  49.767  1.00  0.00    -0.166 NA
HETATM   22  N8  UNL     1      23.629   7.550  49.928  1.00  0.00    -0.264 N 
HETATM   23  C17 UNL     1      22.227   7.544  49.705  1.00  0.00     0.187 C 
HETATM   24  C18 UNL     1      21.988   1.094  50.309  1.00  0.00     0.278 C 
HETATM   25  C19 UNL     1      20.821   1.077  49.383  1.00  0.00     0.038 C 
HETATM   26  C20 UNL     1      20.504   2.216  48.808  1.00  0.00    -0.032 C 
HETATM   27  C21 UNL     1      19.055   2.565  48.767  1.00  0.00     0.162 C 
HETATM   28  O2  UNL     1      21.544   1.219  51.633  1.00  0.00    -0.253 OA
ENDROOT
BRANCH  20  29
HETATM   29  C16 UNL     1      26.672   9.541  49.973  1.00  0.00     0.269 C 
HETATM   30  N6  UNL     1      27.858   9.416  50.730  1.00  0.00    -0.365 N 
HETATM   31  H20 UNL     1      28.705   9.596  50.147  1.00  0.00     0.159 HD
HETATM   32  H21 UNL     1      27.782   9.170  51.742  1.00  0.00     0.159 HD
HETATM   33  O1  UNL     1      26.450  10.521  49.180  1.00  0.00    -0.266 OA
ENDBRANCH  20  29
BRANCH  11  34
HETATM   34  P1  UNL     1      21.676   4.070  45.749  1.00  0.00    -0.132 P 
HETATM   35  H13 UNL     1      20.734   3.068  45.239  1.00  0.00     0.055 HD
HETATM   36  H14 UNL     1      21.407   5.284  45.001  1.00  0.00     0.055 HD
ENDBRANCH  11  34
TORSDOF 2
ENDMDL
MODEL 2
REMARK VINA RESULT:      -8.1      3.080      6.382
REMARK  2 active torsions:
REMARK  status: ('A' for Active; 'I' for Inactive)
REMARK    1  A    between atoms: C8_11  and  P1_12 
REMARK    2  A    between atoms: C15_21  and  C16_22 
REMARK       I    between atoms: C16_22  and  N6_23 
ROOT
HETATM    1  C1  UNL     1      21.158   9.274  49.502  1.00  0.00     0.178 C 
HETATM    2  N1  UNL     1      22.002   8.258  50.000  1.00  0.00    -0.294 N 
HETATM    3  C2  UNL     1      23.397   8.437  49.949  1.00  0.00     0.169 C 
HETATM    4  C3  UNL     1      23.887   8.379  48.520  1.00  0.00     0.145 C 
HETATM    5  N2  UNL     1      23.691   7.115  47.866  1.00  0.00    -0.370 N 
HETATM    6  C4  UNL     1      24.993   6.449  47.801  1.00  0.00     0.204 C 
HETATM    7  N3  UNL     1      24.623   5.869  48.913  1.00  0.00    -0.256 NA
HETATM    8  C5  UNL     1      25.351   4.945  49.664  1.00  0.00     0.122 C 
HETATM    9  C6  UNL     1      25.283   3.618  49.897  1.00  0.00    -0.042 C 
HETATM   10  C7  UNL     1      24.227   2.851  49.261  1.00  0.00     0.051 C 
HETATM   11  C8  UNL     1      23.318   3.444  48.292  1.00  0.00     0.048 C 
HETATM   12  C9  UNL     1      22.282   4.289  48.928  1.00  0.00    -0.027 C 
HETATM   13  C10 UNL     1      21.367   4.349  49.882  1.00  0.00     0.098 C 
HETATM   14  N4  UNL     1      21.455   5.236  51.026  1.00  0.00    -0.340 N 
HETATM   15  C11 UNL     1      22.023   5.013  52.336  1.00  0.00     0.275 C 
HETATM   16  N5  UNL     1      22.712   3.754  52.412  1.00  0.00    -0.280 NA
HETATM   17  C12 UNL     1      23.958   3.581  52.662  1.00  0.00     0.143 C 
HETATM   18  C13 UNL     1      25.038   2.626  52.833  1.00  0.00     0.072 A 
HETATM   19  C14 UNL     1      25.187   1.761  53.879  1.00  0.00     0.072 A 
HETATM   20  C15 UNL     1      26.327   1.029  53.614  1.00  0.00     0.146 A 
HETATM   21  N7  UNL     1      26.747   1.506  52.470  1.00  0.00    -0.166 NA
HETATM   22  N8  UNL     1      25.999   2.471  51.963  1.00  0.00    -0.264 N 
HETATM   23  C17 UNL     1      26.378   3.075  50.736  1.00  0.00     0.187 C 
HETATM   24  C18 UNL     1      20.818   6.396  50.460  1.00  0.00     0.278 C 
HETATM   25  C19 UNL     1      20.907   6.370  48.973  1.00  0.00     0.038 C 
HETATM   26  C20 UNL     1      21.867   5.641  48.450  1.00  0.00    -0.032 C 
HETATM   27  C21 UNL     1      22.634   6.251  47.326  1.00  0.00     0.162 C 
HETATM   28  O2  UNL     1      21.460   7.541  50.955  1.00  0.00    -0.253 OA
ENDROOT
BRANCH  20  29
HETATM   29  C16 UNL     1      26.832  -0.003  54.496  1.00  0.00     0.269 C 
HETATM   30  N6  UNL     1      28.184  -0.097  54.894  1.00  0.00    -0.365 N 
HETATM   31  H20 UNL     1      28.269  -0.259  55.922  1.00  0.00     0.159 HD
HETATM   32  H21 UNL     1      28.927   0.000  54.168  1.00  0.00     0.159 HD
HETATM   33  O1  UNL     1      25.933  -0.830  54.879  1.00  0.00    -0.266 OA
ENDBRANCH  20  29
BRANCH  11  34
HETATM   34  P1  UNL     1      22.270   2.002  47.575  1.00  0.00    -0.132 P 
HETATM   35  H13 UNL     1      22.470   2.048  46.122  1.00  0.00     0.055 HD
HETATM   36  H14 UNL     1      22.930   0.791  48.027  1.00  0.00     0.055 HD
ENDBRANCH  11  34
TORSDOF 2
ENDMDL
MODEL 3
REMARK VINA RESULT:      -7.6      6.156     10.950
REMARK  2 active torsions:
REMARK  status: ('A' for Active; 'I' for Inactive)
REMARK    1  A    between atoms: C8_11  and  P1_12 
REMARK    2  A    between atoms: C15_21  and  C16_22 
REMARK       I    between atoms: C16_22  and  N6_23 
ROOT
HETATM    1  C1  UNL     1      34.483   6.983  43.999  1.00  0.00     0.178 C 
HETATM    2  N1  UNL     1      33.207   6.797  44.572  1.00  0.00    -0.294 N 
HETATM    3  C2  UNL     1      32.063   6.931  43.763  1.00  0.00     0.169 C 
HETATM    4  C3  UNL     1      31.861   8.375  43.365  1.00  0.00     0.145 C 
HETATM    5  N2  UNL     1      31.601   9.271  44.459  1.00  0.00    -0.370 N 
HETATM    6  C4  UNL     1      30.174   9.595  44.427  1.00  0.00     0.204 C 
HETATM    7  N3  UNL     1      30.048   8.608  45.276  1.00  0.00    -0.256 NA
HETATM    8  C5  UNL     1      28.869   8.146  45.862  1.00  0.00     0.122 C 
HETATM    9  C6  UNL     1      28.308   8.205  47.088  1.00  0.00    -0.042 C 
HETATM   10  C7  UNL     1      29.020   8.896  48.148  1.00  0.00     0.051 C 
HETATM   11  C8  UNL     1      30.253   9.628  47.901  1.00  0.00     0.048 C 
HETATM   12  C9  UNL     1      31.422   8.733  47.742  1.00  0.00    -0.027 C 
HETATM   13  C10 UNL     1      32.084   7.712  48.260  1.00  0.00     0.098 C 
HETATM   14  N4  UNL     1      32.188   6.413  47.622  1.00  0.00    -0.340 N 
HETATM   15  C11 UNL     1      31.356   5.240  47.756  1.00  0.00     0.275 C 
HETATM   16  N5  UNL     1      30.186   5.503  48.547  1.00  0.00    -0.280 NA
HETATM   17  C12 UNL     1      28.967   5.408  48.161  1.00  0.00     0.143 C 
HETATM   18  C13 UNL     1      27.567   5.548  48.521  1.00  0.00     0.072 A 
HETATM   19  C14 UNL     1      26.872   4.733  49.369  1.00  0.00     0.072 A 
HETATM   20  C15 UNL     1      25.595   5.252  49.439  1.00  0.00     0.146 A 
HETATM   21  N7  UNL     1      25.637   6.297  48.652  1.00  0.00    -0.166 NA
HETATM   22  N8  UNL     1      26.807   6.512  48.077  1.00  0.00    -0.264 N 
HETATM   23  C17 UNL     1      26.956   7.606  47.185  1.00  0.00     0.187 C 
HETATM   24  C18 UNL     1      33.357   6.652  46.816  1.00  0.00     0.278 C 
HETATM   25  C19 UNL     1      33.534   8.111  46.568  1.00  0.00     0.038 C 
HETATM   26  C20 UNL     1      32.462   8.864  46.679  1.00  0.00    -0.032 C 
HETATM   27  C21 UNL     1      32.252   9.891  45.618  1.00  0.00     0.162 C 
HETATM   28  O2  UNL     1      33.202   5.977  45.597  1.00  0.00    -0.253 OA
ENDROOT
BRANCH  20  29
HETATM   29  C16 UNL     1      24.542   4.667  50.243  1.00  0.00     0.269 C 
HETATM   30  N6  UNL     1      24.200   5.124  51.536  1.00  0.00    -0.365 N 
HETATM   31  H20 UNL     1      23.168   5.226  51.645  1.00  0.00     0.159 HD
HETATM   32  H21 UNL     1      24.967   5.307  52.220  1.00  0.00     0.159 HD
HETATM   33  O1  UNL     1      23.948   3.688  49.670  1.00  0.00    -0.266 OA
ENDBRANCH  20  29
BRANCH  11  34
HETATM   34  P1  UNL     1      30.677  10.548  49.534  1.00  0.00    -0.132 P 
HETATM   35  H13 UNL     1      29.808  11.729  49.563  1.00  0.00     0.055 HD
HETATM   36  H14 UNL     1      30.200   9.679  50.594  1.00  0.00     0.055 HD
ENDBRANCH  11  34
TORSDOF 2
ENDMDL
MODEL 4
REMARK VINA RESULT:      -7.5      3.366      5.710
REMARK  2 active torsions:
REMARK  status: ('A' for Active; 'I' for Inactive)
REMARK    1  A    between atoms: C8_11  and  P1_12 
REMARK    2  A    between atoms: C15_21  and  C16_22 
REMARK       I    between atoms: C16_22  and  N6_23 
ROOT
HETATM    1  C1  UNL     1      18.666   5.936  46.668  1.00  0.00     0.178 C 
HETATM    2  N1  UNL     1      19.457   5.408  47.712  1.00  0.00    -0.294 N 
HETATM    3  C2  UNL     1      19.098   5.671  49.047  1.00  0.00     0.169 C 
HETATM    4  C3  UNL     1      19.327   7.128  49.381  1.00  0.00     0.145 C 
HETATM    5  N2  UNL     1      20.698   7.553  49.316  1.00  0.00    -0.370 N 
HETATM    6  C4  UNL     1      21.178   7.691  50.692  1.00  0.00     0.204 C 
HETATM    7  N3  UNL     1      21.608   6.465  50.543  1.00  0.00    -0.256 NA
HETATM    8  C5  UNL     1      22.283   5.688  51.485  1.00  0.00     0.122 C 
HETATM    9  C6  UNL     1      23.549   5.252  51.654  1.00  0.00    -0.042 C 
HETATM   10  C7  UNL     1      24.550   5.619  50.668  1.00  0.00     0.051 C 
HETATM   11  C8  UNL     1      24.261   6.536  49.577  1.00  0.00     0.048 C 
HETATM   12  C9  UNL     1      23.472   5.902  48.496  1.00  0.00    -0.027 C 
HETATM   13  C10 UNL     1      23.380   4.854  47.693  1.00  0.00     0.098 C 
HETATM   14  N4  UNL     1      22.309   3.877  47.765  1.00  0.00    -0.340 N 
HETATM   15  C11 UNL     1      22.228   2.637  48.501  1.00  0.00     0.275 C 
HETATM   16  N5  UNL     1      23.348   2.465  49.385  1.00  0.00    -0.280 NA
HETATM   17  C12 UNL     1      23.303   2.361  50.661  1.00  0.00     0.143 C 
HETATM   18  C13 UNL     1      24.057   2.194  51.891  1.00  0.00     0.072 A 
HETATM   19  C14 UNL     1      24.704   1.060  52.289  1.00  0.00     0.072 A 
HETATM   20  C15 UNL     1      25.306   1.362  53.494  1.00  0.00     0.146 A 
HETATM   21  N7  UNL     1      24.975   2.610  53.705  1.00  0.00    -0.166 NA
HETATM   22  N8  UNL     1      24.222   3.152  52.764  1.00  0.00    -0.264 N 
HETATM   23  C17 UNL     1      23.786   4.495  52.906  1.00  0.00     0.187 C 
HETATM   24  C18 UNL     1      21.360   4.521  46.895  1.00  0.00     0.278 C 
HETATM   25  C19 UNL     1      21.623   5.985  46.823  1.00  0.00     0.038 C 
HETATM   26  C20 UNL     1      22.291   6.517  47.823  1.00  0.00    -0.032 C 
HETATM   27  C21 UNL     1      21.778   7.812  48.356  1.00  0.00     0.162 C 
HETATM   28  O2  UNL     1      20.071   4.293  47.397  1.00  0.00    -0.253 OA
ENDROOT
BRANCH  20  29
HETATM   29  C16 UNL     1      26.095   0.411  54.249  1.00  0.00     0.269 C 
HETATM   30  N6  UNL     1      25.875  -0.984  54.220  1.00  0.00    -0.365 N 
HETATM   31  H20 UNL     1      26.769  -1.510  54.102  1.00  0.00     0.159 HD
HETATM   32  H21 UNL     1      24.898  -1.338  54.314  1.00  0.00     0.159 HD
HETATM   33  O1  UNL     1      27.015   0.958  54.952  1.00  0.00    -0.266 OA
ENDBRANCH  20  29
BRANCH  11  34
HETATM   34  P1  UNL     1      25.933   6.883  48.697  1.00  0.00    -0.132 P 
HETATM   35  H13 UNL     1      25.625   7.818  47.610  1.00  0.00     0.055 HD
HETATM   36  H14 UNL     1      26.718   7.637  49.658  1.00  0.00     0.055 HD
ENDBRANCH  11  34
TORSDOF 2
ENDMDL
MODEL 5
REMARK VINA RESULT:      -7.5      8.954     11.337
REMARK  2 active torsions:
REMARK  status: ('A' for Active; 'I' for Inactive)
REMARK    1  A    between atoms: C8_11  and  P1_12 
REMARK    2  A    between atoms: C15_21  and  C16_22 
REMARK       I    between atoms: C16_22  and  N6_23 
ROOT
HETATM    1  C1  UNL     1      28.304  14.846  47.080  1.00  0.00     0.178 C 
HETATM    2  N1  UNL     1      29.053  13.652  47.004  1.00  0.00    -0.294 N 
HETATM    3  C2  UNL     1      29.693  13.318  45.796  1.00  0.00     0.169 C 
HETATM    4  C3  UNL     1      28.675  12.946  44.742  1.00  0.00     0.145 C 
HETATM    5  N2  UNL     1      27.897  11.775  45.041  1.00  0.00    -0.370 N 
HETATM    6  C4  UNL     1      28.406  10.688  44.203  1.00  0.00     0.204 C 
HETATM    7  N3  UNL     1      29.149  10.392  45.238  1.00  0.00    -0.256 NA
HETATM    8  C5  UNL     1      30.071   9.350  45.343  1.00  0.00     0.122 C 
HETATM    9  C6  UNL     1      30.124   8.164  45.984  1.00  0.00    -0.042 C 
HETATM   10  C7  UNL     1      28.995   7.763  46.804  1.00  0.00     0.051 C 
HETATM   11  C8  UNL     1      27.765   8.539  46.859  1.00  0.00     0.048 C 
HETATM   12  C9  UNL     1      27.899   9.756  47.691  1.00  0.00    -0.027 C 
HETATM   13  C10 UNL     1      28.299  10.233  48.858  1.00  0.00     0.098 C 
HETATM   14  N4  UNL     1      29.420  11.141  49.015  1.00  0.00    -0.340 N 
HETATM   15  C11 UNL     1      30.815  10.864  49.264  1.00  0.00     0.275 C 
HETATM   16  N5  UNL     1      31.101   9.457  49.198  1.00  0.00    -0.280 NA
HETATM   17  C12 UNL     1      31.900   8.879  48.379  1.00  0.00     0.143 C 
HETATM   18  C13 UNL     1      32.482   7.625  47.936  1.00  0.00     0.072 A 
HETATM   19  C14 UNL     1      33.391   6.873  48.625  1.00  0.00     0.072 A 
HETATM   20  C15 UNL     1      33.641   5.762  47.846  1.00  0.00     0.146 A 
HETATM   21  N7  UNL     1      32.885   5.940  46.793  1.00  0.00    -0.166 NA
HETATM   22  N8  UNL     1      32.170   7.051  46.805  1.00  0.00    -0.264 N 
HETATM   23  C17 UNL     1      31.333   7.355  45.699  1.00  0.00     0.187 C 
HETATM   24  C18 UNL     1      28.723  12.389  48.841  1.00  0.00     0.278 C 
HETATM   25  C19 UNL     1      27.465  12.184  48.070  1.00  0.00     0.038 C 
HETATM   26  C20 UNL     1      27.403  11.112  47.311  1.00  0.00    -0.032 C 
HETATM   27  C21 UNL     1      26.843  11.293  45.941  1.00  0.00     0.162 C 
HETATM   28  O2  UNL     1      29.564  13.274  48.152  1.00  0.00    -0.253 OA
ENDROOT
BRANCH  20  29
HETATM   29  C16 UNL     1      34.561   4.711  48.231  1.00  0.00     0.269 C 
HETATM   30  N6  UNL     1      35.380   4.773  49.381  1.00  0.00    -0.365 N 
HETATM   31  H20 UNL     1      35.349   3.881  49.921  1.00  0.00     0.159 HD
HETATM   32  H21 UNL     1      35.909   5.653  49.571  1.00  0.00     0.159 HD
HETATM   33  O1  UNL     1      34.565   3.717  47.425  1.00  0.00    -0.266 OA
ENDBRANCH  20  29
BRANCH  11  34
HETATM   34  P1  UNL     1      26.509   7.499  47.874  1.00  0.00    -0.132 P 
HETATM   35  H13 UNL     1      27.186   7.178  49.136  1.00  0.00     0.055 HD
HETATM   36  H14 UNL     1      25.444   8.423  48.221  1.00  0.00     0.055 HD
ENDBRANCH  11  34
TORSDOF 2
ENDMDL
MODEL 6
REMARK VINA RESULT:      -7.0      2.559      6.932
REMARK  2 active torsions:
REMARK  status: ('A' for Active; 'I' for Inactive)
REMARK    1  A    between atoms: C8_11  and  P1_12 
REMARK    2  A    between atoms: C15_21  and  C16_22 
REMARK       I    between atoms: C16_22  and  N6_23 
ROOT
HETATM    1  C1  UNL     1      20.489   9.064  49.242  1.00  0.00     0.178 C 
HETATM    2  N1  UNL     1      20.887   7.912  49.955  1.00  0.00    -0.294 N 
HETATM    3  C2  UNL     1      22.034   7.969  50.769  1.00  0.00     0.169 C 
HETATM    4  C3  UNL     1      23.281   8.083  49.921  1.00  0.00     0.145 C 
HETATM    5  N2  UNL     1      23.535   6.956  49.068  1.00  0.00    -0.370 N 
HETATM    6  C4  UNL     1      24.630   6.192  49.668  1.00  0.00     0.204 C 
HETATM    7  N3  UNL     1      23.681   5.487  50.226  1.00  0.00    -0.256 NA
HETATM    8  C5  UNL     1      23.833   4.398  51.084  1.00  0.00     0.122 C 
HETATM    9  C6  UNL     1      23.662   3.063  50.996  1.00  0.00    -0.042 C 
HETATM   10  C7  UNL     1      23.207   2.500  49.737  1.00  0.00     0.051 C 
HETATM   11  C8  UNL     1      23.046   3.312  48.541  1.00  0.00     0.048 C 
HETATM   12  C9  UNL     1      21.820   4.142  48.579  1.00  0.00    -0.027 C 
HETATM   13  C10 UNL     1      20.516   4.140  48.802  1.00  0.00     0.098 C 
HETATM   14  N4  UNL     1      19.889   4.832  49.912  1.00  0.00    -0.340 N 
HETATM   15  C11 UNL     1      19.567   4.364  51.240  1.00  0.00     0.275 C 
HETATM   16  N5  UNL     1      20.097   3.051  51.486  1.00  0.00    -0.280 NA
HETATM   17  C12 UNL     1      20.950   2.730  52.387  1.00  0.00     0.143 C 
HETATM   18  C13 UNL     1      21.732   1.665  52.992  1.00  0.00     0.072 A 
HETATM   19  C14 UNL     1      21.242   0.643  53.753  1.00  0.00     0.072 A 
HETATM   20  C15 UNL     1      22.327  -0.141  54.088  1.00  0.00     0.146 A 
HETATM   21  N7  UNL     1      23.339   0.462  53.517  1.00  0.00    -0.166 NA
HETATM   22  N8  UNL     1      23.025   1.557  52.846  1.00  0.00    -0.264 N 
HETATM   23  C17 UNL     1      24.050   2.302  52.208  1.00  0.00     0.187 C 
HETATM   24  C18 UNL     1      19.695   6.118  49.293  1.00  0.00     0.278 C 
HETATM   25  C19 UNL     1      20.654   6.309  48.169  1.00  0.00     0.038 C 
HETATM   26  C20 UNL     1      21.749   5.582  48.194  1.00  0.00    -0.032 C 
HETATM   27  C21 UNL     1      23.025   6.282  47.868  1.00  0.00     0.162 C 
HETATM   28  O2  UNL     1      19.895   7.112  50.262  1.00  0.00    -0.253 OA
ENDROOT
BRANCH  20  29
HETATM   29  C16 UNL     1      22.225  -1.336  54.900  1.00  0.00     0.269 C 
HETATM   30  N6  UNL     1      23.260  -1.798  55.744  1.00  0.00    -0.365 N 
HETATM   31  H20 UNL     1      22.896  -2.061  56.686  1.00  0.00     0.159 HD
HETATM   32  H21 UNL     1      24.233  -1.830  55.370  1.00  0.00     0.159 HD
HETATM   33  O1  UNL     1      21.103  -1.940  54.777  1.00  0.00    -0.266 OA
ENDBRANCH  20  29
BRANCH  11  34
HETATM   34  P1  UNL     1      22.658   2.096  47.105  1.00  0.00    -0.132 P 
HETATM   35  H13 UNL     1      21.485   1.328  47.538  1.00  0.00     0.055 HD
HETATM   36  H14 UNL     1      22.200   2.934  46.011  1.00  0.00     0.055 HD
ENDBRANCH  11  34
TORSDOF 2
ENDMDL
MODEL 7
REMARK VINA RESULT:      -6.9      5.664     11.323
REMARK  2 active torsions:
REMARK  status: ('A' for Active; 'I' for Inactive)
REMARK    1  A    between atoms: C8_11  and  P1_12 
REMARK    2  A    between atoms: C15_21  and  C16_22 
REMARK       I    between atoms: C16_22  and  N6_23 
ROOT
HETATM    1  C1  UNL     1      34.473   9.477  45.200  1.00  0.00     0.178 C 
HETATM    2  N1  UNL     1      33.172   9.196  45.670  1.00  0.00    -0.294 N 
HETATM    3  C2  UNL     1      32.308   8.416  44.878  1.00  0.00     0.169 C 
HETATM    4  C3  UNL     1      31.882   9.181  43.646  1.00  0.00     0.145 C 
HETATM    5  N2  UNL     1      31.112  10.366  43.908  1.00  0.00    -0.370 N 
HETATM    6  C4  UNL     1      29.719  10.063  43.578  1.00  0.00     0.204 C 
HETATM    7  N3  UNL     1      29.601   9.772  44.847  1.00  0.00    -0.256 NA
HETATM    8  C5  UNL     1      28.454   9.331  45.509  1.00  0.00     0.122 C 
HETATM    9  C6  UNL     1      27.572   9.864  46.379  1.00  0.00    -0.042 C 
HETATM   10  C7  UNL     1      27.763  11.236  46.813  1.00  0.00     0.051 C 
HETATM   11  C8  UNL     1      28.799  12.088  46.249  1.00  0.00     0.048 C 
HETATM   12  C9  UNL     1      30.146  11.767  46.772  1.00  0.00    -0.027 C 
HETATM   13  C10 UNL     1      30.862  11.552  47.864  1.00  0.00     0.098 C 
HETATM   14  N4  UNL     1      31.455  10.270  48.197  1.00  0.00    -0.340 N 
HETATM   15  C11 UNL     1      30.931   9.176  48.981  1.00  0.00     0.275 C 
HETATM   16  N5  UNL     1      29.557   9.389  49.344  1.00  0.00    -0.280 NA
HETATM   17  C12 UNL     1      28.559   8.654  49.018  1.00  0.00     0.143 C 
HETATM   18  C13 UNL     1      27.125   8.447  49.110  1.00  0.00     0.072 A 
HETATM   19  C14 UNL     1      26.437   8.072  50.229  1.00  0.00     0.072 A 
HETATM   20  C15 UNL     1      25.107   8.026  49.866  1.00  0.00     0.146 A 
HETATM   21  N7  UNL     1      25.115   8.365  48.602  1.00  0.00    -0.166 NA
HETATM   22  N8  UNL     1      26.311   8.627  48.104  1.00  0.00    -0.264 N 
HETATM   23  C17 UNL     1      26.436   8.981  46.736  1.00  0.00     0.187 C 
HETATM   24  C18 UNL     1      32.710  10.418  47.506  1.00  0.00     0.278 C 
HETATM   25  C19 UNL     1      32.589  11.417  46.407  1.00  0.00     0.038 C 
HETATM   26  C20 UNL     1      31.380  11.643  45.942  1.00  0.00    -0.032 C 
HETATM   27  C21 UNL     1      31.237  11.721  44.460  1.00  0.00     0.162 C 
HETATM   28  O2  UNL     1      33.076   9.172  46.978  1.00  0.00    -0.253 OA
ENDROOT
BRANCH  20  29
HETATM   29  C16 UNL     1      24.045   7.665  50.781  1.00  0.00     0.269 C 
HETATM   30  N6  UNL     1      24.256   6.938  51.974  1.00  0.00    -0.365 N 
HETATM   31  H20 UNL     1      23.752   7.370  52.779  1.00  0.00     0.159 HD
HETATM   32  H21 UNL     1      24.860   6.087  51.941  1.00  0.00     0.159 HD
HETATM   33  O1  UNL     1      22.889   8.065  50.403  1.00  0.00    -0.266 OA
ENDBRANCH  20  29
BRANCH  11  34
HETATM   34  P1  UNL     1      28.505  13.848  46.961  1.00  0.00    -0.132 P 
HETATM   35  H13 UNL     1      28.773  14.775  45.856  1.00  0.00     0.055 HD
HETATM   36  H14 UNL     1      27.076  13.926  47.205  1.00  0.00     0.055 HD
ENDBRANCH  11  34
TORSDOF 2
ENDMDL
MODEL 8
REMARK VINA RESULT:      -6.9      3.742      6.109
REMARK  2 active torsions:
REMARK  status: ('A' for Active; 'I' for Inactive)
REMARK    1  A    between atoms: C8_11  and  P1_12 
REMARK    2  A    between atoms: C15_21  and  C16_22 
REMARK       I    between atoms: C16_22  and  N6_23 
ROOT
HETATM    1  C1  UNL     1      20.520   0.478  53.725  1.00  0.00     0.178 C 
HETATM    2  N1  UNL     1      20.611   0.856  52.367  1.00  0.00    -0.294 N 
HETATM    3  C2  UNL     1      21.634   0.310  51.569  1.00  0.00     0.169 C 
HETATM    4  C3  UNL     1      22.980   0.855  51.987  1.00  0.00     0.145 C 
HETATM    5  N2  UNL     1      23.139   2.272  51.808  1.00  0.00    -0.370 N 
HETATM    6  C4  UNL     1      23.994   2.471  50.636  1.00  0.00     0.204 C 
HETATM    7  N3  UNL     1      22.870   2.568  49.975  1.00  0.00    -0.256 NA
HETATM    8  C5  UNL     1      22.713   2.789  48.607  1.00  0.00     0.122 C 
HETATM    9  C6  UNL     1      22.322   3.821  47.830  1.00  0.00    -0.042 C 
HETATM   10  C7  UNL     1      21.941   5.068  48.468  1.00  0.00     0.051 C 
HETATM   11  C8  UNL     1      22.083   5.279  49.900  1.00  0.00     0.048 C 
HETATM   12  C9  UNL     1      21.030   4.593  50.682  1.00  0.00    -0.027 C 
HETATM   13  C10 UNL     1      19.729   4.387  50.801  1.00  0.00     0.098 C 
HETATM   14  N4  UNL     1      19.096   3.098  50.590  1.00  0.00    -0.340 N 
HETATM   15  C11 UNL     1      18.526   2.526  49.392  1.00  0.00     0.275 C 
HETATM   16  N5  UNL     1      18.778   3.343  48.238  1.00  0.00    -0.280 NA
HETATM   17  C12 UNL     1      19.436   3.003  47.192  1.00  0.00     0.143 C 
HETATM   18  C13 UNL     1      19.931   3.406  45.887  1.00  0.00     0.072 A 
HETATM   19  C14 UNL     1      19.173   3.617  44.771  1.00  0.00     0.072 A 
HETATM   20  C15 UNL     1      20.049   4.010  43.780  1.00  0.00     0.146 A 
HETATM   21  N7  UNL     1      21.216   3.999  44.370  1.00  0.00    -0.166 NA
HETATM   22  N8  UNL     1      21.192   3.640  45.642  1.00  0.00    -0.264 N 
HETATM   23  C17 UNL     1      22.407   3.571  46.372  1.00  0.00     0.187 C 
HETATM   24  C18 UNL     1      19.216   2.568  51.924  1.00  0.00     0.278 C 
HETATM   25  C19 UNL     1      20.330   3.234  52.654  1.00  0.00     0.038 C 
HETATM   26  C20 UNL     1      21.267   3.795  51.922  1.00  0.00    -0.032 C 
HETATM   27  C21 UNL     1      22.678   3.559  52.343  1.00  0.00     0.162 C 
HETATM   28  O2  UNL     1      19.460   1.191  51.833  1.00  0.00    -0.253 OA
ENDROOT
BRANCH  20  29
HETATM   29  C16 UNL     1      19.631   4.330  42.430  1.00  0.00     0.269 C 
HETATM   30  N6  UNL     1      20.395   4.020  41.283  1.00  0.00    -0.365 N 
HETATM   31  H20 UNL     1      19.805   3.591  40.536  1.00  0.00     0.159 HD
HETATM   32  H21 UNL     1      21.416   4.236  41.288  1.00  0.00     0.159 HD
HETATM   33  O1  UNL     1      18.500   4.927  42.375  1.00  0.00    -0.266 OA
ENDBRANCH  20  29
BRANCH  11  34
HETATM   34  P1  UNL     1      21.676   7.128  50.223  1.00  0.00    -0.132 P 
HETATM   35  H13 UNL     1      21.398   7.231  51.659  1.00  0.00     0.055 HD
HETATM   36  H14 UNL     1      22.926   7.836  50.009  1.00  0.00     0.055 HD
ENDBRANCH  11  34
TORSDOF 2
ENDMDL
MODEL 9
REMARK VINA RESULT:      -6.8     26.848     28.496
REMARK  2 active torsions:
REMARK  status: ('A' for Active; 'I' for Inactive)
REMARK    1  A    between atoms: C8_11  and  P1_12 
REMARK    2  A    between atoms: C15_21  and  C16_22 
REMARK       I    between atoms: C16_22  and  N6_23 
ROOT
HETATM    1  C1  UNL     1      41.508  -5.115  73.031  1.00  0.00     0.178 C 
HETATM    2  N1  UNL     1      41.789  -3.846  72.479  1.00  0.00    -0.294 N 
HETATM    3  C2  UNL     1      41.492  -2.690  73.225  1.00  0.00     0.169 C 
HETATM    4  C3  UNL     1      39.996  -2.500  73.333  1.00  0.00     0.145 C 
HETATM    5  N2  UNL     1      39.325  -2.270  72.083  1.00  0.00    -0.370 N 
HETATM    6  C4  UNL     1      38.988  -0.847  72.024  1.00  0.00     0.204 C 
HETATM    7  N3  UNL     1      40.118  -0.723  71.377  1.00  0.00    -0.256 NA
HETATM    8  C5  UNL     1      40.673   0.451  70.867  1.00  0.00     0.122 C 
HETATM    9  C6  UNL     1      40.846   0.988  69.643  1.00  0.00    -0.042 C 
HETATM   10  C7  UNL     1      40.378   0.250  68.484  1.00  0.00     0.051 C 
HETATM   11  C8  UNL     1      39.624  -0.988  68.610  1.00  0.00     0.048 C 
HETATM   12  C9  UNL     1      40.482  -2.143  68.962  1.00  0.00    -0.027 C 
HETATM   13  C10 UNL     1      41.590  -2.801  68.662  1.00  0.00     0.098 C 
HETATM   14  N4  UNL     1      42.743  -2.877  69.540  1.00  0.00    -0.340 N 
HETATM   15  C11 UNL     1      43.912  -2.032  69.617  1.00  0.00     0.275 C 
HETATM   16  N5  UNL     1      43.796  -0.880  68.767  1.00  0.00    -0.280 NA
HETATM   17  C12 UNL     1      43.803   0.347  69.140  1.00  0.00     0.143 C 
HETATM   18  C13 UNL     1      43.722   1.738  68.731  1.00  0.00     0.072 A 
HETATM   19  C14 UNL     1      44.678   2.429  68.043  1.00  0.00     0.072 A 
HETATM   20  C15 UNL     1      44.171   3.698  67.848  1.00  0.00     0.146 A 
HETATM   21  N7  UNL     1      42.995   3.656  68.421  1.00  0.00    -0.166 NA
HETATM   22  N8  UNL     1      42.683   2.493  68.967  1.00  0.00    -0.264 N 
HETATM   23  C17 UNL     1      41.440   2.346  69.636  1.00  0.00     0.187 C 
HETATM   24  C18 UNL     1      42.364  -4.034  70.308  1.00  0.00     0.278 C 
HETATM   25  C19 UNL     1      40.887  -4.225  70.275  1.00  0.00     0.038 C 
HETATM   26  C20 UNL     1      40.158  -3.166  69.999  1.00  0.00    -0.032 C 
HETATM   27  C21 UNL     1      38.945  -2.950  70.839  1.00  0.00     0.162 C 
HETATM   28  O2  UNL     1      42.790  -3.849  71.631  1.00  0.00    -0.253 OA
ENDROOT
BRANCH  20  29
HETATM   29  C16 UNL     1      44.890   4.744  67.151  1.00  0.00     0.269 C 
HETATM   30  N6  UNL     1      45.932   5.497  67.735  1.00  0.00    -0.365 N 
HETATM   31  H20 UNL     1      46.753   5.574  67.096  1.00  0.00     0.159 HD
HETATM   32  H21 UNL     1      45.792   5.884  68.695  1.00  0.00     0.159 HD
HETATM   33  O1  UNL     1      44.487   4.924  65.949  1.00  0.00    -0.266 OA
ENDBRANCH  20  29
BRANCH  11  34
HETATM   34  P1  UNL     1      39.039  -1.454  66.840  1.00  0.00    -0.132 P 
HETATM   35  H13 UNL     1      39.892  -0.689  65.925  1.00  0.00     0.055 HD
HETATM   36  H14 UNL     1      39.420  -2.844  66.667  1.00  0.00     0.055 HD
ENDBRANCH  11  34
TORSDOF 2
ENDMDL
