MODEL 1
REMARK VINA RESULT:      -7.4      0.000      0.000
REMARK  9 active torsions:
REMARK  status: ('A' for Active; 'I' for Inactive)
REMARK    1  A    between atoms: O1_2  and  C2_3 
REMARK    2  A    between atoms: C2_3  and  C3_4 
REMARK    3  A    between atoms: C6_7  and  N1_8 
REMARK    4  A    between atoms: C6_7  and  N3_11 
REMARK    5  A    between atoms: N1_8  and  C7_9 
REMARK    6  A    between atoms: C7_9  and  N2_10 
REMARK    7  A    between atoms: N3_11  and  C8_12 
REMARK    8  A    between atoms: C14_20  and  O2_21 
REMARK    9  A    between atoms: O2_21  and  C15_22 
ROOT
HETATM    1  C3  UNL     1      20.261   0.208  52.243  1.00  0.00    -0.055 C 
HETATM    2  C4  UNL     1      21.380  -0.132  52.663  1.00  0.00     0.022 C 
HETATM    3  C5  UNL     1      22.737  -0.318  52.969  1.00  0.00     0.039 C 
HETATM    4  C6  UNL     1      24.052  -0.497  53.261  1.00  0.00     0.142 C 
HETATM    5  C14 UNL     1      22.821   0.771  51.985  1.00  0.00     0.061 C 
HETATM    6  C18 UNL     1      21.904   1.623  51.100  1.00  0.00     0.070 C 
HETATM    7  C19 UNL     1      20.447   1.402  51.381  1.00  0.00     0.043 C 
ENDROOT
BRANCH   4   8
HETATM    8  N1  UNL     1      24.628  -0.777  54.352  1.00  0.00    -0.224 NA
BRANCH   8   9
HETATM    9  C7  UNL     1      24.002  -1.326  55.508  1.00  0.00     0.225 C 
BRANCH   9  10
HETATM   10  N2  UNL     1      25.196  -1.312  56.079  1.00  0.00    -0.293 NA
HETATM   11  H8  UNL     1      25.344  -0.649  56.877  1.00  0.00     0.187 HD
ENDBRANCH   9  10
ENDBRANCH   8   9
ENDBRANCH   4   8
BRANCH   4  12
HETATM   12  N3  UNL     1      25.170  -0.643  52.357  1.00  0.00    -0.340 N 
HETATM   13  H9  UNL     1      25.263  -0.820  51.364  1.00  0.00     0.167 HD
BRANCH  12  14
HETATM   14  C8  UNL     1      26.545  -0.628  52.830  1.00  0.00     0.035 A 
HETATM   15  C9  UNL     1      27.173  -1.879  52.673  1.00  0.00     0.032 A 
HETATM   16  C10 UNL     1      28.485  -2.086  53.112  1.00  0.00     0.046 A 
HETATM   17  C11 UNL     1      29.062  -0.972  53.687  1.00  0.00     0.138 A 
HETATM   18  F1  UNL     1      30.365  -1.128  54.126  1.00  0.00    -0.204 F 
HETATM   19  C12 UNL     1      28.497   0.250  53.855  1.00  0.00     0.074 A 
HETATM   20 CL1  UNL     1      29.325   1.603  54.610  1.00  0.00    -0.081 Cl
HETATM   21  C13 UNL     1      27.212   0.416  53.413  1.00  0.00     0.056 A 
ENDBRANCH  12  14
ENDBRANCH   4  12
BRANCH   5  22
HETATM   22  O2  UNL     1      24.064   1.340  51.613  1.00  0.00    -0.350 OA
BRANCH  22  23
HETATM   23  C15 UNL     1      24.505   2.622  51.633  1.00  0.00     0.120 C 
HETATM   24  C16 UNL     1      24.642   3.181  53.055  1.00  0.00     0.040 C 
HETATM   25  C17 UNL     1      25.929   2.793  51.040  1.00  0.00     0.040 C 
ENDBRANCH  22  23
ENDBRANCH   5  22
BRANCH   1  26
HETATM   26  C2  UNL     1      18.904  -0.279  52.514  1.00  0.00     0.201 C 
BRANCH  26  27
HETATM   27  O1  UNL     1      18.849  -1.311  53.480  1.00  0.00    -0.392 OA
HETATM   28  C1  UNL     1      17.553  -1.834  53.373  1.00  0.00     0.201 C 
ENDBRANCH  26  27
ENDBRANCH   1  26
TORSDOF 9
ENDMDL
MODEL 2
REMARK VINA RESULT:      -7.4      3.993      6.730
REMARK  9 active torsions:
REMARK  status: ('A' for Active; 'I' for Inactive)
REMARK    1  A    between atoms: O1_2  and  C2_3 
REMARK    2  A    between atoms: C2_3  and  C3_4 
REMARK    3  A    between atoms: C6_7  and  N1_8 
REMARK    4  A    between atoms: C6_7  and  N3_11 
REMARK    5  A    between atoms: N1_8  and  C7_9 
REMARK    6  A    between atoms: C7_9  and  N2_10 
REMARK    7  A    between atoms: N3_11  and  C8_12 
REMARK    8  A    between atoms: C14_20  and  O2_21 
REMARK    9  A    between atoms: O2_21  and  C15_22 
ROOT
HETATM    1  C3  UNL     1      25.783   0.600  54.062  1.00  0.00    -0.055 C 
HETATM    2  C4  UNL     1      25.298   1.625  53.554  1.00  0.00     0.022 C 
HETATM    3  C5  UNL     1      24.617   2.606  52.817  1.00  0.00     0.039 C 
HETATM    4  C6  UNL     1      23.958   3.554  52.099  1.00  0.00     0.142 C 
HETATM    5  C14 UNL     1      24.135   1.382  52.162  1.00  0.00     0.061 C 
HETATM    6  C18 UNL     1      24.311  -0.139  52.246  1.00  0.00     0.070 C 
HETATM    7  C19 UNL     1      25.120  -0.570  53.433  1.00  0.00     0.043 C 
ENDROOT
BRANCH   4   8
HETATM    8  N1  UNL     1      23.443   4.652  52.454  1.00  0.00    -0.224 NA
BRANCH   8   9
HETATM    9  C7  UNL     1      22.065   5.000  52.349  1.00  0.00     0.225 C 
BRANCH   9  10
HETATM   10  N2  UNL     1      22.464   6.175  51.889  1.00  0.00    -0.293 NA
HETATM   11  H8  UNL     1      21.887   7.014  52.135  1.00  0.00     0.187 HD
ENDBRANCH   9  10
ENDBRANCH   8   9
ENDBRANCH   4   8
BRANCH   4  12
HETATM   12  N3  UNL     1      23.849   3.691  50.664  1.00  0.00    -0.340 N 
HETATM   13  H9  UNL     1      23.197   3.355  49.965  1.00  0.00     0.167 HD
BRANCH  12  14
HETATM   14  C8  UNL     1      24.860   4.383  49.881  1.00  0.00     0.035 A 
HETATM   15  C9  UNL     1      26.059   3.650  49.798  1.00  0.00     0.032 A 
HETATM   16  C10 UNL     1      27.174   4.165  49.128  1.00  0.00     0.046 A 
HETATM   17  C11 UNL     1      26.967   5.417  48.585  1.00  0.00     0.138 A 
HETATM   18  F1  UNL     1      28.041   5.962  47.903  1.00  0.00    -0.204 F 
HETATM   19  C12 UNL     1      25.831   6.156  48.639  1.00  0.00     0.074 A 
HETATM   20 CL1  UNL     1      25.679   7.750  47.914  1.00  0.00    -0.081 Cl
HETATM   21  C13 UNL     1      24.760   5.620  49.302  1.00  0.00     0.056 A 
ENDBRANCH  12  14
ENDBRANCH   4  12
BRANCH   5  22
HETATM   22  O2  UNL     1      23.207   1.429  51.092  1.00  0.00    -0.350 OA
BRANCH  22  23
HETATM   23  C15 UNL     1      22.015   0.809  50.911  1.00  0.00     0.120 C 
HETATM   24  C16 UNL     1      20.902   1.392  51.790  1.00  0.00     0.040 C 
HETATM   25  C17 UNL     1      21.454   0.960  49.471  1.00  0.00     0.040 C 
ENDBRANCH  22  23
ENDBRANCH   5  22
BRANCH   1  26
HETATM   26  C2  UNL     1      26.747   0.384  55.146  1.00  0.00     0.201 C 
BRANCH  26  27
HETATM   27  O1  UNL     1      28.028   0.926  54.889  1.00  0.00    -0.392 OA
HETATM   28  C1  UNL     1      28.774  -0.144  54.374  1.00  0.00     0.201 C 
ENDBRANCH  26  27
ENDBRANCH   1  26
TORSDOF 9
ENDMDL
MODEL 3
REMARK VINA RESULT:      -7.3      4.269      7.197
REMARK  9 active torsions:
REMARK  status: ('A' for Active; 'I' for Inactive)
REMARK    1  A    between atoms: O1_2  and  C2_3 
REMARK    2  A    between atoms: C2_3  and  C3_4 
REMARK    3  A    between atoms: C6_7  and  N1_8 
REMARK    4  A    between atoms: C6_7  and  N3_11 
REMARK    5  A    between atoms: N1_8  and  C7_9 
REMARK    6  A    between atoms: C7_9  and  N2_10 
REMARK    7  A    between atoms: N3_11  and  C8_12 
REMARK    8  A    between atoms: C14_20  and  O2_21 
REMARK    9  A    between atoms: O2_21  and  C15_22 
ROOT
HETATM    1  C3  UNL     1      26.269  -0.088  52.877  1.00  0.00    -0.055 C 
HETATM    2  C4  UNL     1      25.625   0.931  52.575  1.00  0.00     0.022 C 
HETATM    3  C5  UNL     1      24.679   1.936  52.322  1.00  0.00     0.039 C 
HETATM    4  C6  UNL     1      23.760   2.906  52.075  1.00  0.00     0.142 C 
HETATM    5  C14 UNL     1      23.815   0.866  52.840  1.00  0.00     0.061 C 
HETATM    6  C18 UNL     1      23.915  -0.574  53.357  1.00  0.00     0.070 C 
HETATM    7  C19 UNL     1      25.331  -1.039  53.524  1.00  0.00     0.043 C 
ENDROOT
BRANCH   4   8
HETATM    8  N1  UNL     1      23.825   4.162  52.210  1.00  0.00    -0.224 NA
BRANCH   8   9
HETATM    9  C7  UNL     1      22.869   4.979  52.880  1.00  0.00     0.225 C 
BRANCH   9  10
HETATM   10  N2  UNL     1      23.879   5.474  53.578  1.00  0.00    -0.293 NA
HETATM   11  H8  UNL     1      23.711   6.356  54.118  1.00  0.00     0.187 HD
ENDBRANCH   9  10
ENDBRANCH   8   9
ENDBRANCH   4   8
BRANCH   4  12
HETATM   12  N3  UNL     1      22.505   2.807  51.366  1.00  0.00    -0.340 N 
HETATM   13  H9  UNL     1      21.557   2.563  51.629  1.00  0.00     0.167 HD
BRANCH  12  14
HETATM   14  C8  UNL     1      22.418   3.007  49.928  1.00  0.00     0.035 A 
HETATM   15  C9  UNL     1      22.247   1.793  49.235  1.00  0.00     0.032 A 
HETATM   16  C10 UNL     1      22.190   1.764  47.837  1.00  0.00     0.046 A 
HETATM   17  C11 UNL     1      22.315   3.005  47.250  1.00  0.00     0.138 A 
HETATM   18  F1  UNL     1      22.253   3.026  45.867  1.00  0.00    -0.204 F 
HETATM   19  C12 UNL     1      22.479   4.197  47.877  1.00  0.00     0.074 A 
HETATM   20 CL1  UNL     1      22.635   5.725  47.024  1.00  0.00    -0.081 Cl
HETATM   21  C13 UNL     1      22.529   4.188  49.245  1.00  0.00     0.056 A 
ENDBRANCH  12  14
ENDBRANCH   4  12
BRANCH   5  22
HETATM   22  O2  UNL     1      22.416   1.044  52.977  1.00  0.00    -0.350 OA
BRANCH  22  23
HETATM   23  C15 UNL     1      21.417   0.156  53.210  1.00  0.00     0.120 C 
HETATM   24  C16 UNL     1      20.704   0.403  54.545  1.00  0.00     0.040 C 
HETATM   25  C17 UNL     1      20.270   0.232  52.168  1.00  0.00     0.040 C 
ENDBRANCH  22  23
ENDBRANCH   5  22
BRANCH   1  26
HETATM   26  C2  UNL     1      27.693  -0.431  52.788  1.00  0.00     0.201 C 
BRANCH  26  27
HETATM   27  O1  UNL     1      28.225  -0.977  53.979  1.00  0.00    -0.392 OA
HETATM   28  C1  UNL     1      28.629   0.133  54.734  1.00  0.00     0.201 C 
ENDBRANCH  26  27
ENDBRANCH   1  26
TORSDOF 9
ENDMDL
MODEL 4
REMARK VINA RESULT:      -7.0      3.384      5.216
REMARK  9 active torsions:
REMARK  status: ('A' for Active; 'I' for Inactive)
REMARK    1  A    between atoms: O1_2  and  C2_3 
REMARK    2  A    between atoms: C2_3  and  C3_4 
REMARK    3  A    between atoms: C6_7  and  N1_8 
REMARK    4  A    between atoms: C6_7  and  N3_11 
REMARK    5  A    between atoms: N1_8  and  C7_9 
REMARK    6  A    between atoms: C7_9  and  N2_10 
REMARK    7  A    between atoms: N3_11  and  C8_12 
REMARK    8  A    between atoms: C14_20  and  O2_21 
REMARK    9  A    between atoms: O2_21  and  C15_22 
ROOT
HETATM    1  C3  UNL     1      20.902  -0.806  53.565  1.00  0.00    -0.055 C 
HETATM    2  C4  UNL     1      21.368   0.008  52.750  1.00  0.00     0.022 C 
HETATM    3  C5  UNL     1      22.131   0.882  51.961  1.00  0.00     0.039 C 
HETATM    4  C6  UNL     1      22.873   1.730  51.202  1.00  0.00     0.142 C 
HETATM    5  C14 UNL     1      23.150   0.395  52.902  1.00  0.00     0.061 C 
HETATM    6  C18 UNL     1      23.279  -0.549  54.104  1.00  0.00     0.070 C 
HETATM    7  C19 UNL     1      22.034  -1.343  54.361  1.00  0.00     0.043 C 
ENDROOT
BRANCH   4   8
HETATM    8  N1  UNL     1      22.833   1.983  49.963  1.00  0.00    -0.224 NA
BRANCH   8   9
HETATM    9  C7  UNL     1      21.873   1.477  49.039  1.00  0.00     0.225 C 
BRANCH   9  10
HETATM   10  N2  UNL     1      22.520   2.149  48.101  1.00  0.00    -0.293 NA
HETATM   11  H8  UNL     1      22.336   1.890  47.103  1.00  0.00     0.187 HD
ENDBRANCH   9  10
ENDBRANCH   8   9
ENDBRANCH   4   8
BRANCH   4  12
HETATM   12  N3  UNL     1      23.785   2.768  51.627  1.00  0.00    -0.340 N 
HETATM   13  H9  UNL     1      24.006   3.199  52.517  1.00  0.00     0.167 HD
BRANCH  12  14
HETATM   14  C8  UNL     1      24.596   3.512  50.678  1.00  0.00     0.035 A 
HETATM   15  C9  UNL     1      25.868   2.934  50.501  1.00  0.00     0.032 A 
HETATM   16  C10 UNL     1      26.818   3.527  49.663  1.00  0.00     0.046 A 
HETATM   17  C11 UNL     1      26.382   4.689  49.061  1.00  0.00     0.138 A 
HETATM   18  F1  UNL     1      27.287   5.305  48.214  1.00  0.00    -0.204 F 
HETATM   19  C12 UNL     1      25.168   5.279  49.201  1.00  0.00     0.074 A 
HETATM   20 CL1  UNL     1      24.718   6.770  48.387  1.00  0.00    -0.081 Cl
HETATM   21  C13 UNL     1      24.262   4.670  50.027  1.00  0.00     0.056 A 
ENDBRANCH  12  14
ENDBRANCH   4  12
BRANCH   5  22
HETATM   22  O2  UNL     1      24.497   0.826  52.825  1.00  0.00    -0.350 OA
BRANCH  22  23
HETATM   23  C15 UNL     1      25.643   0.280  53.303  1.00  0.00     0.120 C 
HETATM   24  C16 UNL     1      26.522  -0.319  52.197  1.00  0.00     0.040 C 
HETATM   25  C17 UNL     1      26.579   1.312  53.987  1.00  0.00     0.040 C 
ENDBRANCH  22  23
ENDBRANCH   5  22
BRANCH   1  26
HETATM   26  C2  UNL     1      19.553  -1.340  53.783  1.00  0.00     0.201 C 
BRANCH  26  27
HETATM   27  O1  UNL     1      18.594  -0.865  52.857  1.00  0.00    -0.392 OA
HETATM   28  C1  UNL     1      17.430  -1.592  53.142  1.00  0.00     0.201 C 
ENDBRANCH  26  27
ENDBRANCH   1  26
TORSDOF 9
ENDMDL
MODEL 5
REMARK VINA RESULT:      -6.8      4.232      7.252
REMARK  9 active torsions:
REMARK  status: ('A' for Active; 'I' for Inactive)
REMARK    1  A    between atoms: O1_2  and  C2_3 
REMARK    2  A    between atoms: C2_3  and  C3_4 
REMARK    3  A    between atoms: C6_7  and  N1_8 
REMARK    4  A    between atoms: C6_7  and  N3_11 
REMARK    5  A    between atoms: N1_8  and  C7_9 
REMARK    6  A    between atoms: C7_9  and  N2_10 
REMARK    7  A    between atoms: N3_11  and  C8_12 
REMARK    8  A    between atoms: C14_20  and  O2_21 
REMARK    9  A    between atoms: O2_21  and  C15_22 
ROOT
HETATM    1  C3  UNL     1      25.608   5.482  48.924  1.00  0.00    -0.055 C 
HETATM    2  C4  UNL     1      24.780   4.843  49.594  1.00  0.00     0.022 C 
HETATM    3  C5  UNL     1      24.052   3.943  50.387  1.00  0.00     0.039 C 
HETATM    4  C6  UNL     1      23.349   3.067  51.154  1.00  0.00     0.142 C 
HETATM    5  C14 UNL     1      25.357   3.268  50.328  1.00  0.00     0.061 C 
HETATM    6  C18 UNL     1      26.747   3.459  49.709  1.00  0.00     0.070 C 
HETATM    7  C19 UNL     1      26.918   4.797  49.054  1.00  0.00     0.043 C 
ENDROOT
BRANCH   4   8
HETATM    8  N1  UNL     1      22.473   3.264  52.043  1.00  0.00    -0.224 NA
BRANCH   8   9
HETATM    9  C7  UNL     1      21.866   4.515  52.354  1.00  0.00     0.225 C 
BRANCH   9  10
HETATM   10  N2  UNL     1      20.741   4.015  51.868  1.00  0.00    -0.293 NA
HETATM   11  H8  UNL     1      20.748   3.678  50.876  1.00  0.00     0.187 HD
ENDBRANCH   9  10
ENDBRANCH   8   9
ENDBRANCH   4   8
BRANCH   4  12
HETATM   12  N3  UNL     1      23.233   1.633  51.017  1.00  0.00    -0.340 N 
HETATM   13  H9  UNL     1      23.538   0.957  50.326  1.00  0.00     0.167 HD
BRANCH  12  14
HETATM   14  C8  UNL     1      22.480   0.831  51.968  1.00  0.00     0.035 A 
HETATM   15  C9  UNL     1      23.302   0.301  52.981  1.00  0.00     0.032 A 
HETATM   16  C10 UNL     1      22.776  -0.540  53.968  1.00  0.00     0.046 A 
HETATM   17  C11 UNL     1      21.423  -0.775  53.836  1.00  0.00     0.138 A 
HETATM   18  F1  UNL     1      20.857  -1.594  54.798  1.00  0.00    -0.204 F 
HETATM   19  C12 UNL     1      20.595  -0.284  52.880  1.00  0.00     0.074 A 
HETATM   20 CL1  UNL     1      18.879  -0.656  52.802  1.00  0.00    -0.081 Cl
HETATM   21  C13 UNL     1      21.143   0.536  51.931  1.00  0.00     0.056 A 
ENDBRANCH  12  14
ENDBRANCH   4  12
BRANCH   5  22
HETATM   22  O2  UNL     1      25.588   2.041  50.997  1.00  0.00    -0.350 OA
BRANCH  22  23
HETATM   23  C15 UNL     1      26.629   1.614  51.754  1.00  0.00     0.120 C 
HETATM   24  C16 UNL     1      26.545   2.100  53.206  1.00  0.00     0.040 C 
HETATM   25  C17 UNL     1      26.697   0.070  51.893  1.00  0.00     0.040 C 
ENDBRANCH  22  23
ENDBRANCH   5  22
BRANCH   1  26
HETATM   26  C2  UNL     1      25.526   6.740  48.172  1.00  0.00     0.201 C 
BRANCH  26  27
HETATM   27  O1  UNL     1      25.916   7.877  48.916  1.00  0.00    -0.392 OA
HETATM   28  C1  UNL     1      26.937   8.469  48.159  1.00  0.00     0.201 C 
ENDBRANCH  26  27
ENDBRANCH   1  26
TORSDOF 9
ENDMDL
MODEL 6
REMARK VINA RESULT:      -6.7      8.075      9.968
REMARK  9 active torsions:
REMARK  status: ('A' for Active; 'I' for Inactive)
REMARK    1  A    between atoms: O1_2  and  C2_3 
REMARK    2  A    between atoms: C2_3  and  C3_4 
REMARK    3  A    between atoms: C6_7  and  N1_8 
REMARK    4  A    between atoms: C6_7  and  N3_11 
REMARK    5  A    between atoms: N1_8  and  C7_9 
REMARK    6  A    between atoms: C7_9  and  N2_10 
REMARK    7  A    between atoms: N3_11  and  C8_12 
REMARK    8  A    between atoms: C14_20  and  O2_21 
REMARK    9  A    between atoms: O2_21  and  C15_22 
ROOT
HETATM    1  C3  UNL     1      26.166   6.419  48.354  1.00  0.00    -0.055 C 
HETATM    2  C4  UNL     1      27.367   6.117  48.454  1.00  0.00     0.022 C 
HETATM    3  C5  UNL     1      28.766   6.008  48.424  1.00  0.00     0.039 C 
HETATM    4  C6  UNL     1      30.121   5.904  48.389  1.00  0.00     0.142 C 
HETATM    5  C14 UNL     1      28.567   7.247  47.659  1.00  0.00     0.061 C 
HETATM    6  C18 UNL     1      27.430   8.147  47.161  1.00  0.00     0.070 C 
HETATM    7  C19 UNL     1      26.089   7.750  47.703  1.00  0.00     0.043 C 
ENDROOT
BRANCH   4   8
HETATM    8  N1  UNL     1      30.943   5.501  49.262  1.00  0.00    -0.224 NA
BRANCH   8   9
HETATM    9  C7  UNL     1      31.807   6.327  50.037  1.00  0.00     0.225 C 
BRANCH   9  10
HETATM   10  N2  UNL     1      31.587   5.498  51.045  1.00  0.00    -0.293 NA
HETATM   11  H8  UNL     1      31.910   5.793  51.997  1.00  0.00     0.187 HD
ENDBRANCH   9  10
ENDBRANCH   8   9
ENDBRANCH   4   8
BRANCH   4  12
HETATM   12  N3  UNL     1      31.010   6.012  47.255  1.00  0.00    -0.340 N 
HETATM   13  H9  UNL     1      31.119   6.675  46.497  1.00  0.00     0.167 HD
BRANCH  12  14
HETATM   14  C8  UNL     1      31.988   4.980  46.947  1.00  0.00     0.035 A 
HETATM   15  C9  UNL     1      33.212   5.525  46.513  1.00  0.00     0.032 A 
HETATM   16  C10 UNL     1      34.270   4.697  46.122  1.00  0.00     0.046 A 
HETATM   17  C11 UNL     1      33.984   3.350  46.208  1.00  0.00     0.138 A 
HETATM   18  F1  UNL     1      35.006   2.492  45.840  1.00  0.00    -0.204 F 
HETATM   19  C12 UNL     1      32.822   2.784  46.622  1.00  0.00     0.074 A 
HETATM   20 CL1  UNL     1      32.563   1.047  46.687  1.00  0.00    -0.081 Cl
HETATM   21  C13 UNL     1      31.810   3.624  46.999  1.00  0.00     0.056 A 
ENDBRANCH  12  14
ENDBRANCH   4  12
BRANCH   5  22
HETATM   22  O2  UNL     1      29.662   7.982  47.139  1.00  0.00    -0.350 OA
BRANCH  22  23
HETATM   23  C15 UNL     1      30.132   9.220  47.431  1.00  0.00     0.120 C 
HETATM   24  C16 UNL     1      30.080   9.536  48.932  1.00  0.00     0.040 C 
HETATM   25  C17 UNL     1      31.631   9.409  47.074  1.00  0.00     0.040 C 
ENDBRANCH  22  23
ENDBRANCH   5  22
BRANCH   1  26
HETATM   26  C2  UNL     1      24.933   5.772  48.817  1.00  0.00     0.201 C 
BRANCH  26  27
HETATM   27  O1  UNL     1      24.044   6.647  49.484  1.00  0.00    -0.392 OA
HETATM   28  C1  UNL     1      24.434   6.595  50.830  1.00  0.00     0.201 C 
ENDBRANCH  26  27
ENDBRANCH   1  26
TORSDOF 9
ENDMDL
MODEL 7
REMARK VINA RESULT:      -6.4      4.461      7.276
REMARK  9 active torsions:
REMARK  status: ('A' for Active; 'I' for Inactive)
REMARK    1  A    between atoms: O1_2  and  C2_3 
REMARK    2  A    between atoms: C2_3  and  C3_4 
REMARK    3  A    between atoms: C6_7  and  N1_8 
REMARK    4  A    between atoms: C6_7  and  N3_11 
REMARK    5  A    between atoms: N1_8  and  C7_9 
REMARK    6  A    between atoms: C7_9  and  N2_10 
REMARK    7  A    between atoms: N3_11  and  C8_12 
REMARK    8  A    between atoms: C14_20  and  O2_21 
REMARK    9  A    between atoms: O2_21  and  C15_22 
ROOT
HETATM    1  C3  UNL     1      24.549   8.169  49.783  1.00  0.00    -0.055 C 
HETATM    2  C4  UNL     1      24.745   7.008  50.179  1.00  0.00     0.022 C 
HETATM    3  C5  UNL     1      24.699   5.702  50.690  1.00  0.00     0.039 C 
HETATM    4  C6  UNL     1      24.651   4.438  51.188  1.00  0.00     0.142 C 
HETATM    5  C14 UNL     1      23.305   6.125  50.884  1.00  0.00     0.061 C 
HETATM    6  C18 UNL     1      22.410   7.350  50.657  1.00  0.00     0.070 C 
HETATM    7  C19 UNL     1      23.092   8.439  49.884  1.00  0.00     0.043 C 
ENDROOT
BRANCH   4   8
HETATM    8  N1  UNL     1      25.231   3.378  50.815  1.00  0.00    -0.224 NA
BRANCH   8   9
HETATM    9  C7  UNL     1      26.253   3.291  49.826  1.00  0.00     0.225 C 
BRANCH   9  10
HETATM   10  N2  UNL     1      27.126   3.345  50.820  1.00  0.00    -0.293 NA
HETATM   11  H8  UNL     1      26.758   3.252  51.796  1.00  0.00     0.187 HD
ENDBRANCH   9  10
ENDBRANCH   8   9
ENDBRANCH   4   8
BRANCH   4  12
HETATM   12  N3  UNL     1      24.094   3.977  52.440  1.00  0.00    -0.340 N 
HETATM   13  H9  UNL     1      23.602   4.421  53.206  1.00  0.00     0.167 HD
BRANCH  12  14
HETATM   14  C8  UNL     1      24.245   2.601  52.885  1.00  0.00     0.035 A 
HETATM   15  C9  UNL     1      25.480   2.386  53.528  1.00  0.00     0.032 A 
HETATM   16  C10 UNL     1      25.839   1.114  53.988  1.00  0.00     0.046 A 
HETATM   17  C11 UNL     1      24.886   0.146  53.750  1.00  0.00     0.138 A 
HETATM   18  F1  UNL     1      25.196  -1.127  54.198  1.00  0.00    -0.204 F 
HETATM   19  C12 UNL     1      23.686   0.310  53.138  1.00  0.00     0.074 A 
HETATM   20 CL1  UNL     1      22.546  -1.002  52.880  1.00  0.00    -0.081 Cl
HETATM   21  C13 UNL     1      23.367   1.567  52.702  1.00  0.00     0.056 A 
ENDBRANCH  12  14
ENDBRANCH   4  12
BRANCH   5  22
HETATM   22  O2  UNL     1      22.337   5.256  51.445  1.00  0.00    -0.350 OA
BRANCH  22  23
HETATM   23  C15 UNL     1      21.141   4.822  50.975  1.00  0.00     0.120 C 
HETATM   24  C16 UNL     1      21.271   4.017  49.675  1.00  0.00     0.040 C 
HETATM   25  C17 UNL     1      20.422   3.839  51.938  1.00  0.00     0.040 C 
ENDBRANCH  22  23
ENDBRANCH   5  22
BRANCH   1  26
HETATM   26  C2  UNL     1      25.429   9.187  49.199  1.00  0.00     0.201 C 
BRANCH  26  27
HETATM   27  O1  UNL     1      26.252   9.841  50.145  1.00  0.00    -0.392 OA
HETATM   28  C1  UNL     1      27.550   9.394  49.861  1.00  0.00     0.201 C 
ENDBRANCH  26  27
ENDBRANCH   1  26
TORSDOF 9
ENDMDL
MODEL 8
REMARK VINA RESULT:      -6.2      4.570      7.448
REMARK  9 active torsions:
REMARK  status: ('A' for Active; 'I' for Inactive)
REMARK    1  A    between atoms: O1_2  and  C2_3 
REMARK    2  A    between atoms: C2_3  and  C3_4 
REMARK    3  A    between atoms: C6_7  and  N1_8 
REMARK    4  A    between atoms: C6_7  and  N3_11 
REMARK    5  A    between atoms: N1_8  and  C7_9 
REMARK    6  A    between atoms: C7_9  and  N2_10 
REMARK    7  A    between atoms: N3_11  and  C8_12 
REMARK    8  A    between atoms: C14_20  and  O2_21 
REMARK    9  A    between atoms: O2_21  and  C15_22 
ROOT
HETATM    1  C3  UNL     1      23.938   0.003  53.398  1.00  0.00    -0.055 C 
HETATM    2  C4  UNL     1      23.337   1.000  52.963  1.00  0.00     0.022 C 
HETATM    3  C5  UNL     1      22.439   1.961  52.476  1.00  0.00     0.039 C 
HETATM    4  C6  UNL     1      21.566   2.888  52.000  1.00  0.00     0.142 C 
HETATM    5  C14 UNL     1      21.551   0.798  52.621  1.00  0.00     0.061 C 
HETATM    6  C18 UNL     1      21.606  -0.671  53.058  1.00  0.00     0.070 C 
HETATM    7  C19 UNL     1      22.930  -1.057  53.649  1.00  0.00     0.043 C 
ENDROOT
BRANCH   4   8
HETATM    8  N1  UNL     1      21.474   4.129  52.222  1.00  0.00    -0.224 NA
BRANCH   8   9
HETATM    9  C7  UNL     1      22.565   5.028  52.396  1.00  0.00     0.225 C 
BRANCH   9  10
HETATM   10  N2  UNL     1      21.886   5.891  51.658  1.00  0.00    -0.293 NA
HETATM   11  H8  UNL     1      22.404   6.394  50.898  1.00  0.00     0.187 HD
ENDBRANCH   9  10
ENDBRANCH   8   9
ENDBRANCH   4   8
BRANCH   4  12
HETATM   12  N3  UNL     1      20.616   2.768  50.917  1.00  0.00    -0.340 N 
HETATM   13  H9  UNL     1      19.640   2.503  50.853  1.00  0.00     0.167 HD
BRANCH  12  14
HETATM   14  C8  UNL     1      21.005   2.974  49.531  1.00  0.00     0.035 A 
HETATM   15  C9  UNL     1      21.798   1.919  49.041  1.00  0.00     0.032 A 
HETATM   16  C10 UNL     1      22.315   1.950  47.741  1.00  0.00     0.046 A 
HETATM   17  C11 UNL     1      21.971   3.083  47.033  1.00  0.00     0.138 A 
HETATM   18  F1  UNL     1      22.453   3.152  45.737  1.00  0.00    -0.204 F 
HETATM   19  C12 UNL     1      21.210   4.120  47.464  1.00  0.00     0.074 A 
HETATM   20 CL1  UNL     1      20.839   5.523  46.474  1.00  0.00    -0.081 Cl
HETATM   21  C13 UNL     1      20.720   4.055  48.740  1.00  0.00     0.056 A 
ENDBRANCH  12  14
ENDBRANCH   4  12
BRANCH   5  22
HETATM   22  O2  UNL     1      20.172   0.874  52.306  1.00  0.00    -0.350 OA
BRANCH  22  23
HETATM   23  C15 UNL     1      19.302  -0.063  51.853  1.00  0.00     0.120 C 
HETATM   24  C16 UNL     1      18.293  -0.502  52.922  1.00  0.00     0.040 C 
HETATM   25  C17 UNL     1      18.403   0.441  50.693  1.00  0.00     0.040 C 
ENDBRANCH  22  23
ENDBRANCH   5  22
BRANCH   1  26
HETATM   26  C2  UNL     1      25.340  -0.240  53.757  1.00  0.00     0.201 C 
BRANCH  26  27
HETATM   27  O1  UNL     1      26.200   0.845  53.467  1.00  0.00    -0.392 OA
HETATM   28  C1  UNL     1      27.121   0.336  52.541  1.00  0.00     0.201 C 
ENDBRANCH  26  27
ENDBRANCH   1  26
TORSDOF 9
ENDMDL
MODEL 9
REMARK VINA RESULT:      -6.2      4.424      6.475
REMARK  9 active torsions:
REMARK  status: ('A' for Active; 'I' for Inactive)
REMARK    1  A    between atoms: O1_2  and  C2_3 
REMARK    2  A    between atoms: C2_3  and  C3_4 
REMARK    3  A    between atoms: C6_7  and  N1_8 
REMARK    4  A    between atoms: C6_7  and  N3_11 
REMARK    5  A    between atoms: N1_8  and  C7_9 
REMARK    6  A    between atoms: C7_9  and  N2_10 
REMARK    7  A    between atoms: N3_11  and  C8_12 
REMARK    8  A    between atoms: C14_20  and  O2_21 
REMARK    9  A    between atoms: O2_21  and  C15_22 
ROOT
HETATM    1  C3  UNL     1      20.551   0.152  52.399  1.00  0.00    -0.055 C 
HETATM    2  C4  UNL     1      21.185   0.836  51.578  1.00  0.00     0.022 C 
HETATM    3  C5  UNL     1      22.113   1.565  50.819  1.00  0.00     0.039 C 
HETATM    4  C6  UNL     1      23.014   2.273  50.088  1.00  0.00     0.142 C 
HETATM    5  C14 UNL     1      22.953   1.135  51.946  1.00  0.00     0.061 C 
HETATM    6  C18 UNL     1      22.843   0.334  53.249  1.00  0.00     0.070 C 
HETATM    7  C19 UNL     1      21.518  -0.351  53.406  1.00  0.00     0.043 C 
ENDROOT
BRANCH   4   8
HETATM    8  N1  UNL     1      23.165   2.380  48.837  1.00  0.00    -0.224 NA
BRANCH   8   9
HETATM    9  C7  UNL     1      22.227   1.970  47.846  1.00  0.00     0.225 C 
BRANCH   9  10
HETATM   10  N2  UNL     1      22.066   3.253  47.563  1.00  0.00    -0.293 NA
HETATM   11  H8  UNL     1      21.262   3.753  48.012  1.00  0.00     0.187 HD
ENDBRANCH   9  10
ENDBRANCH   8   9
ENDBRANCH   4   8
BRANCH   4  12
HETATM   12  N3  UNL     1      23.932   3.299  50.527  1.00  0.00    -0.340 N 
HETATM   13  H9  UNL     1      24.794   3.302  51.061  1.00  0.00     0.167 HD
BRANCH  12  14
HETATM   14  C8  UNL     1      23.674   4.711  50.291  1.00  0.00     0.035 A 
HETATM   15  C9  UNL     1      22.621   5.197  51.090  1.00  0.00     0.032 A 
HETATM   16  C10 UNL     1      22.185   6.522  50.977  1.00  0.00     0.046 A 
HETATM   17  C11 UNL     1      22.876   7.257  50.038  1.00  0.00     0.138 A 
HETATM   18  F1  UNL     1      22.485   8.578  49.900  1.00  0.00    -0.204 F 
HETATM   19  C12 UNL     1      23.896   6.831  49.251  1.00  0.00     0.074 A 
HETATM   20 CL1  UNL     1      24.705   7.858  48.076  1.00  0.00    -0.081 Cl
HETATM   21  C13 UNL     1      24.297   5.530  49.388  1.00  0.00     0.056 A 
ENDBRANCH  12  14
ENDBRANCH   4  12
BRANCH   5  22
HETATM   22  O2  UNL     1      24.326   1.475  52.020  1.00  0.00    -0.350 OA
BRANCH  22  23
HETATM   23  C15 UNL     1      25.335   0.974  52.776  1.00  0.00     0.120 C 
HETATM   24  C16 UNL     1      26.452   0.345  51.933  1.00  0.00     0.040 C 
HETATM   25  C17 UNL     1      26.075   2.054  53.609  1.00  0.00     0.040 C 
ENDBRANCH  22  23
ENDBRANCH   5  22
BRANCH   1  26
HETATM   26  C2  UNL     1      19.149  -0.273  52.474  1.00  0.00     0.201 C 
BRANCH  26  27
HETATM   27  O1  UNL     1      18.477  -0.246  51.229  1.00  0.00    -0.392 OA
HETATM   28  C1  UNL     1      17.132  -0.020  51.553  1.00  0.00     0.201 C 
ENDBRANCH  26  27
ENDBRANCH   1  26
TORSDOF 9
ENDMDL
