MODEL 1
REMARK VINA RESULT:      -8.0      0.000      0.000
REMARK  8 active torsions:
REMARK  status: ('A' for Active; 'I' for Inactive)
REMARK    1  A    between atoms: O1_2  and  C2_3 
REMARK    2  A    between atoms: C2_3  and  C3_4 
REMARK    3  A    between atoms: C3_4  and  O2_5 
REMARK    4  A    between atoms: O2_5  and  C4_6 
REMARK    5  A    between atoms: N1_9  and  C7_10 
REMARK    6  A    between atoms: C7_10  and  C8_11 
REMARK    7  A    between atoms: C8_11  and  N2_12 
REMARK    8  A    between atoms: N2_12  and  C9_13 
ROOT
HETATM    1  C4  UNL     1      26.349   1.910  51.916  1.00  0.00     0.106 A 
HETATM    2  C5  UNL     1      25.073   1.573  51.827  1.00  0.00     0.066 A 
HETATM    3  C6  UNL     1      24.496   0.561  52.702  1.00  0.00     0.037 A 
HETATM    4  N1  UNL     1      23.248   0.278  52.566  1.00  0.00    -0.292 NA
HETATM    5  C15 UNL     1      25.318  -0.137  53.730  1.00  0.00     0.126 A 
HETATM    6  C16 UNL     1      26.721   0.353  53.700  1.00  0.00     0.088 A 
HETATM    7  C17 UNL     1      27.252   1.281  52.900  1.00  0.00     0.131 A 
HETATM    8  O3  UNL     1      28.595   1.604  53.026  1.00  0.00    -0.344 OA
HETATM    9  C18 UNL     1      29.204   1.328  54.298  1.00  0.00     0.202 C 
HETATM   10  C19 UNL     1      28.951  -0.131  54.580  1.00  0.00     0.202 C 
HETATM   11  O4  UNL     1      27.524  -0.277  54.652  1.00  0.00    -0.350 OA
ENDROOT
BRANCH   4  12
HETATM   12  C7  UNL     1      22.646  -0.723  53.419  1.00  0.00     0.168 C 
BRANCH  12  13
HETATM   13  C8  UNL     1      21.470  -0.116  54.172  1.00  0.00     0.141 C 
BRANCH  13  14
HETATM   14  N2  UNL     1      20.393  -1.051  54.329  1.00  0.00    -0.388 N 
HETATM   15  H13 UNL     1      20.472  -1.752  55.106  1.00  0.00     0.159 HD
BRANCH  14  16
HETATM   16  C9  UNL     1      19.226  -1.101  53.513  1.00  0.00     0.029 A 
HETATM   17  C10 UNL     1      18.968  -0.146  52.553  1.00  0.00     0.032 A 
HETATM   18  C11 UNL     1      17.839  -0.190  51.761  1.00  0.00     0.046 A 
HETATM   19  C12 UNL     1      16.926  -1.230  51.933  1.00  0.00     0.138 A 
HETATM   20  F1  UNL     1      15.816  -1.238  51.126  1.00  0.00    -0.204 F 
HETATM   21  C13 UNL     1      17.142  -2.222  52.894  1.00  0.00     0.074 A 
HETATM   22 CL1  UNL     1      15.988  -3.498  53.081  1.00  0.00    -0.081 Cl
HETATM   23  C14 UNL     1      18.299  -2.108  53.649  1.00  0.00     0.056 A 
ENDBRANCH  14  16
ENDBRANCH  13  14
ENDBRANCH  12  13
ENDBRANCH   4  12
BRANCH   1  24
HETATM   24  O2  UNL     1      26.982   2.875  51.111  1.00  0.00    -0.346 OA
BRANCH  24  25
HETATM   25  C3  UNL     1      26.406   3.139  49.830  1.00  0.00     0.201 C 
BRANCH  25  26
HETATM   26  C2  UNL     1      26.792   4.522  49.399  1.00  0.00     0.193 C 
BRANCH  26  27
HETATM   27  O1  UNL     1      27.908   4.539  48.583  1.00  0.00    -0.394 OA
HETATM   28  C1  UNL     1      28.317   5.814  48.207  1.00  0.00     0.201 C 
ENDBRANCH  26  27
ENDBRANCH  25  26
ENDBRANCH  24  25
ENDBRANCH   1  24
TORSDOF 8
ENDMDL
MODEL 2
REMARK VINA RESULT:      -8.0      1.437      1.757
REMARK  8 active torsions:
REMARK  status: ('A' for Active; 'I' for Inactive)
REMARK    1  A    between atoms: O1_2  and  C2_3 
REMARK    2  A    between atoms: C2_3  and  C3_4 
REMARK    3  A    between atoms: C3_4  and  O2_5 
REMARK    4  A    between atoms: O2_5  and  C4_6 
REMARK    5  A    between atoms: N1_9  and  C7_10 
REMARK    6  A    between atoms: C7_10  and  C8_11 
REMARK    7  A    between atoms: C8_11  and  N2_12 
REMARK    8  A    between atoms: N2_12  and  C9_13 
ROOT
HETATM    1  C4  UNL     1      26.344   1.886  51.949  1.00  0.00     0.106 A 
HETATM    2  C5  UNL     1      25.059   1.571  51.925  1.00  0.00     0.066 A 
HETATM    3  C6  UNL     1      24.507   0.585  52.845  1.00  0.00     0.037 A 
HETATM    4  N1  UNL     1      23.249   0.321  52.772  1.00  0.00    -0.292 NA
HETATM    5  C15 UNL     1      25.364  -0.109  53.847  1.00  0.00     0.126 A 
HETATM    6  C16 UNL     1      26.772   0.356  53.743  1.00  0.00     0.088 A 
HETATM    7  C17 UNL     1      27.281   1.260  52.902  1.00  0.00     0.131 A 
HETATM    8  O3  UNL     1      28.633   1.561  52.959  1.00  0.00    -0.344 OA
HETATM    9  C18 UNL     1      29.296   1.297  54.206  1.00  0.00     0.202 C 
HETATM   10  C19 UNL     1      29.032  -0.152  54.527  1.00  0.00     0.202 C 
HETATM   11  O4  UNL     1      27.608  -0.272  54.668  1.00  0.00    -0.350 OA
ENDROOT
BRANCH   4  12
HETATM   12  C7  UNL     1      22.670  -0.653  53.671  1.00  0.00     0.168 C 
BRANCH  12  13
HETATM   13  C8  UNL     1      21.463  -0.050  54.375  1.00  0.00     0.141 C 
BRANCH  13  14
HETATM   14  N2  UNL     1      20.302  -0.885  54.260  1.00  0.00    -0.388 N 
HETATM   15  H13 UNL     1      20.199  -1.666  54.954  1.00  0.00     0.159 HD
BRANCH  14  16
HETATM   16  C9  UNL     1      19.280  -0.736  53.279  1.00  0.00     0.029 A 
HETATM   17  C10 UNL     1      18.066  -1.380  53.389  1.00  0.00     0.032 A 
HETATM   18  C11 UNL     1      17.073  -1.240  52.442  1.00  0.00     0.046 A 
HETATM   19  C12 UNL     1      17.299  -0.423  51.335  1.00  0.00     0.138 A 
HETATM   20  F1  UNL     1      16.287  -0.309  50.415  1.00  0.00    -0.204 F 
HETATM   21  C13 UNL     1      18.514   0.251  51.177  1.00  0.00     0.074 A 
HETATM   22 CL1  UNL     1      18.760   1.257  49.790  1.00  0.00    -0.081 Cl
HETATM   23  C14 UNL     1      19.460   0.059  52.171  1.00  0.00     0.056 A 
ENDBRANCH  14  16
ENDBRANCH  13  14
ENDBRANCH  12  13
ENDBRANCH   4  12
BRANCH   1  24
HETATM   24  O2  UNL     1      26.955   2.825  51.097  1.00  0.00    -0.346 OA
BRANCH  24  25
HETATM   25  C3  UNL     1      26.338   3.058  49.829  1.00  0.00     0.201 C 
BRANCH  25  26
HETATM   26  C2  UNL     1      26.949   4.277  49.208  1.00  0.00     0.193 C 
BRANCH  26  27
HETATM   27  O1  UNL     1      26.010   5.227  48.850  1.00  0.00    -0.394 OA
HETATM   28  C1  UNL     1      25.589   6.033  49.903  1.00  0.00     0.201 C 
ENDBRANCH  26  27
ENDBRANCH  25  26
ENDBRANCH  24  25
ENDBRANCH   1  24
TORSDOF 8
ENDMDL
MODEL 3
REMARK VINA RESULT:      -7.9      5.560      8.848
REMARK  8 active torsions:
REMARK  status: ('A' for Active; 'I' for Inactive)
REMARK    1  A    between atoms: O1_2  and  C2_3 
REMARK    2  A    between atoms: C2_3  and  C3_4 
REMARK    3  A    between atoms: C3_4  and  O2_5 
REMARK    4  A    between atoms: O2_5  and  C4_6 
REMARK    5  A    between atoms: N1_9  and  C7_10 
REMARK    6  A    between atoms: C7_10  and  C8_11 
REMARK    7  A    between atoms: C8_11  and  N2_12 
REMARK    8  A    between atoms: N2_12  and  C9_13 
ROOT
HETATM    1  C4  UNL     1      25.421   0.213  53.120  1.00  0.00     0.106 A 
HETATM    2  C5  UNL     1      25.520   1.130  52.170  1.00  0.00     0.066 A 
HETATM    3  C6  UNL     1      24.333   1.710  51.555  1.00  0.00     0.037 A 
HETATM    4  N1  UNL     1      24.495   2.597  50.637  1.00  0.00    -0.292 NA
HETATM    5  C15 UNL     1      22.963   1.296  51.968  1.00  0.00     0.126 A 
HETATM    6  C16 UNL     1      23.026   0.266  53.038  1.00  0.00     0.088 A 
HETATM    7  C17 UNL     1      24.112  -0.267  53.604  1.00  0.00     0.131 A 
HETATM    8  O3  UNL     1      23.964  -1.225  54.596  1.00  0.00    -0.344 OA
HETATM    9  C18 UNL     1      22.718  -1.220  55.312  1.00  0.00     0.202 C 
HETATM   10  C19 UNL     1      21.633  -1.321  54.271  1.00  0.00     0.202 C 
HETATM   11  O4  UNL     1      21.759  -0.147  53.453  1.00  0.00    -0.350 OA
ENDROOT
BRANCH   4  12
HETATM   12  C7  UNL     1      23.337   3.192  50.006  1.00  0.00     0.168 C 
BRANCH  12  13
HETATM   13  C8  UNL     1      23.780   4.289  49.048  1.00  0.00     0.141 C 
BRANCH  13  14
HETATM   14  N2  UNL     1      24.703   5.198  49.665  1.00  0.00    -0.388 N 
HETATM   15  H13 UNL     1      24.421   5.624  50.582  1.00  0.00     0.159 HD
BRANCH  14  16
HETATM   16  C9  UNL     1      25.971   5.566  49.130  1.00  0.00     0.029 A 
HETATM   17  C10 UNL     1      26.982   4.646  48.955  1.00  0.00     0.032 A 
HETATM   18  C11 UNL     1      28.212   4.997  48.438  1.00  0.00     0.046 A 
HETATM   19  C12 UNL     1      28.446   6.325  48.081  1.00  0.00     0.138 A 
HETATM   20  F1  UNL     1      29.682   6.635  47.570  1.00  0.00    -0.204 F 
HETATM   21  C13 UNL     1      27.453   7.296  48.240  1.00  0.00     0.074 A 
HETATM   22 CL1  UNL     1      27.778   8.934  47.786  1.00  0.00    -0.081 Cl
HETATM   23  C14 UNL     1      26.245   6.864  48.765  1.00  0.00     0.056 A 
ENDBRANCH  14  16
ENDBRANCH  13  14
ENDBRANCH  12  13
ENDBRANCH   4  12
BRANCH   1  24
HETATM   24  O2  UNL     1      26.514  -0.396  53.763  1.00  0.00    -0.346 OA
BRANCH  24  25
HETATM   25  C3  UNL     1      27.056   0.271  54.906  1.00  0.00     0.201 C 
BRANCH  25  26
HETATM   26  C2  UNL     1      28.552   0.274  54.802  1.00  0.00     0.193 C 
BRANCH  26  27
HETATM   27  O1  UNL     1      29.086   1.549  54.783  1.00  0.00    -0.394 OA
HETATM   28  C1  UNL     1      28.716   2.304  53.675  1.00  0.00     0.201 C 
ENDBRANCH  26  27
ENDBRANCH  25  26
ENDBRANCH  24  25
ENDBRANCH   1  24
TORSDOF 8
ENDMDL
MODEL 4
REMARK VINA RESULT:      -7.6      6.172      8.440
REMARK  8 active torsions:
REMARK  status: ('A' for Active; 'I' for Inactive)
REMARK    1  A    between atoms: O1_2  and  C2_3 
REMARK    2  A    between atoms: C2_3  and  C3_4 
REMARK    3  A    between atoms: C3_4  and  O2_5 
REMARK    4  A    between atoms: O2_5  and  C4_6 
REMARK    5  A    between atoms: N1_9  and  C7_10 
REMARK    6  A    between atoms: C7_10  and  C8_11 
REMARK    7  A    between atoms: C8_11  and  N2_12 
REMARK    8  A    between atoms: N2_12  and  C9_13 
ROOT
HETATM    1  C4  UNL     1      28.141   6.098  48.248  1.00  0.00     0.106 A 
HETATM    2  C5  UNL     1      27.677   4.906  48.587  1.00  0.00     0.066 A 
HETATM    3  C6  UNL     1      26.432   4.765  49.331  1.00  0.00     0.037 A 
HETATM    4  N1  UNL     1      26.032   3.579  49.631  1.00  0.00    -0.292 NA
HETATM    5  C15 UNL     1      25.632   5.954  49.740  1.00  0.00     0.126 A 
HETATM    6  C16 UNL     1      26.288   7.208  49.284  1.00  0.00     0.088 A 
HETATM    7  C17 UNL     1      27.428   7.341  48.602  1.00  0.00     0.131 A 
HETATM    8  O3  UNL     1      27.881   8.607  48.267  1.00  0.00    -0.344 OA
HETATM    9  C18 UNL     1      26.889   9.646  48.203  1.00  0.00     0.202 C 
HETATM   10  C19 UNL     1      26.184   9.639  49.536  1.00  0.00     0.202 C 
HETATM   11  O4  UNL     1      25.567   8.347  49.649  1.00  0.00    -0.350 OA
ENDROOT
BRANCH   4  12
HETATM   12  C7  UNL     1      24.800   3.406  50.369  1.00  0.00     0.168 C 
BRANCH  12  13
HETATM   13  C8  UNL     1      25.056   2.547  51.600  1.00  0.00     0.141 C 
BRANCH  13  14
HETATM   14  N2  UNL     1      26.384   2.724  52.112  1.00  0.00    -0.388 N 
HETATM   15  H13 UNL     1      26.769   3.701  52.128  1.00  0.00     0.159 HD
BRANCH  14  16
HETATM   16  C9  UNL     1      27.220   1.679  52.601  1.00  0.00     0.029 A 
HETATM   17  C10 UNL     1      28.385   1.941  53.288  1.00  0.00     0.032 A 
HETATM   18  C11 UNL     1      29.198   0.932  53.764  1.00  0.00     0.046 A 
HETATM   19  C12 UNL     1      28.834  -0.396  53.543  1.00  0.00     0.138 A 
HETATM   20  F1  UNL     1      29.669  -1.370  54.032  1.00  0.00    -0.204 F 
HETATM   21  C13 UNL     1      27.662  -0.713  52.851  1.00  0.00     0.074 A 
HETATM   22 CL1  UNL     1      27.242  -2.372  52.596  1.00  0.00    -0.081 Cl
HETATM   23  C14 UNL     1      26.899   0.356  52.406  1.00  0.00     0.056 A 
ENDBRANCH  14  16
ENDBRANCH  13  14
ENDBRANCH  12  13
ENDBRANCH   4  12
BRANCH   1  24
HETATM   24  O2  UNL     1      29.333   6.320  47.532  1.00  0.00    -0.346 OA
BRANCH  24  25
HETATM   25  C3  UNL     1      30.523   5.707  48.035  1.00  0.00     0.201 C 
BRANCH  25  26
HETATM   26  C2  UNL     1      31.148   6.620  49.046  1.00  0.00     0.193 C 
BRANCH  26  27
HETATM   27  O1  UNL     1      32.256   6.064  49.658  1.00  0.00    -0.394 OA
HETATM   28  C1  UNL     1      33.364   5.942  48.825  1.00  0.00     0.201 C 
ENDBRANCH  26  27
ENDBRANCH  25  26
ENDBRANCH  24  25
ENDBRANCH   1  24
TORSDOF 8
ENDMDL
MODEL 5
REMARK VINA RESULT:      -7.6      5.601      9.318
REMARK  8 active torsions:
REMARK  status: ('A' for Active; 'I' for Inactive)
REMARK    1  A    between atoms: O1_2  and  C2_3 
REMARK    2  A    between atoms: C2_3  and  C3_4 
REMARK    3  A    between atoms: C3_4  and  O2_5 
REMARK    4  A    between atoms: O2_5  and  C4_6 
REMARK    5  A    between atoms: N1_9  and  C7_10 
REMARK    6  A    between atoms: C7_10  and  C8_11 
REMARK    7  A    between atoms: C8_11  and  N2_12 
REMARK    8  A    between atoms: N2_12  and  C9_13 
ROOT
HETATM    1  C4  UNL     1      24.856   0.325  53.341  1.00  0.00     0.106 A 
HETATM    2  C5  UNL     1      25.251   1.348  52.600  1.00  0.00     0.066 A 
HETATM    3  C6  UNL     1      24.287   2.220  51.942  1.00  0.00     0.037 A 
HETATM    4  N1  UNL     1      24.734   3.199  51.235  1.00  0.00    -0.292 NA
HETATM    5  C15 UNL     1      22.820   1.996  52.074  1.00  0.00     0.126 A 
HETATM    6  C16 UNL     1      22.546   0.815  52.933  1.00  0.00     0.088 A 
HETATM    7  C17 UNL     1      23.427   0.014  53.538  1.00  0.00     0.131 A 
HETATM    8  O3  UNL     1      22.971  -1.048  54.304  1.00  0.00    -0.344 OA
HETATM    9  C18 UNL     1      21.637  -0.935  54.826  1.00  0.00     0.202 C 
HETATM   10  C19 UNL     1      20.741  -0.675  53.642  1.00  0.00     0.202 C 
HETATM   11  O4  UNL     1      21.179   0.572  53.081  1.00  0.00    -0.350 OA
ENDROOT
BRANCH   4  12
HETATM   12  C7  UNL     1      23.803   4.082  50.569  1.00  0.00     0.168 C 
BRANCH  12  13
HETATM   13  C8  UNL     1      24.400   4.559  49.252  1.00  0.00     0.141 C 
BRANCH  13  14
HETATM   14  N2  UNL     1      25.812   4.315  49.184  1.00  0.00    -0.388 N 
HETATM   15  H13 UNL     1      26.148   3.353  49.439  1.00  0.00     0.159 HD
BRANCH  14  16
HETATM   16  C9  UNL     1      26.791   5.273  48.796  1.00  0.00     0.029 A 
HETATM   17  C10 UNL     1      26.490   6.613  48.671  1.00  0.00     0.032 A 
HETATM   18  C11 UNL     1      27.435   7.545  48.296  1.00  0.00     0.046 A 
HETATM   19  C12 UNL     1      28.738   7.124  48.031  1.00  0.00     0.138 A 
HETATM   20  F1  UNL     1      29.649   8.083  47.660  1.00  0.00    -0.204 F 
HETATM   21  C13 UNL     1      29.094   5.777  48.142  1.00  0.00     0.074 A 
HETATM   22 CL1  UNL     1      30.720   5.291  47.806  1.00  0.00    -0.081 Cl
HETATM   23  C14 UNL     1      28.088   4.903  48.525  1.00  0.00     0.056 A 
ENDBRANCH  14  16
ENDBRANCH  13  14
ENDBRANCH  12  13
ENDBRANCH   4  12
BRANCH   1  24
HETATM   24  O2  UNL     1      25.721  -0.563  54.008  1.00  0.00    -0.346 OA
BRANCH  24  25
HETATM   25  C3  UNL     1      26.461  -0.047  55.117  1.00  0.00     0.201 C 
BRANCH  25  26
HETATM   26  C2  UNL     1      27.890   0.134  54.704  1.00  0.00     0.193 C 
BRANCH  26  27
HETATM   27  O1  UNL     1      28.385  -0.943  53.993  1.00  0.00    -0.394 OA
HETATM   28  C1  UNL     1      29.763  -0.911  53.800  1.00  0.00     0.201 C 
ENDBRANCH  26  27
ENDBRANCH  25  26
ENDBRANCH  24  25
ENDBRANCH   1  24
TORSDOF 8
ENDMDL
MODEL 6
REMARK VINA RESULT:      -7.4      3.194      4.768
REMARK  8 active torsions:
REMARK  status: ('A' for Active; 'I' for Inactive)
REMARK    1  A    between atoms: O1_2  and  C2_3 
REMARK    2  A    between atoms: C2_3  and  C3_4 
REMARK    3  A    between atoms: C3_4  and  O2_5 
REMARK    4  A    between atoms: O2_5  and  C4_6 
REMARK    5  A    between atoms: N1_9  and  C7_10 
REMARK    6  A    between atoms: C7_10  and  C8_11 
REMARK    7  A    between atoms: C8_11  and  N2_12 
REMARK    8  A    between atoms: N2_12  and  C9_13 
ROOT
HETATM    1  C4  UNL     1      25.740   3.597  50.246  1.00  0.00     0.106 A 
HETATM    2  C5  UNL     1      26.528   2.760  50.901  1.00  0.00     0.066 A 
HETATM    3  C6  UNL     1      26.148   2.227  52.202  1.00  0.00     0.037 A 
HETATM    4  N1  UNL     1      26.958   1.417  52.789  1.00  0.00    -0.292 NA
HETATM    5  C15 UNL     1      24.859   2.601  52.849  1.00  0.00     0.126 A 
HETATM    6  C16 UNL     1      24.096   3.543  51.989  1.00  0.00     0.088 A 
HETATM    7  C17 UNL     1      24.441   4.033  50.795  1.00  0.00     0.131 A 
HETATM    8  O3  UNL     1      23.586   4.908  50.143  1.00  0.00    -0.344 OA
HETATM    9  C18 UNL     1      22.198   4.841  50.509  1.00  0.00     0.202 C 
HETATM   10  C19 UNL     1      22.147   5.021  52.005  1.00  0.00     0.202 C 
HETATM   11  O4  UNL     1      22.879   3.918  52.561  1.00  0.00    -0.350 OA
ENDROOT
BRANCH   4  12
HETATM   12  C7  UNL     1      26.609   0.870  54.082  1.00  0.00     0.168 C 
BRANCH  12  13
HETATM   13  C8  UNL     1      26.097  -0.554  53.917  1.00  0.00     0.141 C 
BRANCH  13  14
HETATM   14  N2  UNL     1      24.940  -0.806  54.727  1.00  0.00    -0.388 N 
HETATM   15  H13 UNL     1      25.101  -1.050  55.735  1.00  0.00     0.159 HD
BRANCH  14  16
HETATM   16  C9  UNL     1      23.592  -0.749  54.270  1.00  0.00     0.029 A 
HETATM   17  C10 UNL     1      22.545  -1.227  55.029  1.00  0.00     0.032 A 
HETATM   18  C11 UNL     1      21.238  -1.175  54.591  1.00  0.00     0.046 A 
HETATM   19  C12 UNL     1      20.962  -0.624  53.340  1.00  0.00     0.138 A 
HETATM   20  F1  UNL     1      19.649  -0.590  52.939  1.00  0.00    -0.204 F 
HETATM   21  C13 UNL     1      21.988  -0.127  52.531  1.00  0.00     0.074 A 
HETATM   22 CL1  UNL     1      21.608   0.550  50.985  1.00  0.00    -0.081 Cl
HETATM   23  C14 UNL     1      23.273  -0.215  53.043  1.00  0.00     0.056 A 
ENDBRANCH  14  16
ENDBRANCH  13  14
ENDBRANCH  12  13
ENDBRANCH   4  12
BRANCH   1  24
HETATM   24  O2  UNL     1      26.033   4.156  48.988  1.00  0.00    -0.346 OA
BRANCH  24  25
HETATM   25  C3  UNL     1      26.740   5.399  48.972  1.00  0.00     0.201 C 
BRANCH  25  26
HETATM   26  C2  UNL     1      28.135   5.157  48.482  1.00  0.00     0.193 C 
BRANCH  26  27
HETATM   27  O1  UNL     1      28.660   6.237  47.798  1.00  0.00    -0.394 OA
HETATM   28  C1  UNL     1      29.940   6.600  48.205  1.00  0.00     0.201 C 
ENDBRANCH  26  27
ENDBRANCH  25  26
ENDBRANCH  24  25
ENDBRANCH   1  24
TORSDOF 8
ENDMDL
MODEL 7
REMARK VINA RESULT:      -7.2      7.200     11.301
REMARK  8 active torsions:
REMARK  status: ('A' for Active; 'I' for Inactive)
REMARK    1  A    between atoms: O1_2  and  C2_3 
REMARK    2  A    between atoms: C2_3  and  C3_4 
REMARK    3  A    between atoms: C3_4  and  O2_5 
REMARK    4  A    between atoms: O2_5  and  C4_6 
REMARK    5  A    between atoms: N1_9  and  C7_10 
REMARK    6  A    between atoms: C7_10  and  C8_11 
REMARK    7  A    between atoms: C8_11  and  N2_12 
REMARK    8  A    between atoms: N2_12  and  C9_13 
ROOT
HETATM    1  C4  UNL     1      25.682   3.165  50.644  1.00  0.00     0.106 A 
HETATM    2  C5  UNL     1      26.651   3.591  49.849  1.00  0.00     0.066 A 
HETATM    3  C6  UNL     1      26.634   4.939  49.295  1.00  0.00     0.037 A 
HETATM    4  N1  UNL     1      27.606   5.295  48.530  1.00  0.00    -0.292 NA
HETATM    5  C15 UNL     1      25.528   5.890  49.599  1.00  0.00     0.126 A 
HETATM    6  C16 UNL     1      24.527   5.259  50.499  1.00  0.00     0.088 A 
HETATM    7  C17 UNL     1      24.540   4.025  51.008  1.00  0.00     0.131 A 
HETATM    8  O3  UNL     1      23.505   3.617  51.836  1.00  0.00    -0.344 OA
HETATM    9  C18 UNL     1      22.773   4.656  52.507  1.00  0.00     0.202 C 
HETATM   10  C19 UNL     1      22.291   5.595  51.431  1.00  0.00     0.202 C 
HETATM   11  O4  UNL     1      23.473   6.121  50.808  1.00  0.00    -0.350 OA
ENDROOT
BRANCH   4  12
HETATM   12  C7  UNL     1      27.618   6.626  47.964  1.00  0.00     0.168 C 
BRANCH  12  13
HETATM   13  C8  UNL     1      29.021   7.210  48.055  1.00  0.00     0.141 C 
BRANCH  13  14
HETATM   14  N2  UNL     1      29.853   6.468  48.958  1.00  0.00    -0.388 N 
HETATM   15  H13 UNL     1      29.491   6.313  49.931  1.00  0.00     0.159 HD
BRANCH  14  16
HETATM   16  C9  UNL     1      31.130   5.925  48.636  1.00  0.00     0.029 A 
HETATM   17  C10 UNL     1      32.296   6.454  49.146  1.00  0.00     0.032 A 
HETATM   18  C11 UNL     1      33.535   5.931  48.836  1.00  0.00     0.046 A 
HETATM   19  C12 UNL     1      33.616   4.833  47.980  1.00  0.00     0.138 A 
HETATM   20  F1  UNL     1      34.866   4.343  47.697  1.00  0.00    -0.204 F 
HETATM   21  C13 UNL     1      32.462   4.261  47.437  1.00  0.00     0.074 A 
HETATM   22 CL1  UNL     1      32.601   2.899  46.378  1.00  0.00    -0.081 Cl
HETATM   23  C14 UNL     1      31.256   4.842  47.796  1.00  0.00     0.056 A 
ENDBRANCH  14  16
ENDBRANCH  13  14
ENDBRANCH  12  13
ENDBRANCH   4  12
BRANCH   1  24
HETATM   24  O2  UNL     1      25.623   1.881  51.218  1.00  0.00    -0.346 OA
BRANCH  24  25
HETATM   25  C3  UNL     1      26.662   1.524  52.133  1.00  0.00     0.201 C 
BRANCH  25  26
HETATM   26  C2  UNL     1      26.174   1.748  53.532  1.00  0.00     0.193 C 
BRANCH  26  27
HETATM   27  O1  UNL     1      27.171   1.605  54.479  1.00  0.00    -0.394 OA
HETATM   28  C1  UNL     1      27.513   0.283  54.749  1.00  0.00     0.201 C 
ENDBRANCH  26  27
ENDBRANCH  25  26
ENDBRANCH  24  25
ENDBRANCH   1  24
TORSDOF 8
ENDMDL
MODEL 8
REMARK VINA RESULT:      -7.2      2.953      4.698
REMARK  8 active torsions:
REMARK  status: ('A' for Active; 'I' for Inactive)
REMARK    1  A    between atoms: O1_2  and  C2_3 
REMARK    2  A    between atoms: C2_3  and  C3_4 
REMARK    3  A    between atoms: C3_4  and  O2_5 
REMARK    4  A    between atoms: O2_5  and  C4_6 
REMARK    5  A    between atoms: N1_9  and  C7_10 
REMARK    6  A    between atoms: C7_10  and  C8_11 
REMARK    7  A    between atoms: C8_11  and  N2_12 
REMARK    8  A    between atoms: N2_12  and  C9_13 
ROOT
HETATM    1  C4  UNL     1      25.767   0.384  52.321  1.00  0.00     0.106 A 
HETATM    2  C5  UNL     1      24.878  -0.236  53.081  1.00  0.00     0.066 A 
HETATM    3  C6  UNL     1      23.547   0.317  53.290  1.00  0.00     0.037 A 
HETATM    4  N1  UNL     1      22.727  -0.333  54.040  1.00  0.00    -0.292 NA
HETATM    5  C15 UNL     1      23.132   1.602  52.660  1.00  0.00     0.126 A 
HETATM    6  C16 UNL     1      24.238   2.167  51.844  1.00  0.00     0.088 A 
HETATM    7  C17 UNL     1      25.459   1.662  51.650  1.00  0.00     0.131 A 
HETATM    8  O3  UNL     1      26.361   2.344  50.847  1.00  0.00    -0.344 OA
HETATM    9  C18 UNL     1      25.802   3.245  49.878  1.00  0.00     0.202 C 
HETATM   10  C19 UNL     1      24.910   4.189  50.644  1.00  0.00     0.202 C 
HETATM   11  O4  UNL     1      23.888   3.373  51.236  1.00  0.00    -0.350 OA
ENDROOT
BRANCH   4  12
HETATM   12  C7  UNL     1      21.398   0.190  54.267  1.00  0.00     0.168 C 
BRANCH  12  13
HETATM   13  C8  UNL     1      20.366  -0.746  53.654  1.00  0.00     0.141 C 
BRANCH  13  14
HETATM   14  N2  UNL     1      19.419  -0.041  52.839  1.00  0.00    -0.388 N 
HETATM   15  H13 UNL     1      18.405  -0.289  52.952  1.00  0.00     0.159 HD
BRANCH  14  16
HETATM   16  C9  UNL     1      19.747   0.969  51.889  1.00  0.00     0.029 A 
HETATM   17  C10 UNL     1      19.386   2.286  52.073  1.00  0.00     0.032 A 
HETATM   18  C11 UNL     1      19.702   3.268  51.156  1.00  0.00     0.046 A 
HETATM   19  C12 UNL     1      20.407   2.921  50.004  1.00  0.00     0.138 A 
HETATM   20  F1  UNL     1      20.702   3.926  49.117  1.00  0.00    -0.204 F 
HETATM   21  C13 UNL     1      20.795   1.599  49.771  1.00  0.00     0.074 A 
HETATM   22 CL1  UNL     1      21.670   1.205  48.330  1.00  0.00    -0.081 Cl
HETATM   23  C14 UNL     1      20.442   0.672  50.739  1.00  0.00     0.056 A 
ENDBRANCH  14  16
ENDBRANCH  13  14
ENDBRANCH  12  13
ENDBRANCH   4  12
BRANCH   1  24
HETATM   24  O2  UNL     1      27.071  -0.082  52.070  1.00  0.00    -0.346 OA
BRANCH  24  25
HETATM   25  C3  UNL     1      27.681  -0.897  53.074  1.00  0.00     0.201 C 
BRANCH  25  26
HETATM   26  C2  UNL     1      28.543  -0.032  53.943  1.00  0.00     0.193 C 
BRANCH  26  27
HETATM   27  O1  UNL     1      29.071   1.052  53.267  1.00  0.00    -0.394 OA
HETATM   28  C1  UNL     1      28.714   2.285  53.804  1.00  0.00     0.201 C 
ENDBRANCH  26  27
ENDBRANCH  25  26
ENDBRANCH  24  25
ENDBRANCH   1  24
TORSDOF 8
ENDMDL
MODEL 9
REMARK VINA RESULT:      -7.1      5.440      8.758
REMARK  8 active torsions:
REMARK  status: ('A' for Active; 'I' for Inactive)
REMARK    1  A    between atoms: O1_2  and  C2_3 
REMARK    2  A    between atoms: C2_3  and  C3_4 
REMARK    3  A    between atoms: C3_4  and  O2_5 
REMARK    4  A    between atoms: O2_5  and  C4_6 
REMARK    5  A    between atoms: N1_9  and  C7_10 
REMARK    6  A    between atoms: C7_10  and  C8_11 
REMARK    7  A    between atoms: C8_11  and  N2_12 
REMARK    8  A    between atoms: N2_12  and  C9_13 
ROOT
HETATM    1  C4  UNL     1      22.582   1.150  52.594  1.00  0.00     0.106 A 
HETATM    2  C5  UNL     1      22.180   2.352  52.213  1.00  0.00     0.066 A 
HETATM    3  C6  UNL     1      23.072   3.502  52.278  1.00  0.00     0.037 A 
HETATM    4  N1  UNL     1      22.622   4.645  51.893  1.00  0.00    -0.292 NA
HETATM    5  C15 UNL     1      24.471   3.373  52.775  1.00  0.00     0.126 A 
HETATM    6  C16 UNL     1      24.762   1.968  53.161  1.00  0.00     0.088 A 
HETATM    7  C17 UNL     1      23.947   0.912  53.102  1.00  0.00     0.131 A 
HETATM    8  O3  UNL     1      24.408  -0.330  53.512  1.00  0.00    -0.344 OA
HETATM    9  C18 UNL     1      25.832  -0.527  53.482  1.00  0.00     0.202 C 
HETATM   10  C19 UNL     1      26.429   0.588  54.301  1.00  0.00     0.202 C 
HETATM   11  O4  UNL     1      26.066   1.806  53.632  1.00  0.00    -0.350 OA
ENDROOT
BRANCH   4  12
HETATM   12  C7  UNL     1      23.483   5.806  51.946  1.00  0.00     0.168 C 
BRANCH  12  13
HETATM   13  C8  UNL     1      23.349   6.603  50.655  1.00  0.00     0.141 C 
BRANCH  13  14
HETATM   14  N2  UNL     1      23.799   5.857  49.515  1.00  0.00    -0.388 N 
HETATM   15  H13 UNL     1      23.065   5.449  48.885  1.00  0.00     0.159 HD
BRANCH  14  16
HETATM   16  C9  UNL     1      25.162   5.629  49.172  1.00  0.00     0.029 A 
HETATM   17  C10 UNL     1      25.784   4.423  49.419  1.00  0.00     0.032 A 
HETATM   18  C11 UNL     1      27.104   4.198  49.088  1.00  0.00     0.046 A 
HETATM   19  C12 UNL     1      27.839   5.219  48.487  1.00  0.00     0.138 A 
HETATM   20  F1  UNL     1      29.149   4.955  48.173  1.00  0.00    -0.204 F 
HETATM   21  C13 UNL     1      27.255   6.460  48.216  1.00  0.00     0.074 A 
HETATM   22 CL1  UNL     1      28.197   7.704  47.468  1.00  0.00    -0.081 Cl
HETATM   23  C14 UNL     1      25.925   6.607  48.577  1.00  0.00     0.056 A 
ENDBRANCH  14  16
ENDBRANCH  13  14
ENDBRANCH  12  13
ENDBRANCH   4  12
BRANCH   1  24
HETATM   24  O2  UNL     1      21.785  -0.009  52.564  1.00  0.00    -0.346 OA
BRANCH  24  25
HETATM   25  C3  UNL     1      20.577   0.006  53.328  1.00  0.00     0.201 C 
BRANCH  25  26
HETATM   26  C2  UNL     1      19.414  -0.180  52.401  1.00  0.00     0.193 C 
BRANCH  26  27
HETATM   27  O1  UNL     1      19.059   0.983  51.743  1.00  0.00    -0.394 OA
HETATM   28  C1  UNL     1      19.181   0.912  50.359  1.00  0.00     0.201 C 
ENDBRANCH  26  27
ENDBRANCH  25  26
ENDBRANCH  24  25
ENDBRANCH   1  24
TORSDOF 8
ENDMDL
