MODEL 1
REMARK VINA RESULT:      -8.1      0.000      0.000
REMARK  9 active torsions:
REMARK  status: ('A' for Active; 'I' for Inactive)
REMARK    1  A    between atoms: N1_2  and  C2_3 
REMARK    2  A    between atoms: C2_3  and  C3_4 
REMARK    3  A    between atoms: C3_4  and  O1_5 
REMARK    4  A    between atoms: C3_4  and  C4_6 
REMARK    5  A    between atoms: C4_6  and  O2_7 
REMARK    6  A    between atoms: O2_7  and  C5_8 
REMARK    7  A    between atoms: N3_12  and  C8_13 
REMARK    8  A    between atoms: C8_13  and  N4_14 
REMARK    9  A    between atoms: N4_14  and  C9_15 
ROOT
HETATM    1  C5  UNL     1      24.745   1.432  52.321  1.00  0.00     0.075 C 
HETATM    2  C6  UNL     1      24.711   0.614  53.332  1.00  0.00     0.052 C 
HETATM    3  C7  UNL     1      24.172  -0.352  54.240  1.00  0.00     0.261 C 
HETATM    4  N2  UNL     1      23.142  -1.084  54.592  1.00  0.00    -0.224 NA
HETATM    5  N3  UNL     1      21.981  -0.965  53.820  1.00  0.00    -0.255 N 
HETATM    6  S1  UNL     1      22.364  -0.058  52.415  1.00  0.00     0.067 SA
HETATM    7  N5  UNL     1      21.086   0.306  51.313  1.00  0.00    -0.359 NA
HETATM    8  C15 UNL     1      21.242   1.248  50.404  1.00  0.00     0.343 C 
HETATM    9  C16 UNL     1      22.579   1.580  50.816  1.00  0.00     0.012 C 
HETATM   10  C17 UNL     1      23.794   1.828  51.257  1.00  0.00    -0.030 C 
HETATM   11  C18 UNL     1      24.327   2.864  50.334  1.00  0.00     0.050 C 
ENDROOT
BRANCH   5  12
HETATM   12  C8  UNL     1      20.711  -1.534  54.210  1.00  0.00     0.274 C 
BRANCH  12  13
HETATM   13  N4  UNL     1      19.664  -0.641  53.794  1.00  0.00    -0.372 N 
HETATM   14  H15 UNL     1      19.664   0.397  53.758  1.00  0.00     0.161 HD
BRANCH  13  15
HETATM   15  C9  UNL     1      18.449  -1.284  53.373  1.00  0.00     0.031 A 
HETATM   16  C10 UNL     1      17.516  -0.660  52.578  1.00  0.00     0.032 A 
HETATM   17  C11 UNL     1      16.330  -1.187  52.121  1.00  0.00     0.046 A 
HETATM   18  C12 UNL     1      16.049  -2.484  52.504  1.00  0.00     0.138 A 
HETATM   19  F1  UNL     1      14.934  -3.167  52.152  1.00  0.00    -0.204 F 
HETATM   20  C13 UNL     1      16.937  -3.174  53.300  1.00  0.00     0.074 A 
HETATM   21 CL1  UNL     1      16.642  -4.819  53.823  1.00  0.00    -0.081 Cl
HETATM   22  C14 UNL     1      18.111  -2.592  53.727  1.00  0.00     0.056 A 
ENDBRANCH  13  15
ENDBRANCH  12  13
ENDBRANCH   5  12
BRANCH   1  23
HETATM   23  O2  UNL     1      25.960   2.051  52.249  1.00  0.00    -0.348 OA
BRANCH  23  24
HETATM   24  C4  UNL     1      27.160   1.332  52.401  1.00  0.00     0.209 C 
BRANCH  24  25
HETATM   25  C3  UNL     1      28.055   2.019  53.411  1.00  0.00     0.170 C 
BRANCH  25  26
HETATM   26  C2  UNL     1      28.826   1.074  54.267  1.00  0.00     0.302 C 
BRANCH  26  27
HETATM   27  N1  UNL     1      29.921   0.465  53.529  1.00  0.00     0.081 N 
HETATM   28  C1  UNL     1      29.881  -0.981  53.620  1.00  0.00     0.306 C 
HETATM   29  H4  UNL     1      30.812   0.803  53.945  1.00  0.00     0.315 HD
ENDBRANCH  26  27
ENDBRANCH  25  26
BRANCH  25  30
HETATM   30  O1  UNL     1      28.816   3.019  52.820  1.00  0.00    -0.392 OA
HETATM   31  H8  UNL     1      29.379   3.503  53.485  1.00  0.00     0.210 HD
ENDBRANCH  25  30
ENDBRANCH  24  25
ENDBRANCH  23  24
ENDBRANCH   1  23
TORSDOF 9
ENDMDL
MODEL 2
REMARK VINA RESULT:      -7.8      6.464     10.504
REMARK  9 active torsions:
REMARK  status: ('A' for Active; 'I' for Inactive)
REMARK    1  A    between atoms: N1_2  and  C2_3 
REMARK    2  A    between atoms: C2_3  and  C3_4 
REMARK    3  A    between atoms: C3_4  and  O1_5 
REMARK    4  A    between atoms: C3_4  and  C4_6 
REMARK    5  A    between atoms: C4_6  and  O2_7 
REMARK    6  A    between atoms: O2_7  and  C5_8 
REMARK    7  A    between atoms: N3_12  and  C8_13 
REMARK    8  A    between atoms: C8_13  and  N4_14 
REMARK    9  A    between atoms: N4_14  and  C9_15 
ROOT
HETATM    1  C5  UNL     1      24.227   0.564  53.049  1.00  0.00     0.075 C 
HETATM    2  C6  UNL     1      23.561   1.196  52.127  1.00  0.00     0.052 C 
HETATM    3  C7  UNL     1      23.314   2.133  51.074  1.00  0.00     0.261 C 
HETATM    4  N2  UNL     1      23.789   3.093  50.315  1.00  0.00    -0.224 NA
HETATM    5  N3  UNL     1      25.119   3.472  50.523  1.00  0.00    -0.255 N 
HETATM    6  S1  UNL     1      25.845   2.325  51.572  1.00  0.00     0.067 SA
HETATM    7  N5  UNL     1      27.479   2.594  52.059  1.00  0.00    -0.359 NA
HETATM    8  C15 UNL     1      27.979   1.944  53.092  1.00  0.00     0.343 C 
HETATM    9  C16 UNL     1      26.765   1.225  53.370  1.00  0.00     0.012 C 
HETATM   10  C17 UNL     1      25.616   0.612  53.561  1.00  0.00    -0.030 C 
HETATM   11  C18 UNL     1      25.871  -0.325  54.686  1.00  0.00     0.050 C 
ENDROOT
BRANCH   5  12
HETATM   12  C8  UNL     1      25.708   4.648  49.924  1.00  0.00     0.274 C 
BRANCH  12  13
HETATM   13  N4  UNL     1      26.963   4.277  49.330  1.00  0.00    -0.372 N 
HETATM   14  H15 UNL     1      27.445   3.357  49.334  1.00  0.00     0.161 HD
BRANCH  13  15
HETATM   15  C9  UNL     1      27.642   5.337  48.633  1.00  0.00     0.031 A 
HETATM   16  C10 UNL     1      27.002   6.484  48.222  1.00  0.00     0.032 A 
HETATM   17  C11 UNL     1      27.559   7.550  47.554  1.00  0.00     0.046 A 
HETATM   18  C12 UNL     1      28.908   7.457  47.269  1.00  0.00     0.138 A 
HETATM   19  F1  UNL     1      29.626   8.404  46.621  1.00  0.00    -0.204 F 
HETATM   20  C13 UNL     1      29.616   6.337  47.650  1.00  0.00     0.074 A 
HETATM   21 CL1  UNL     1      31.325   6.153  47.317  1.00  0.00    -0.081 Cl
HETATM   22  C14 UNL     1      29.001   5.300  48.317  1.00  0.00     0.056 A 
ENDBRANCH  13  15
ENDBRANCH  12  13
ENDBRANCH   5  12
BRANCH   1  23
HETATM   23  O2  UNL     1      23.432  -0.360  53.663  1.00  0.00    -0.348 OA
BRANCH  23  24
HETATM   24  C4  UNL     1      22.230  -0.800  53.078  1.00  0.00     0.209 C 
BRANCH  24  25
HETATM   25  C3  UNL     1      21.089  -0.659  54.064  1.00  0.00     0.170 C 
BRANCH  25  26
HETATM   26  C2  UNL     1      19.754  -0.520  53.416  1.00  0.00     0.302 C 
BRANCH  26  27
HETATM   27  N1  UNL     1      18.873  -1.618  53.779  1.00  0.00     0.081 N 
HETATM   28  C1  UNL     1      17.504  -1.353  53.384  1.00  0.00     0.306 C 
HETATM   29  H4  UNL     1      18.909  -1.727  54.813  1.00  0.00     0.315 HD
ENDBRANCH  26  27
ENDBRANCH  25  26
BRANCH  25  30
HETATM   30  O1  UNL     1      21.153  -1.625  55.058  1.00  0.00    -0.392 OA
HETATM   31  H8  UNL     1      20.569  -2.409  54.858  1.00  0.00     0.210 HD
ENDBRANCH  25  30
ENDBRANCH  24  25
ENDBRANCH  23  24
ENDBRANCH   1  23
TORSDOF 9
ENDMDL
MODEL 3
REMARK VINA RESULT:      -7.8      5.362      7.000
REMARK  9 active torsions:
REMARK  status: ('A' for Active; 'I' for Inactive)
REMARK    1  A    between atoms: N1_2  and  C2_3 
REMARK    2  A    between atoms: C2_3  and  C3_4 
REMARK    3  A    between atoms: C3_4  and  O1_5 
REMARK    4  A    between atoms: C3_4  and  C4_6 
REMARK    5  A    between atoms: C4_6  and  O2_7 
REMARK    6  A    between atoms: O2_7  and  C5_8 
REMARK    7  A    between atoms: N3_12  and  C8_13 
REMARK    8  A    between atoms: C8_13  and  N4_14 
REMARK    9  A    between atoms: N4_14  and  C9_15 
ROOT
HETATM    1  C5  UNL     1      25.534   6.688  49.280  1.00  0.00     0.075 C 
HETATM    2  C6  UNL     1      24.392   6.997  49.821  1.00  0.00     0.052 C 
HETATM    3  C7  UNL     1      23.181   6.812  50.562  1.00  0.00     0.261 C 
HETATM    4  N2  UNL     1      22.419   5.994  51.248  1.00  0.00    -0.224 NA
HETATM    5  N3  UNL     1      22.870   4.678  51.400  1.00  0.00    -0.255 N 
HETATM    6  S1  UNL     1      24.493   4.602  50.849  1.00  0.00     0.067 SA
HETATM    7  N5  UNL     1      25.279   3.065  50.856  1.00  0.00    -0.359 NA
HETATM    8  C15 UNL     1      26.386   2.883  50.162  1.00  0.00     0.343 C 
HETATM    9  C16 UNL     1      26.420   4.227  49.652  1.00  0.00     0.012 C 
HETATM   10  C17 UNL     1      26.377   5.472  49.225  1.00  0.00    -0.030 C 
HETATM   11  C18 UNL     1      27.615   5.638  48.420  1.00  0.00     0.050 C 
ENDROOT
BRANCH   5  12
HETATM   12  C8  UNL     1      22.047   3.617  51.934  1.00  0.00     0.274 C 
BRANCH  12  13
HETATM   13  N4  UNL     1      22.547   2.361  51.445  1.00  0.00    -0.372 N 
HETATM   14  H15 UNL     1      22.882   2.114  50.494  1.00  0.00     0.161 HD
BRANCH  13  15
HETATM   15  C9  UNL     1      22.584   1.303  52.418  1.00  0.00     0.031 A 
HETATM   16  C10 UNL     1      21.447   0.760  52.969  1.00  0.00     0.032 A 
HETATM   17  C11 UNL     1      21.377  -0.250  53.900  1.00  0.00     0.046 A 
HETATM   18  C12 UNL     1      22.581  -0.776  54.325  1.00  0.00     0.138 A 
HETATM   19  F1  UNL     1      22.711  -1.772  55.233  1.00  0.00    -0.204 F 
HETATM   20  C13 UNL     1      23.765  -0.283  53.817  1.00  0.00     0.074 A 
HETATM   21 CL1  UNL     1      25.326  -0.901  54.314  1.00  0.00    -0.081 Cl
HETATM   22  C14 UNL     1      23.770   0.732  52.885  1.00  0.00     0.056 A 
ENDBRANCH  13  15
ENDBRANCH  12  13
ENDBRANCH   5  12
BRANCH   1  23
HETATM   23  O2  UNL     1      26.056   7.766  48.623  1.00  0.00    -0.348 OA
BRANCH  23  24
HETATM   24  C4  UNL     1      26.252   8.998  49.272  1.00  0.00     0.209 C 
BRANCH  24  25
HETATM   25  C3  UNL     1      27.579   8.996  50.003  1.00  0.00     0.170 C 
BRANCH  25  26
HETATM   26  C2  UNL     1      28.747   9.281  49.123  1.00  0.00     0.302 C 
BRANCH  26  27
HETATM   27  N1  UNL     1      29.893   8.462  49.484  1.00  0.00     0.081 N 
HETATM   28  C1  UNL     1      31.139   9.096  49.101  1.00  0.00     0.306 C 
HETATM   29  H4  UNL     1      29.808   7.556  48.979  1.00  0.00     0.315 HD
ENDBRANCH  26  27
ENDBRANCH  25  26
BRANCH  25  30
HETATM   30  O1  UNL     1      27.523   9.761  51.160  1.00  0.00    -0.392 OA
HETATM   31  H8  UNL     1      27.132  10.663  50.994  1.00  0.00     0.210 HD
ENDBRANCH  25  30
ENDBRANCH  24  25
ENDBRANCH  23  24
ENDBRANCH   1  23
TORSDOF 9
ENDMDL
MODEL 4
REMARK VINA RESULT:      -7.8      1.895      2.349
REMARK  9 active torsions:
REMARK  status: ('A' for Active; 'I' for Inactive)
REMARK    1  A    between atoms: N1_2  and  C2_3 
REMARK    2  A    between atoms: C2_3  and  C3_4 
REMARK    3  A    between atoms: C3_4  and  O1_5 
REMARK    4  A    between atoms: C3_4  and  C4_6 
REMARK    5  A    between atoms: C4_6  and  O2_7 
REMARK    6  A    between atoms: O2_7  and  C5_8 
REMARK    7  A    between atoms: N3_12  and  C8_13 
REMARK    8  A    between atoms: C8_13  and  N4_14 
REMARK    9  A    between atoms: N4_14  and  C9_15 
ROOT
HETATM    1  C5  UNL     1      25.535   0.185  53.054  1.00  0.00     0.075 C 
HETATM    2  C6  UNL     1      24.773  -0.505  53.852  1.00  0.00     0.052 C 
HETATM    3  C7  UNL     1      23.566  -0.957  54.473  1.00  0.00     0.261 C 
HETATM    4  N2  UNL     1      22.261  -0.849  54.561  1.00  0.00    -0.224 NA
HETATM    5  N3  UNL     1      21.641   0.094  53.734  1.00  0.00    -0.255 N 
HETATM    6  S1  UNL     1      22.801   0.659  52.604  1.00  0.00     0.067 SA
HETATM    7  N5  UNL     1      22.320   1.895  51.499  1.00  0.00    -0.359 NA
HETATM    8  C15 UNL     1      23.230   2.585  50.838  1.00  0.00     0.343 C 
HETATM    9  C16 UNL     1      24.344   1.897  51.430  1.00  0.00     0.012 C 
HETATM   10  C17 UNL     1      25.309   1.224  52.022  1.00  0.00    -0.030 C 
HETATM   11  C18 UNL     1      26.560   1.733  51.402  1.00  0.00     0.050 C 
ENDROOT
BRANCH   5  12
HETATM   12  C8  UNL     1      20.255   0.477  53.873  1.00  0.00     0.274 C 
BRANCH  12  13
HETATM   13  N4  UNL     1      19.449  -0.714  53.865  1.00  0.00    -0.372 N 
HETATM   14  H15 UNL     1      19.512  -1.552  54.473  1.00  0.00     0.161 HD
BRANCH  13  15
HETATM   15  C9  UNL     1      18.413  -0.738  52.868  1.00  0.00     0.031 A 
HETATM   16  C10 UNL     1      18.516  -0.065  51.672  1.00  0.00     0.032 A 
HETATM   17  C11 UNL     1      17.587  -0.027  50.659  1.00  0.00     0.046 A 
HETATM   18  C12 UNL     1      16.425  -0.744  50.867  1.00  0.00     0.138 A 
HETATM   19  F1  UNL     1      15.400  -0.824  49.985  1.00  0.00    -0.204 F 
HETATM   20  C13 UNL     1      16.248  -1.443  52.042  1.00  0.00     0.074 A 
HETATM   21 CL1  UNL     1      14.799  -2.369  52.371  1.00  0.00    -0.081 Cl
HETATM   22  C14 UNL     1      17.217  -1.443  53.021  1.00  0.00     0.056 A 
ENDBRANCH  13  15
ENDBRANCH  12  13
ENDBRANCH   5  12
BRANCH   1  23
HETATM   23  O2  UNL     1      26.844  -0.159  53.229  1.00  0.00    -0.348 OA
BRANCH  23  24
HETATM   24  C4  UNL     1      27.301  -1.464  52.970  1.00  0.00     0.209 C 
BRANCH  24  25
HETATM   25  C3  UNL     1      28.799  -1.544  53.183  1.00  0.00     0.170 C 
BRANCH  25  26
HETATM   26  C2  UNL     1      29.315  -0.556  54.171  1.00  0.00     0.302 C 
BRANCH  26  27
HETATM   27  N1  UNL     1      29.725   0.678  53.520  1.00  0.00     0.081 N 
HETATM   28  C1  UNL     1      29.310   1.841  54.279  1.00  0.00     0.306 C 
HETATM   29  H4  UNL     1      29.272   0.709  52.584  1.00  0.00     0.315 HD
ENDBRANCH  26  27
ENDBRANCH  25  26
BRANCH  25  30
HETATM   30  O1  UNL     1      29.213  -2.851  53.399  1.00  0.00    -0.392 OA
HETATM   31  H8  UNL     1      28.621  -3.331  54.042  1.00  0.00     0.210 HD
ENDBRANCH  25  30
ENDBRANCH  24  25
ENDBRANCH  23  24
ENDBRANCH   1  23
TORSDOF 9
ENDMDL
MODEL 5
REMARK VINA RESULT:      -7.7      6.802      9.345
REMARK  9 active torsions:
REMARK  status: ('A' for Active; 'I' for Inactive)
REMARK    1  A    between atoms: N1_2  and  C2_3 
REMARK    2  A    between atoms: C2_3  and  C3_4 
REMARK    3  A    between atoms: C3_4  and  O1_5 
REMARK    4  A    between atoms: C3_4  and  C4_6 
REMARK    5  A    between atoms: C4_6  and  O2_7 
REMARK    6  A    between atoms: O2_7  and  C5_8 
REMARK    7  A    between atoms: N3_12  and  C8_13 
REMARK    8  A    between atoms: C8_13  and  N4_14 
REMARK    9  A    between atoms: N4_14  and  C9_15 
ROOT
HETATM    1  C5  UNL     1      27.296   7.460  48.766  1.00  0.00     0.075 C 
HETATM    2  C6  UNL     1      27.676   6.232  48.570  1.00  0.00     0.052 C 
HETATM    3  C7  UNL     1      27.658   4.804  48.671  1.00  0.00     0.261 C 
HETATM    4  N2  UNL     1      27.075   3.739  49.168  1.00  0.00    -0.224 NA
HETATM    5  N3  UNL     1      25.958   3.945  49.985  1.00  0.00    -0.255 N 
HETATM    6  S1  UNL     1      25.503   5.595  49.862  1.00  0.00     0.067 SA
HETATM    7  N5  UNL     1      24.185   6.146  50.832  1.00  0.00    -0.359 NA
HETATM    8  C15 UNL     1      23.997   7.437  51.024  1.00  0.00     0.343 C 
HETATM    9  C16 UNL     1      25.132   7.833  50.235  1.00  0.00     0.012 C 
HETATM   10  C17 UNL     1      26.189   8.113  49.502  1.00  0.00    -0.030 C 
HETATM   11  C18 UNL     1      26.224   9.598  49.441  1.00  0.00     0.050 C 
ENDROOT
BRANCH   5  12
HETATM   12  C8  UNL     1      25.350   2.897  50.772  1.00  0.00     0.274 C 
BRANCH  12  13
HETATM   13  N4  UNL     1      25.848   2.990  52.118  1.00  0.00    -0.372 N 
HETATM   14  H15 UNL     1      25.660   3.715  52.838  1.00  0.00     0.161 HD
BRANCH  13  15
HETATM   15  C9  UNL     1      26.731   1.927  52.514  1.00  0.00     0.031 A 
HETATM   16  C10 UNL     1      27.929   2.155  53.152  1.00  0.00     0.032 A 
HETATM   17  C11 UNL     1      28.838   1.211  53.571  1.00  0.00     0.046 A 
HETATM   18  C12 UNL     1      28.510  -0.107  53.323  1.00  0.00     0.138 A 
HETATM   19  F1  UNL     1      29.278  -1.170  53.661  1.00  0.00    -0.204 F 
HETATM   20  C13 UNL     1      27.326  -0.414  52.686  1.00  0.00     0.074 A 
HETATM   21 CL1  UNL     1      26.851  -2.063  52.339  1.00  0.00    -0.081 Cl
HETATM   22  C14 UNL     1      26.455   0.577  52.290  1.00  0.00     0.056 A 
ENDBRANCH  13  15
ENDBRANCH  12  13
ENDBRANCH   5  12
BRANCH   1  23
HETATM   23  O2  UNL     1      28.133   8.327  48.122  1.00  0.00    -0.348 OA
BRANCH  23  24
HETATM   24  C4  UNL     1      29.475   7.995  47.863  1.00  0.00     0.209 C 
BRANCH  24  25
HETATM   25  C3  UNL     1      30.395   8.823  48.736  1.00  0.00     0.170 C 
BRANCH  25  26
HETATM   26  C2  UNL     1      29.854  10.171  49.065  1.00  0.00     0.302 C 
BRANCH  26  27
HETATM   27  N1  UNL     1      29.829  11.031  47.892  1.00  0.00     0.081 N 
HETATM   28  C1  UNL     1      28.683  11.918  47.909  1.00  0.00     0.306 C 
HETATM   29  H4  UNL     1      29.770  10.421  47.052  1.00  0.00     0.315 HD
ENDBRANCH  26  27
ENDBRANCH  25  26
BRANCH  25  30
HETATM   30  O1  UNL     1      30.849   8.097  49.829  1.00  0.00    -0.392 OA
HETATM   31  H8  UNL     1      30.542   7.149  49.803  1.00  0.00     0.210 HD
ENDBRANCH  25  30
ENDBRANCH  24  25
ENDBRANCH  23  24
ENDBRANCH   1  23
TORSDOF 9
ENDMDL
MODEL 6
REMARK VINA RESULT:      -7.7      4.099      5.521
REMARK  9 active torsions:
REMARK  status: ('A' for Active; 'I' for Inactive)
REMARK    1  A    between atoms: N1_2  and  C2_3 
REMARK    2  A    between atoms: C2_3  and  C3_4 
REMARK    3  A    between atoms: C3_4  and  O1_5 
REMARK    4  A    between atoms: C3_4  and  C4_6 
REMARK    5  A    between atoms: C4_6  and  O2_7 
REMARK    6  A    between atoms: O2_7  and  C5_8 
REMARK    7  A    between atoms: N3_12  and  C8_13 
REMARK    8  A    between atoms: C8_13  and  N4_14 
REMARK    9  A    between atoms: N4_14  and  C9_15 
ROOT
HETATM    1  C5  UNL     1      25.727   4.639  49.801  1.00  0.00     0.075 C 
HETATM    2  C6  UNL     1      26.397   3.565  50.101  1.00  0.00     0.052 C 
HETATM    3  C7  UNL     1      26.712   2.342  50.775  1.00  0.00     0.261 C 
HETATM    4  N2  UNL     1      26.372   1.465  51.689  1.00  0.00    -0.224 NA
HETATM    5  N3  UNL     1      25.195   1.712  52.405  1.00  0.00    -0.255 N 
HETATM    6  S1  UNL     1      24.370   3.010  51.645  1.00  0.00     0.067 SA
HETATM    7  N5  UNL     1      22.909   3.577  52.370  1.00  0.00    -0.359 NA
HETATM    8  C15 UNL     1      22.411   4.749  52.030  1.00  0.00     0.343 C 
HETATM    9  C16 UNL     1      23.460   5.049  51.094  1.00  0.00     0.012 C 
HETATM   10  C17 UNL     1      24.459   5.250  50.261  1.00  0.00    -0.030 C 
HETATM   11  C18 UNL     1      24.145   6.544  49.600  1.00  0.00     0.050 C 
ENDROOT
BRANCH   5  12
HETATM   12  C8  UNL     1      24.812   0.962  53.579  1.00  0.00     0.274 C 
BRANCH  12  13
HETATM   13  N4  UNL     1      24.309  -0.318  53.158  1.00  0.00    -0.372 N 
HETATM   14  H15 UNL     1      24.828  -1.137  52.788  1.00  0.00     0.161 HD
BRANCH  13  15
HETATM   15  C9  UNL     1      22.884  -0.476  53.269  1.00  0.00     0.031 A 
HETATM   16  C10 UNL     1      22.291  -1.168  54.300  1.00  0.00     0.032 A 
HETATM   17  C11 UNL     1      20.945  -1.373  54.496  1.00  0.00     0.046 A 
HETATM   18  C12 UNL     1      20.099  -0.822  53.554  1.00  0.00     0.138 A 
HETATM   19  F1  UNL     1      18.748  -0.918  53.580  1.00  0.00    -0.204 F 
HETATM   20  C13 UNL     1      20.619  -0.114  52.491  1.00  0.00     0.074 A 
HETATM   21 CL1  UNL     1      19.604   0.608  51.260  1.00  0.00    -0.081 Cl
HETATM   22  C14 UNL     1      21.979   0.057  52.349  1.00  0.00     0.056 A 
ENDBRANCH  13  15
ENDBRANCH  12  13
ENDBRANCH   5  12
BRANCH   1  23
HETATM   23  O2  UNL     1      26.369   5.342  48.821  1.00  0.00    -0.348 OA
BRANCH  23  24
HETATM   24  C4  UNL     1      27.720   5.105  48.512  1.00  0.00     0.209 C 
BRANCH  24  25
HETATM   25  C3  UNL     1      28.445   6.418  48.301  1.00  0.00     0.170 C 
BRANCH  25  26
HETATM   26  C2  UNL     1      27.567   7.614  48.439  1.00  0.00     0.302 C 
BRANCH  26  27
HETATM   27  N1  UNL     1      27.380   7.974  49.835  1.00  0.00     0.081 N 
HETATM   28  C1  UNL     1      27.659   9.379  50.062  1.00  0.00     0.306 C 
HETATM   29  H4  UNL     1      28.041   7.405  50.402  1.00  0.00     0.315 HD
ENDBRANCH  26  27
ENDBRANCH  25  26
BRANCH  25  30
HETATM   30  O1  UNL     1      29.621   6.474  49.035  1.00  0.00    -0.392 OA
HETATM   31  H8  UNL     1      29.882   7.412  49.254  1.00  0.00     0.210 HD
ENDBRANCH  25  30
ENDBRANCH  24  25
ENDBRANCH  23  24
ENDBRANCH   1  23
TORSDOF 9
ENDMDL
MODEL 7
REMARK VINA RESULT:      -7.5      1.981      3.309
REMARK  9 active torsions:
REMARK  status: ('A' for Active; 'I' for Inactive)
REMARK    1  A    between atoms: N1_2  and  C2_3 
REMARK    2  A    between atoms: C2_3  and  C3_4 
REMARK    3  A    between atoms: C3_4  and  O1_5 
REMARK    4  A    between atoms: C3_4  and  C4_6 
REMARK    5  A    between atoms: C4_6  and  O2_7 
REMARK    6  A    between atoms: O2_7  and  C5_8 
REMARK    7  A    between atoms: N3_12  and  C8_13 
REMARK    8  A    between atoms: C8_13  and  N4_14 
REMARK    9  A    between atoms: N4_14  and  C9_15 
ROOT
HETATM    1  C5  UNL     1      25.002   0.860  52.516  1.00  0.00     0.075 C 
HETATM    2  C6  UNL     1      24.564   1.662  51.589  1.00  0.00     0.052 C 
HETATM    3  C7  UNL     1      23.615   2.346  50.766  1.00  0.00     0.261 C 
HETATM    4  N2  UNL     1      22.353   2.540  50.462  1.00  0.00    -0.224 NA
HETATM    5  N3  UNL     1      21.402   1.817  51.190  1.00  0.00    -0.255 N 
HETATM    6  S1  UNL     1      22.199   1.063  52.509  1.00  0.00     0.067 SA
HETATM    7  N5  UNL     1      21.267   0.038  53.540  1.00  0.00    -0.359 NA
HETATM    8  C15 UNL     1      21.868  -0.805  54.356  1.00  0.00     0.343 C 
HETATM    9  C16 UNL     1      23.194  -0.431  53.947  1.00  0.00     0.012 C 
HETATM   10  C17 UNL     1      24.373  -0.036  53.513  1.00  0.00    -0.030 C 
HETATM   11  C18 UNL     1      25.351  -0.786  54.344  1.00  0.00     0.050 C 
ENDROOT
BRANCH   5  12
HETATM   12  C8  UNL     1      20.005   1.760  50.827  1.00  0.00     0.274 C 
BRANCH  12  13
HETATM   13  N4  UNL     1      19.555   0.400  50.953  1.00  0.00    -0.372 N 
HETATM   14  H15 UNL     1      20.044  -0.479  50.693  1.00  0.00     0.161 HD
BRANCH  13  15
HETATM   15  C9  UNL     1      18.243   0.245  51.520  1.00  0.00     0.031 A 
HETATM   16  C10 UNL     1      17.884  -0.850  52.272  1.00  0.00     0.032 A 
HETATM   17  C11 UNL     1      16.662  -1.090  52.857  1.00  0.00     0.046 A 
HETATM   18  C12 UNL     1      15.692  -0.125  52.666  1.00  0.00     0.138 A 
HETATM   19  F1  UNL     1      14.434  -0.187  53.163  1.00  0.00    -0.204 F 
HETATM   20  C13 UNL     1      15.978   1.001  51.923  1.00  0.00     0.074 A 
HETATM   21 CL1  UNL     1      14.795   2.261  51.640  1.00  0.00    -0.081 Cl
HETATM   22  C14 UNL     1      17.223   1.185  51.362  1.00  0.00     0.056 A 
ENDBRANCH  13  15
ENDBRANCH  12  13
ENDBRANCH   5  12
BRANCH   1  23
HETATM   23  O2  UNL     1      26.367   0.879  52.557  1.00  0.00    -0.348 OA
BRANCH  23  24
HETATM   24  C4  UNL     1      27.092   2.058  52.306  1.00  0.00     0.209 C 
BRANCH  24  25
HETATM   25  C3  UNL     1      28.114   2.285  53.401  1.00  0.00     0.170 C 
BRANCH  25  26
HETATM   26  C2  UNL     1      28.558   1.032  54.074  1.00  0.00     0.302 C 
BRANCH  26  27
HETATM   27  N1  UNL     1      29.857   0.601  53.584  1.00  0.00     0.081 N 
HETATM   28  C1  UNL     1      29.963  -0.845  53.563  1.00  0.00     0.306 C 
HETATM   29  H4  UNL     1      30.582   0.981  54.227  1.00  0.00     0.315 HD
ENDBRANCH  26  27
ENDBRANCH  25  26
BRANCH  25  30
HETATM   30  O1  UNL     1      29.145   3.110  52.973  1.00  0.00    -0.392 OA
HETATM   31  H8  UNL     1      29.846   3.226  53.671  1.00  0.00     0.210 HD
ENDBRANCH  25  30
ENDBRANCH  24  25
ENDBRANCH  23  24
ENDBRANCH   1  23
TORSDOF 9
ENDMDL
MODEL 8
REMARK VINA RESULT:      -7.5      6.244      9.113
REMARK  9 active torsions:
REMARK  status: ('A' for Active; 'I' for Inactive)
REMARK    1  A    between atoms: N1_2  and  C2_3 
REMARK    2  A    between atoms: C2_3  and  C3_4 
REMARK    3  A    between atoms: C3_4  and  O1_5 
REMARK    4  A    between atoms: C3_4  and  C4_6 
REMARK    5  A    between atoms: C4_6  and  O2_7 
REMARK    6  A    between atoms: O2_7  and  C5_8 
REMARK    7  A    between atoms: N3_12  and  C8_13 
REMARK    8  A    between atoms: C8_13  and  N4_14 
REMARK    9  A    between atoms: N4_14  and  C9_15 
ROOT
HETATM    1  C5  UNL     1      25.715   0.340  52.869  1.00  0.00     0.075 C 
HETATM    2  C6  UNL     1      26.481   1.127  52.171  1.00  0.00     0.052 C 
HETATM    3  C7  UNL     1      26.841   2.239  51.345  1.00  0.00     0.261 C 
HETATM    4  N2  UNL     1      26.444   3.313  50.703  1.00  0.00    -0.224 NA
HETATM    5  N3  UNL     1      25.083   3.630  50.769  1.00  0.00    -0.255 N 
HETATM    6  S1  UNL     1      24.356   2.623  51.952  1.00  0.00     0.067 SA
HETATM    7  N5  UNL     1      22.651   2.753  52.188  1.00  0.00    -0.359 NA
HETATM    8  C15 UNL     1      21.996   1.807  52.833  1.00  0.00     0.343 C 
HETATM    9  C16 UNL     1      23.164   1.000  53.062  1.00  0.00     0.012 C 
HETATM   10  C17 UNL     1      24.278   0.317  53.225  1.00  0.00    -0.030 C 
HETATM   11  C18 UNL     1      23.884  -0.858  54.045  1.00  0.00     0.050 C 
ENDROOT
BRANCH   5  12
HETATM   12  C8  UNL     1      24.467   4.644  49.943  1.00  0.00     0.274 C 
BRANCH  12  13
HETATM   13  N4  UNL     1      25.364   4.961  48.865  1.00  0.00    -0.372 N 
HETATM   14  H15 UNL     1      25.537   4.443  47.982  1.00  0.00     0.161 HD
BRANCH  13  15
HETATM   15  C9  UNL     1      26.125   6.168  49.045  1.00  0.00     0.031 A 
HETATM   16  C10 UNL     1      25.757   7.154  49.930  1.00  0.00     0.032 A 
HETATM   17  C11 UNL     1      26.415   8.337  50.175  1.00  0.00     0.046 A 
HETATM   18  C12 UNL     1      27.572   8.555  49.452  1.00  0.00     0.138 A 
HETATM   19  F1  UNL     1      28.351   9.658  49.558  1.00  0.00    -0.204 F 
HETATM   20  C13 UNL     1      28.004   7.611  48.546  1.00  0.00     0.074 A 
HETATM   21 CL1  UNL     1      29.460   7.825  47.595  1.00  0.00    -0.081 Cl
HETATM   22  C14 UNL     1      27.301   6.444  48.344  1.00  0.00     0.056 A 
ENDBRANCH  13  15
ENDBRANCH  12  13
ENDBRANCH   5  12
BRANCH   1  23
HETATM   23  O2  UNL     1      26.441  -0.693  53.388  1.00  0.00    -0.348 OA
BRANCH  23  24
HETATM   24  C4  UNL     1      27.078  -1.633  52.557  1.00  0.00     0.209 C 
BRANCH  24  25
HETATM   25  C3  UNL     1      28.472  -1.925  53.072  1.00  0.00     0.170 C 
BRANCH  25  26
HETATM   26  C2  UNL     1      28.932  -0.974  54.123  1.00  0.00     0.302 C 
BRANCH  26  27
HETATM   27  N1  UNL     1      29.569   0.194  53.537  1.00  0.00     0.081 N 
HETATM   28  C1  UNL     1      29.324   1.384  54.327  1.00  0.00     0.306 C 
HETATM   29  H4  UNL     1      29.168   0.332  52.587  1.00  0.00     0.315 HD
ENDBRANCH  26  27
ENDBRANCH  25  26
BRANCH  25  30
HETATM   30  O1  UNL     1      28.625  -3.266  53.396  1.00  0.00    -0.392 OA
HETATM   31  H8  UNL     1      27.749  -3.722  53.530  1.00  0.00     0.210 HD
ENDBRANCH  25  30
ENDBRANCH  24  25
ENDBRANCH  23  24
ENDBRANCH   1  23
TORSDOF 9
ENDMDL
MODEL 9
REMARK VINA RESULT:      -7.5      2.449      3.952
REMARK  9 active torsions:
REMARK  status: ('A' for Active; 'I' for Inactive)
REMARK    1  A    between atoms: N1_2  and  C2_3 
REMARK    2  A    between atoms: C2_3  and  C3_4 
REMARK    3  A    between atoms: C3_4  and  O1_5 
REMARK    4  A    between atoms: C3_4  and  C4_6 
REMARK    5  A    between atoms: C4_6  and  O2_7 
REMARK    6  A    between atoms: O2_7  and  C5_8 
REMARK    7  A    between atoms: N3_12  and  C8_13 
REMARK    8  A    between atoms: C8_13  and  N4_14 
REMARK    9  A    between atoms: N4_14  and  C9_15 
ROOT
HETATM    1  C5  UNL     1      23.577   1.029  52.132  1.00  0.00     0.075 C 
HETATM    2  C6  UNL     1      22.680   1.482  51.307  1.00  0.00     0.052 C 
HETATM    3  C7  UNL     1      21.392   1.641  50.702  1.00  0.00     0.261 C 
HETATM    4  N2  UNL     1      20.127   1.292  50.687  1.00  0.00    -0.224 NA
HETATM    5  N3  UNL     1      19.715   0.346  51.632  1.00  0.00    -0.255 N 
HETATM    6  S1  UNL     1      20.992   0.121  52.756  1.00  0.00     0.067 SA
HETATM    7  N5  UNL     1      20.778  -1.058  53.999  1.00  0.00    -0.359 NA
HETATM    8  C15 UNL     1      21.817  -1.499  54.680  1.00  0.00     0.343 C 
HETATM    9  C16 UNL     1      22.769  -0.688  53.971  1.00  0.00     0.012 C 
HETATM   10  C17 UNL     1      23.576   0.081  53.270  1.00  0.00    -0.030 C 
HETATM   11  C18 UNL     1      24.917  -0.126  53.878  1.00  0.00     0.050 C 
ENDROOT
BRANCH   5  12
HETATM   12  C8  UNL     1      18.420  -0.293  51.597  1.00  0.00     0.274 C 
BRANCH  12  13
HETATM   13  N4  UNL     1      18.105  -0.760  52.920  1.00  0.00    -0.372 N 
HETATM   14  H15 UNL     1      18.406  -0.380  53.838  1.00  0.00     0.161 HD
BRANCH  13  15
HETATM   15  C9  UNL     1      17.255  -1.918  52.968  1.00  0.00     0.031 A 
HETATM   16  C10 UNL     1      17.604  -3.070  53.635  1.00  0.00     0.032 A 
HETATM   17  C11 UNL     1      16.864  -4.224  53.741  1.00  0.00     0.046 A 
HETATM   18  C12 UNL     1      15.636  -4.225  53.109  1.00  0.00     0.138 A 
HETATM   19  F1  UNL     1      14.772  -5.267  53.104  1.00  0.00    -0.204 F 
HETATM   20  C13 UNL     1      15.217  -3.107  52.419  1.00  0.00     0.074 A 
HETATM   21 CL1  UNL     1      13.674  -3.041  51.593  1.00  0.00    -0.081 Cl
HETATM   22  C14 UNL     1      16.004  -1.979  52.348  1.00  0.00     0.056 A 
ENDBRANCH  13  15
ENDBRANCH  12  13
ENDBRANCH   5  12
BRANCH   1  23
HETATM   23  O2  UNL     1      24.796   1.583  51.862  1.00  0.00    -0.348 OA
BRANCH  23  24
HETATM   24  C4  UNL     1      24.920   2.928  51.469  1.00  0.00     0.209 C 
BRANCH  24  25
HETATM   25  C3  UNL     1      26.097   3.090  50.529  1.00  0.00     0.170 C 
BRANCH  25  26
HETATM   26  C2  UNL     1      25.897   4.148  49.499  1.00  0.00     0.302 C 
BRANCH  26  27
HETATM   27  N1  UNL     1      26.587   5.376  49.862  1.00  0.00     0.081 N 
HETATM   28  C1  UNL     1      26.611   6.315  48.758  1.00  0.00     0.306 C 
HETATM   29  H4  UNL     1      27.566   5.128  50.114  1.00  0.00     0.315 HD
ENDBRANCH  26  27
ENDBRANCH  25  26
BRANCH  25  30
HETATM   30  O1  UNL     1      27.296   3.175  51.223  1.00  0.00    -0.392 OA
HETATM   31  H8  UNL     1      27.742   2.288  51.311  1.00  0.00     0.210 HD
ENDBRANCH  25  30
ENDBRANCH  24  25
ENDBRANCH  23  24
ENDBRANCH   1  23
TORSDOF 9
ENDMDL
