MODEL 1
REMARK VINA RESULT:      -8.4      0.000      0.000
REMARK  2 active torsions:
REMARK  status: ('A' for Active; 'I' for Inactive)
REMARK    1  A    between atoms: C2_2  and  C3_3 
REMARK    2  A    between atoms: C6_9  and  O1_10 
ROOT
HETATM    1  C3  UNL     1      27.397  -0.176  53.981  1.00  0.00     0.034 C 
HETATM    2  N1  UNL     1      26.501  -0.153  54.879  1.00  0.00    -0.185 NA
HETATM    3  N2  UNL     1      25.200  -0.376  54.367  1.00  0.00    -0.293 N 
HETATM    4  C4  UNL     1      24.063  -0.900  55.097  1.00  0.00     0.167 C 
HETATM    5  P1  UNL     1      22.848  -1.736  53.943  1.00  0.00    -0.128 P 
HETATM    6  C5  UNL     1      21.182  -0.992  54.037  1.00  0.00     0.157 C 
HETATM    7  C6  UNL     1      20.624  -0.137  53.166  1.00  0.00     0.125 C 
HETATM    8  N3  UNL     1      20.097   0.782  52.179  1.00  0.00    -0.338 N 
HETATM    9  C7  UNL     1      18.804   0.551  51.597  1.00  0.00     0.154 C 
HETATM   10  C8  UNL     1      21.052   1.828  51.951  1.00  0.00     0.276 C 
HETATM   11  F1  UNL     1      20.438   2.929  51.373  1.00  0.00    -0.226 F 
HETATM   12  C9  UNL     1      22.179   1.320  51.110  1.00  0.00     0.097 C 
HETATM   13  C10 UNL     1      23.276   2.293  50.958  1.00  0.00    -0.053 C 
HETATM   14  C11 UNL     1      23.674   2.531  52.211  1.00  0.00     0.016 C 
HETATM   15  P2  UNL     1      25.293   1.850  52.714  1.00  0.00    -0.067 P 
HETATM   16  C12 UNL     1      26.490   2.245  51.320  1.00  0.00     0.044 C 
HETATM   17  C13 UNL     1      26.090   3.522  50.597  1.00  0.00     0.032 C 
HETATM   18  C14 UNL     1      25.016   3.313  49.596  1.00  0.00    -0.026 C 
HETATM   19  C15 UNL     1      23.793   2.825  49.727  1.00  0.00     0.003 C 
HETATM   20  C16 UNL     1      25.296   0.043  52.981  1.00  0.00     0.141 C 
HETATM   21  C17 UNL     1      26.724  -0.441  52.679  1.00  0.00     0.088 C 
HETATM   22  H8  UNL     1      22.711  -3.157  54.319  1.00  0.00     0.050 HD
ENDROOT
BRANCH   1  23
HETATM   23  C2  UNL     1      28.854   0.024  54.205  1.00  0.00     0.052 C 
HETATM   24  C1  UNL     1      29.699  -0.994  53.482  1.00  0.00     0.011 C 
ENDBRANCH   1  23
BRANCH   7  25
HETATM   25  O1  UNL     1      19.571  -0.258  54.106  1.00  0.00    -0.349 OA
HETATM   26  H10 UNL     1      18.666   0.154  53.937  1.00  0.00     0.219 HD
ENDBRANCH   7  25
TORSDOF 2
ENDMDL
MODEL 2
REMARK VINA RESULT:      -7.9      2.378      4.300
REMARK  2 active torsions:
REMARK  status: ('A' for Active; 'I' for Inactive)
REMARK    1  A    between atoms: C2_2  and  C3_3 
REMARK    2  A    between atoms: C6_9  and  O1_10 
ROOT
HETATM    1  C3  UNL     1      27.532   1.903  53.051  1.00  0.00     0.034 C 
HETATM    2  N1  UNL     1      27.166   2.058  51.846  1.00  0.00    -0.185 NA
HETATM    3  N2  UNL     1      25.818   2.475  51.727  1.00  0.00    -0.293 N 
HETATM    4  C4  UNL     1      25.234   3.203  50.618  1.00  0.00     0.167 C 
HETATM    5  P1  UNL     1      23.741   4.189  51.172  1.00  0.00    -0.128 P 
HETATM    6  C5  UNL     1      22.231   3.733  50.249  1.00  0.00     0.157 C 
HETATM    7  C6  UNL     1      21.225   2.953  50.672  1.00  0.00     0.125 C 
HETATM    8  N3  UNL     1      20.182   2.102  51.207  1.00  0.00    -0.338 N 
HETATM    9  C7  UNL     1      18.810   2.524  51.155  1.00  0.00     0.154 C 
HETATM   10  C8  UNL     1      20.774   0.905  51.734  1.00  0.00     0.276 C 
HETATM   11  F1  UNL     1      19.824  -0.097  51.847  1.00  0.00    -0.226 F 
HETATM   12  C9  UNL     1      21.433   1.193  53.045  1.00  0.00     0.097 C 
HETATM   13  C10 UNL     1      22.194   0.049  53.578  1.00  0.00    -0.053 C 
HETATM   14  C11 UNL     1      23.097  -0.211  52.628  1.00  0.00     0.016 C 
HETATM   15  P2  UNL     1      24.836   0.211  52.995  1.00  0.00    -0.067 P 
HETATM   16  C12 UNL     1      25.179  -0.421  54.730  1.00  0.00     0.044 C 
HETATM   17  C13 UNL     1      24.324  -1.638  55.051  1.00  0.00     0.032 C 
HETATM   18  C14 UNL     1      22.945  -1.288  55.467  1.00  0.00    -0.026 C 
HETATM   19  C15 UNL     1      22.001  -0.602  54.844  1.00  0.00     0.003 C 
HETATM   20  C16 UNL     1      25.199   2.001  52.951  1.00  0.00     0.141 C 
HETATM   21  C17 UNL     1      26.369   2.232  53.921  1.00  0.00     0.088 C 
HETATM   22  H8  UNL     1      23.982   5.625  50.927  1.00  0.00     0.050 HD
ENDROOT
BRANCH   1  23
HETATM   23  C2  UNL     1      28.885   1.473  53.497  1.00  0.00     0.052 C 
HETATM   24  C1  UNL     1      28.834   0.460  54.613  1.00  0.00     0.011 C 
ENDBRANCH   1  23
BRANCH   7  25
HETATM   25  O1  UNL     1      20.759   3.277  49.374  1.00  0.00    -0.349 OA
HETATM   26  H10 UNL     1      20.682   4.235  49.068  1.00  0.00     0.219 HD
ENDBRANCH   7  25
TORSDOF 2
ENDMDL
MODEL 3
REMARK VINA RESULT:      -7.7      3.296      5.725
REMARK  2 active torsions:
REMARK  status: ('A' for Active; 'I' for Inactive)
REMARK    1  A    between atoms: C2_2  and  C3_3 
REMARK    2  A    between atoms: C6_9  and  O1_10 
ROOT
HETATM    1  C3  UNL     1      21.095  -0.022  53.281  1.00  0.00     0.034 C 
HETATM    2  N1  UNL     1      20.567   1.120  53.441  1.00  0.00    -0.185 NA
HETATM    3  N2  UNL     1      20.844   2.012  52.377  1.00  0.00    -0.293 N 
HETATM    4  C4  UNL     1      20.047   3.155  51.978  1.00  0.00     0.167 C 
HETATM    5  P1  UNL     1      20.306   3.557  50.168  1.00  0.00    -0.128 P 
HETATM    6  C5  UNL     1      20.904   5.266  49.919  1.00  0.00     0.157 C 
HETATM    7  C6  UNL     1      22.160   5.655  49.651  1.00  0.00     0.125 C 
HETATM    8  N3  UNL     1      23.540   5.989  49.363  1.00  0.00    -0.338 N 
HETATM    9  C7  UNL     1      23.858   6.845  48.253  1.00  0.00     0.154 C 
HETATM   10  C8  UNL     1      24.392   5.342  50.319  1.00  0.00     0.276 C 
HETATM   11  F1  UNL     1      25.632   5.959  50.362  1.00  0.00    -0.226 F 
HETATM   12  C9  UNL     1      24.510   3.885  49.997  1.00  0.00     0.097 C 
HETATM   13  C10 UNL     1      25.246   3.122  51.021  1.00  0.00    -0.053 C 
HETATM   14  C11 UNL     1      24.542   3.316  52.140  1.00  0.00     0.016 C 
HETATM   15  P2  UNL     1      23.587   1.896  52.780  1.00  0.00    -0.067 P 
HETATM   16  C12 UNL     1      24.735   0.411  52.710  1.00  0.00     0.044 C 
HETATM   17  C13 UNL     1      26.189   0.832  52.872  1.00  0.00     0.032 C 
HETATM   18  C14 UNL     1      26.791   1.339  51.615  1.00  0.00    -0.026 C 
HETATM   19  C15 UNL     1      26.433   2.337  50.824  1.00  0.00     0.003 C 
HETATM   20  C16 UNL     1      22.083   1.508  51.816  1.00  0.00     0.141 C 
HETATM   21  C17 UNL     1      21.833   0.000  51.987  1.00  0.00     0.088 C 
HETATM   22  H8  UNL     1      19.021   3.439  49.449  1.00  0.00     0.050 HD
ENDROOT
BRANCH   1  23
HETATM   23  C2  UNL     1      20.986  -1.168  54.223  1.00  0.00     0.052 C 
HETATM   24  C1  UNL     1      22.269  -1.432  54.970  1.00  0.00     0.011 C 
ENDBRANCH   1  23
BRANCH   7  25
HETATM   25  O1  UNL     1      21.509   6.913  49.674  1.00  0.00    -0.349 OA
HETATM   26  H10 UNL     1      22.031   7.775  49.636  1.00  0.00     0.219 HD
ENDBRANCH   7  25
TORSDOF 2
ENDMDL
MODEL 4
REMARK VINA RESULT:      -7.4      3.680      7.390
REMARK  2 active torsions:
REMARK  status: ('A' for Active; 'I' for Inactive)
REMARK    1  A    between atoms: C2_2  and  C3_3 
REMARK    2  A    between atoms: C6_9  and  O1_10 
ROOT
HETATM    1  C3  UNL     1      17.803   1.095  51.246  1.00  0.00     0.034 C 
HETATM    2  N1  UNL     1      18.103   2.287  50.932  1.00  0.00    -0.185 NA
HETATM    3  N2  UNL     1      19.408   2.407  50.398  1.00  0.00    -0.293 N 
HETATM    4  C4  UNL     1      19.886   3.448  49.510  1.00  0.00     0.167 C 
HETATM    5  P1  UNL     1      21.323   2.842  48.474  1.00  0.00    -0.128 P 
HETATM    6  C5  UNL     1      22.820   3.864  48.704  1.00  0.00     0.157 C 
HETATM    7  C6  UNL     1      23.900   3.567  49.442  1.00  0.00     0.125 C 
HETATM    8  N3  UNL     1      25.027   3.169  50.260  1.00  0.00    -0.338 N 
HETATM    9  C7  UNL     1      26.360   3.222  49.726  1.00  0.00     0.154 C 
HETATM   10  C8  UNL     1      24.552   2.757  51.550  1.00  0.00     0.276 C 
HETATM   11  F1  UNL     1      25.579   2.790  52.480  1.00  0.00    -0.226 F 
HETATM   12  C9  UNL     1      23.932   1.399  51.460  1.00  0.00     0.097 C 
HETATM   13  C10 UNL     1      23.285   0.970  52.712  1.00  0.00    -0.053 C 
HETATM   14  C11 UNL     1      22.362   1.910  52.939  1.00  0.00     0.016 C 
HETATM   15  P2  UNL     1      20.614   1.436  52.700  1.00  0.00    -0.067 P 
HETATM   16  C12 UNL     1      20.398  -0.230  53.542  1.00  0.00     0.044 C 
HETATM   17  C13 UNL     1      21.356  -0.382  54.714  1.00  0.00     0.032 C 
HETATM   18  C14 UNL     1      22.722  -0.784  54.302  1.00  0.00    -0.026 C 
HETATM   19  C15 UNL     1      23.583  -0.208  53.479  1.00  0.00     0.003 C 
HETATM   20  C16 UNL     1      20.115   1.267  50.951  1.00  0.00     0.141 C 
HETATM   21  C17 UNL     1      18.975   0.235  50.920  1.00  0.00     0.088 C 
HETATM   22  H8  UNL     1      20.963   2.917  47.043  1.00  0.00     0.050 HD
ENDROOT
BRANCH   1  23
HETATM   23  C2  UNL     1      16.508   0.650  51.828  1.00  0.00     0.052 C 
HETATM   24  C1  UNL     1      16.620  -0.664  52.558  1.00  0.00     0.011 C 
ENDBRANCH   1  23
BRANCH   7  25
HETATM   25  O1  UNL     1      24.282   4.836  48.943  1.00  0.00    -0.349 OA
HETATM   26  H10 UNL     1      23.946   5.174  48.054  1.00  0.00     0.219 HD
ENDBRANCH   7  25
TORSDOF 2
ENDMDL
MODEL 5
REMARK VINA RESULT:      -7.3      2.905      4.680
REMARK  2 active torsions:
REMARK  status: ('A' for Active; 'I' for Inactive)
REMARK    1  A    between atoms: C2_2  and  C3_3 
REMARK    2  A    between atoms: C6_9  and  O1_10 
ROOT
HETATM    1  C3  UNL     1      22.226  -0.523  54.128  1.00  0.00     0.034 C 
HETATM    2  N1  UNL     1      21.277   0.312  54.025  1.00  0.00    -0.185 NA
HETATM    3  N2  UNL     1      21.159   0.858  52.724  1.00  0.00    -0.293 N 
HETATM    4  C4  UNL     1      19.962   1.413  52.125  1.00  0.00     0.167 C 
HETATM    5  P1  UNL     1      20.026   1.294  50.257  1.00  0.00    -0.128 P 
HETATM    6  C5  UNL     1      19.871   2.928  49.454  1.00  0.00     0.157 C 
HETATM    7  C6  UNL     1      20.855   3.668  48.923  1.00  0.00     0.125 C 
HETATM    8  N3  UNL     1      21.975   4.403  48.372  1.00  0.00    -0.338 N 
HETATM    9  C7  UNL     1      21.910   4.919  47.033  1.00  0.00     0.154 C 
HETATM   10  C8  UNL     1      23.021   4.473  49.352  1.00  0.00     0.276 C 
HETATM   11  F1  UNL     1      23.900   5.503  49.053  1.00  0.00    -0.226 F 
HETATM   12  C9  UNL     1      23.725   3.157  49.446  1.00  0.00     0.097 C 
HETATM   13  C10 UNL     1      24.714   3.102  50.538  1.00  0.00    -0.053 C 
HETATM   14  C11 UNL     1      23.996   3.349  51.638  1.00  0.00     0.016 C 
HETATM   15  P2  UNL     1      23.710   1.949  52.776  1.00  0.00    -0.067 P 
HETATM   16  C12 UNL     1      25.366   1.086  52.981  1.00  0.00     0.044 C 
HETATM   17  C13 UNL     1      26.520   2.066  52.823  1.00  0.00     0.032 C 
HETATM   18  C14 UNL     1      26.857   2.344  51.406  1.00  0.00    -0.026 C 
HETATM   19  C15 UNL     1      26.118   2.821  50.418  1.00  0.00     0.003 C 
HETATM   20  C16 UNL     1      22.494   0.726  52.171  1.00  0.00     0.141 C 
HETATM   21  C17 UNL     1      22.885  -0.623  52.796  1.00  0.00     0.088 C 
HETATM   22  H8  UNL     1      18.901   0.466  49.778  1.00  0.00     0.050 HD
ENDROOT
BRANCH   1  23
HETATM   23  C2  UNL     1      22.600  -1.263  55.364  1.00  0.00     0.052 C 
HETATM   24  C1  UNL     1      24.092  -1.323  55.577  1.00  0.00     0.011 C 
ENDBRANCH   1  23
BRANCH   7  25
HETATM   25  O1  UNL     1      19.746   4.512  48.672  1.00  0.00    -0.349 OA
HETATM   26  H10 UNL     1      19.563   4.880  47.751  1.00  0.00     0.219 HD
ENDBRANCH   7  25
TORSDOF 2
ENDMDL
MODEL 6
REMARK VINA RESULT:      -7.2      3.577      5.509
REMARK  2 active torsions:
REMARK  status: ('A' for Active; 'I' for Inactive)
REMARK    1  A    between atoms: C2_2  and  C3_3 
REMARK    2  A    between atoms: C6_9  and  O1_10 
ROOT
HETATM    1  C3  UNL     1      24.653   3.322  50.419  1.00  0.00     0.034 C 
HETATM    2  N1  UNL     1      24.042   3.074  49.336  1.00  0.00    -0.185 NA
HETATM    3  N2  UNL     1      22.634   3.078  49.481  1.00  0.00    -0.293 N 
HETATM    4  C4  UNL     1      21.658   3.330  48.439  1.00  0.00     0.167 C 
HETATM    5  P1  UNL     1      20.061   3.993  49.158  1.00  0.00    -0.128 P 
HETATM    6  C5  UNL     1      18.626   2.943  48.737  1.00  0.00     0.157 C 
HETATM    7  C6  UNL     1      18.009   2.055  49.531  1.00  0.00     0.125 C 
HETATM    8  N3  UNL     1      17.401   1.117  50.452  1.00  0.00    -0.338 N 
HETATM    9  C7  UNL     1      15.980   1.137  50.667  1.00  0.00     0.154 C 
HETATM   10  C8  UNL     1      18.422   0.287  51.024  1.00  0.00     0.276 C 
HETATM   11  F1  UNL     1      17.870  -0.870  51.549  1.00  0.00    -0.226 F 
HETATM   12  C9  UNL     1      19.188   1.052  52.056  1.00  0.00     0.097 C 
HETATM   13  C10 UNL     1      20.352   0.316  52.581  1.00  0.00    -0.053 C 
HETATM   14  C11 UNL     1      21.100   0.078  51.500  1.00  0.00     0.016 C 
HETATM   15  P2  UNL     1      22.657   1.020  51.341  1.00  0.00    -0.067 P 
HETATM   16  C12 UNL     1      23.493   0.948  53.022  1.00  0.00     0.044 C 
HETATM   17  C13 UNL     1      23.135  -0.334  53.760  1.00  0.00     0.032 C 
HETATM   18  C14 UNL     1      21.816  -0.268  54.435  1.00  0.00    -0.026 C 
HETATM   19  C15 UNL     1      20.608  -0.030  53.952  1.00  0.00     0.003 C 
HETATM   20  C16 UNL     1      22.430   2.775  50.885  1.00  0.00     0.141 C 
HETATM   21  C17 UNL     1      23.627   3.537  51.476  1.00  0.00     0.088 C 
HETATM   22  H8  UNL     1      19.793   5.336  48.605  1.00  0.00     0.050 HD
ENDROOT
BRANCH   1  23
HETATM   23  C2  UNL     1      26.130   3.388  50.586  1.00  0.00     0.052 C 
HETATM   24  C1  UNL     1      26.826   3.974  49.383  1.00  0.00     0.011 C 
ENDBRANCH   1  23
BRANCH   7  25
HETATM   25  O1  UNL     1      17.235   1.915  48.353  1.00  0.00    -0.349 OA
HETATM   26  H10 UNL     1      16.533   2.595  48.101  1.00  0.00     0.219 HD
ENDBRANCH   7  25
TORSDOF 2
ENDMDL
MODEL 7
REMARK VINA RESULT:      -6.9      3.167      5.978
REMARK  2 active torsions:
REMARK  status: ('A' for Active; 'I' for Inactive)
REMARK    1  A    between atoms: C2_2  and  C3_3 
REMARK    2  A    between atoms: C6_9  and  O1_10 
ROOT
HETATM    1  C3  UNL     1      22.602   5.975  48.144  1.00  0.00     0.034 C 
HETATM    2  N1  UNL     1      21.641   5.159  48.001  1.00  0.00    -0.185 NA
HETATM    3  N2  UNL     1      21.297   4.493  49.202  1.00  0.00    -0.293 N 
HETATM    4  C4  UNL     1      20.009   3.914  49.530  1.00  0.00     0.167 C 
HETATM    5  P1  UNL     1      19.752   3.851  51.384  1.00  0.00    -0.128 P 
HETATM    6  C5  UNL     1      19.446   2.152  51.981  1.00  0.00     0.157 C 
HETATM    7  C6  UNL     1      20.318   1.339  52.597  1.00  0.00     0.125 C 
HETATM    8  N3  UNL     1      21.319   0.525  53.254  1.00  0.00    -0.338 N 
HETATM    9  C7  UNL     1      21.020  -0.115  54.505  1.00  0.00     0.154 C 
HETATM   10  C8  UNL     1      22.518   0.523  52.466  1.00  0.00     0.276 C 
HETATM   11  F1  UNL     1      23.322  -0.553  52.807  1.00  0.00    -0.226 F 
HETATM   12  C9  UNL     1      23.239   1.824  52.624  1.00  0.00     0.097 C 
HETATM   13  C10 UNL     1      24.401   1.958  51.728  1.00  0.00    -0.053 C 
HETATM   14  C11 UNL     1      23.882   1.838  50.503  1.00  0.00     0.016 C 
HETATM   15  P2  UNL     1      23.808   3.347  49.477  1.00  0.00    -0.067 P 
HETATM   16  C12 UNL     1      25.483   4.183  49.644  1.00  0.00     0.044 C 
HETATM   17  C13 UNL     1      26.583   3.163  49.899  1.00  0.00     0.032 C 
HETATM   18  C14 UNL     1      26.668   2.741  51.317  1.00  0.00    -0.026 C 
HETATM   19  C15 UNL     1      25.766   2.190  52.113  1.00  0.00     0.003 C 
HETATM   20  C16 UNL     1      22.517   4.537  49.985  1.00  0.00     0.141 C 
HETATM   21  C17 UNL     1      23.022   5.930  49.572  1.00  0.00     0.088 C 
HETATM   22  H8  UNL     1      18.568   4.657  51.743  1.00  0.00     0.050 HD
ENDROOT
BRANCH   1  23
HETATM   23  C2  UNL     1      23.189   6.821  47.070  1.00  0.00     0.052 C 
HETATM   24  C1  UNL     1      24.457   7.512  47.503  1.00  0.00     0.011 C 
ENDBRANCH   1  23
BRANCH   7  25
HETATM   25  O1  UNL     1      19.174   0.503  52.569  1.00  0.00    -0.349 OA
HETATM   26  H10 UNL     1      18.712   0.273  51.702  1.00  0.00     0.219 HD
ENDBRANCH   7  25
TORSDOF 2
ENDMDL
MODEL 8
REMARK VINA RESULT:      -6.9     10.435     12.687
REMARK  2 active torsions:
REMARK  status: ('A' for Active; 'I' for Inactive)
REMARK    1  A    between atoms: C2_2  and  C3_3 
REMARK    2  A    between atoms: C6_9  and  O1_10 
ROOT
HETATM    1  C3  UNL     1      33.291   4.957  45.804  1.00  0.00     0.034 C 
HETATM    2  N1  UNL     1      32.891   4.950  47.008  1.00  0.00    -0.185 NA
HETATM    3  N2  UNL     1      31.883   5.911  47.262  1.00  0.00    -0.293 N 
HETATM    4  C4  UNL     1      30.884   5.859  48.311  1.00  0.00     0.167 C 
HETATM    5  P1  UNL     1      29.359   6.837  47.838  1.00  0.00    -0.128 P 
HETATM    6  C5  UNL     1      28.981   8.155  49.046  1.00  0.00     0.157 C 
HETATM    7  C6  UNL     1      29.229   9.468  48.918  1.00  0.00     0.125 C 
HETATM    8  N3  UNL     1      29.530  10.868  48.700  1.00  0.00    -0.338 N 
HETATM    9  C7  UNL     1      28.511  11.863  48.892  1.00  0.00     0.154 C 
HETATM   10  C8  UNL     1      30.900  10.998  48.294  1.00  0.00     0.276 C 
HETATM   11  F1  UNL     1      31.345  12.295  48.497  1.00  0.00    -0.226 F 
HETATM   12  C9  UNL     1      31.055  10.577  46.867  1.00  0.00     0.097 C 
HETATM   13  C10 UNL     1      32.460  10.538  46.422  1.00  0.00    -0.053 C 
HETATM   14  C11 UNL     1      33.039   9.665  47.251  1.00  0.00     0.016 C 
HETATM   15  P2  UNL     1      33.511   8.043  46.556  1.00  0.00    -0.067 P 
HETATM   16  C12 UNL     1      34.360   8.397  44.917  1.00  0.00     0.044 C 
HETATM   17  C13 UNL     1      35.056   9.751  44.939  1.00  0.00     0.032 C 
HETATM   18  C14 UNL     1      34.132  10.883  44.688  1.00  0.00    -0.026 C 
HETATM   19  C15 UNL     1      33.038  11.266  45.326  1.00  0.00     0.003 C 
HETATM   20  C16 UNL     1      32.103   6.922  46.245  1.00  0.00     0.141 C 
HETATM   21  C17 UNL     1      32.522   6.008  45.081  1.00  0.00     0.088 C 
HETATM   22  H8  UNL     1      28.190   5.936  47.800  1.00  0.00     0.050 HD
ENDROOT
BRANCH   1  23
HETATM   23  C2  UNL     1      34.337   4.068  45.232  1.00  0.00     0.052 C 
HETATM   24  C1  UNL     1      35.094   3.306  46.290  1.00  0.00     0.011 C 
ENDBRANCH   1  23
BRANCH   7  25
HETATM   25  O1  UNL     1      28.626   9.451  50.200  1.00  0.00    -0.349 OA
HETATM   26  H10 UNL     1      27.778   9.964  50.388  1.00  0.00     0.219 HD
ENDBRANCH   7  25
TORSDOF 2
ENDMDL
MODEL 9
REMARK VINA RESULT:      -6.8      3.799      5.724
REMARK  2 active torsions:
REMARK  status: ('A' for Active; 'I' for Inactive)
REMARK    1  A    between atoms: C2_2  and  C3_3 
REMARK    2  A    between atoms: C6_9  and  O1_10 
ROOT
HETATM    1  C3  UNL     1      24.842   5.545  49.334  1.00  0.00     0.034 C 
HETATM    2  N1  UNL     1      23.964   5.366  48.437  1.00  0.00    -0.185 NA
HETATM    3  N2  UNL     1      22.691   5.042  48.965  1.00  0.00    -0.293 N 
HETATM    4  C4  UNL     1      21.409   5.258  48.325  1.00  0.00     0.167 C 
HETATM    5  P1  UNL     1      20.042   5.424  49.594  1.00  0.00    -0.128 P 
HETATM    6  C5  UNL     1      18.723   4.182  49.356  1.00  0.00     0.157 C 
HETATM    7  C6  UNL     1      18.533   3.055  50.060  1.00  0.00     0.125 C 
HETATM    8  N3  UNL     1      18.398   1.861  50.868  1.00  0.00    -0.338 N 
HETATM    9  C7  UNL     1      17.133   1.536  51.469  1.00  0.00     0.154 C 
HETATM   10  C8  UNL     1      19.661   1.183  50.922  1.00  0.00     0.276 C 
HETATM   11  F1  UNL     1      19.486  -0.141  51.295  1.00  0.00    -0.226 F 
HETATM   12  C9  UNL     1      20.590   1.900  51.850  1.00  0.00     0.097 C 
HETATM   13  C10 UNL     1      21.958   1.350  51.843  1.00  0.00    -0.053 C 
HETATM   14  C11 UNL     1      22.350   1.474  50.572  1.00  0.00     0.016 C 
HETATM   15  P2  UNL     1      23.615   2.741  50.210  1.00  0.00    -0.067 P 
HETATM   16  C12 UNL     1      24.942   2.555  51.527  1.00  0.00     0.044 C 
HETATM   17  C13 UNL     1      25.035   1.117  52.015  1.00  0.00     0.032 C 
HETATM   18  C14 UNL     1      24.005   0.777  53.025  1.00  0.00    -0.026 C 
HETATM   19  C15 UNL     1      22.685   0.831  52.968  1.00  0.00     0.003 C 
HETATM   20  C16 UNL     1      22.992   4.458  50.259  1.00  0.00     0.141 C 
HETATM   21  C17 UNL     1      24.185   5.344  50.655  1.00  0.00     0.088 C 
HETATM   22  H8  UNL     1      19.412   6.754  49.468  1.00  0.00     0.050 HD
ENDROOT
BRANCH   1  23
HETATM   23  C2  UNL     1      26.268   5.897  49.094  1.00  0.00     0.052 C 
HETATM   24  C1  UNL     1      27.143   4.682  48.911  1.00  0.00     0.011 C 
ENDBRANCH   1  23
BRANCH   7  25
HETATM   25  O1  UNL     1      17.455   2.963  49.145  1.00  0.00    -0.349 OA
HETATM   26  H10 UNL     1      17.161   3.757  48.596  1.00  0.00     0.219 HD
ENDBRANCH   7  25
TORSDOF 2
ENDMDL
