MODEL 1
REMARK VINA RESULT:      -8.5      0.000      0.000
REMARK  0 active torsions:
REMARK  status: ('A' for Active; 'I' for Inactive)
ROOT
HETATM    1  C1  UNL     1      21.547   0.978  49.411  1.00  0.00     0.032 C 
HETATM    2  C2  UNL     1      21.430   1.802  50.677  1.00  0.00     0.084 C 
HETATM    3  C3  UNL     1      20.834   1.061  51.777  1.00  0.00     0.023 C 
HETATM    4  C4  UNL     1      20.737   0.345  52.865  1.00  0.00     0.022 C 
HETATM    5  C5  UNL     1      21.218  -0.381  53.995  1.00  0.00    -0.021 C 
HETATM    6  C6  UNL     1      21.997  -0.930  54.860  1.00  0.00    -0.004 C 
HETATM    7  C7  UNL     1      23.337  -1.208  55.319  1.00  0.00    -0.004 C 
HETATM    8  C8  UNL     1      24.673  -1.037  55.054  1.00  0.00    -0.021 C 
HETATM    9  C9  UNL     1      25.546  -0.406  54.032  1.00  0.00     0.018 C 
HETATM   10  C10 UNL     1      24.612   0.076  52.990  1.00  0.00     0.014 C 
HETATM   11  C11 UNL     1      24.253   1.513  53.241  1.00  0.00     0.046 C 
HETATM   12  C12 UNL     1      24.862   2.196  52.011  1.00  0.00     0.023 A 
HETATM   13  C13 UNL     1      24.004   2.644  51.028  1.00  0.00     0.134 A 
HETATM   14  N1  UNL     1      24.748   3.131  50.040  1.00  0.00    -0.224 NA
HETATM   15  C14 UNL     1      26.059   3.203  49.945  1.00  0.00     0.236 A 
HETATM   16  N2  UNL     1      26.879   2.747  50.938  1.00  0.00    -0.234 NA
HETATM   17  C15 UNL     1      26.235   2.223  52.011  1.00  0.00     0.104 A 
HETATM   18  S1  UNL     1      27.374   1.599  53.264  1.00  0.00    -0.109 SA
HETATM   19  C16 UNL     1      26.493   0.618  54.503  1.00  0.00     0.089 C 
HETATM   20  N3  UNL     1      22.589   2.621  50.928  1.00  0.00    -0.370 N 
HETATM   21  H19 UNL     1      22.476   3.659  51.162  1.00  0.00     0.161 HD
ENDROOT
TORSDOF 0
ENDMDL
MODEL 2
REMARK VINA RESULT:      -8.4      2.742      6.082
REMARK  0 active torsions:
REMARK  status: ('A' for Active; 'I' for Inactive)
ROOT
HETATM    1  C1  UNL     1      26.501  -1.468  52.565  1.00  0.00     0.032 C 
HETATM    2  C2  UNL     1      26.366  -0.080  53.158  1.00  0.00     0.084 C 
HETATM    3  C3  UNL     1      26.816   0.965  52.251  1.00  0.00     0.023 C 
HETATM    4  C4  UNL     1      26.776   1.917  51.359  1.00  0.00     0.022 C 
HETATM    5  C5  UNL     1      26.159   2.811  50.434  1.00  0.00    -0.021 C 
HETATM    6  C6  UNL     1      25.283   3.427  49.722  1.00  0.00    -0.004 C 
HETATM    7  C7  UNL     1      23.903   3.600  49.332  1.00  0.00    -0.004 C 
HETATM    8  C8  UNL     1      22.620   3.146  49.511  1.00  0.00    -0.021 C 
HETATM    9  C9  UNL     1      21.890   2.112  50.288  1.00  0.00     0.018 C 
HETATM   10  C10 UNL     1      22.953   1.339  50.970  1.00  0.00     0.014 C 
HETATM   11  C11 UNL     1      23.186   1.885  52.349  1.00  0.00     0.046 C 
HETATM   12  C12 UNL     1      22.747   0.702  53.221  1.00  0.00     0.023 A 
HETATM   13  C13 UNL     1      23.727  -0.033  53.856  1.00  0.00     0.134 A 
HETATM   14  N1  UNL     1      23.126  -1.036  54.488  1.00  0.00    -0.224 NA
HETATM   15  C14 UNL     1      21.846  -1.337  54.541  1.00  0.00     0.236 A 
HETATM   16  N2  UNL     1      20.903  -0.588  53.897  1.00  0.00    -0.234 NA
HETATM   17  C15 UNL     1      21.393   0.475  53.211  1.00  0.00     0.104 A 
HETATM   18  S1  UNL     1      20.102   1.394  52.347  1.00  0.00    -0.109 SA
HETATM   19  C16 UNL     1      20.824   2.582  51.188  1.00  0.00     0.089 C 
HETATM   20  N3  UNL     1      25.138   0.106  53.889  1.00  0.00    -0.370 N 
HETATM   21  H19 UNL     1      25.154   0.527  54.872  1.00  0.00     0.161 HD
ENDROOT
TORSDOF 0
ENDMDL
MODEL 3
REMARK VINA RESULT:      -8.0      2.346      4.805
REMARK  0 active torsions:
REMARK  status: ('A' for Active; 'I' for Inactive)
ROOT
HETATM    1  C1  UNL     1      24.262   5.830  51.200  1.00  0.00     0.032 C 
HETATM    2  C2  UNL     1      24.246   4.677  50.217  1.00  0.00     0.084 C 
HETATM    3  C3  UNL     1      25.448   3.861  50.289  1.00  0.00     0.023 C 
HETATM    4  C4  UNL     1      26.251   2.882  50.612  1.00  0.00     0.022 C 
HETATM    5  C5  UNL     1      26.628   1.662  51.248  1.00  0.00    -0.021 C 
HETATM    6  C6  UNL     1      26.599   0.585  51.951  1.00  0.00    -0.004 C 
HETATM    7  C7  UNL     1      25.867  -0.310  52.815  1.00  0.00    -0.004 C 
HETATM    8  C8  UNL     1      24.669  -0.530  53.450  1.00  0.00    -0.021 C 
HETATM    9  C9  UNL     1      23.342   0.117  53.603  1.00  0.00     0.018 C 
HETATM   10  C10 UNL     1      23.477   1.415  52.904  1.00  0.00     0.014 C 
HETATM   11  C11 UNL     1      22.999   1.291  51.486  1.00  0.00     0.046 C 
HETATM   12  C12 UNL     1      21.782   2.225  51.494  1.00  0.00     0.023 A 
HETATM   13  C13 UNL     1      21.896   3.442  50.853  1.00  0.00     0.134 A 
HETATM   14  N1  UNL     1      20.759   4.103  51.049  1.00  0.00    -0.224 NA
HETATM   15  C14 UNL     1      19.687   3.733  51.718  1.00  0.00     0.236 A 
HETATM   16  N2  UNL     1      19.611   2.521  52.342  1.00  0.00    -0.234 NA
HETATM   17  C15 UNL     1      20.716   1.745  52.215  1.00  0.00     0.104 A 
HETATM   18  S1  UNL     1      20.568   0.180  53.100  1.00  0.00    -0.109 SA
HETATM   19  C16 UNL     1      22.166  -0.665  53.187  1.00  0.00     0.089 C 
HETATM   20  N3  UNL     1      22.963   4.029  50.126  1.00  0.00    -0.370 N 
HETATM   21  H19 UNL     1      22.520   3.839  49.170  1.00  0.00     0.161 HD
ENDROOT
TORSDOF 0
ENDMDL
MODEL 4
REMARK VINA RESULT:      -7.9      1.191      1.593
REMARK  0 active torsions:
REMARK  status: ('A' for Active; 'I' for Inactive)
ROOT
HETATM    1  C1  UNL     1      19.902   0.656  50.839  1.00  0.00     0.032 C 
HETATM    2  C2  UNL     1      20.254   1.454  52.078  1.00  0.00     0.084 C 
HETATM    3  C3  UNL     1      20.358   0.625  53.269  1.00  0.00     0.023 C 
HETATM    4  C4  UNL     1      20.888  -0.091  54.224  1.00  0.00     0.022 C 
HETATM    5  C5  UNL     1      21.944  -0.716  54.952  1.00  0.00    -0.021 C 
HETATM    6  C6  UNL     1      23.109  -1.116  55.322  1.00  0.00    -0.004 C 
HETATM    7  C7  UNL     1      24.534  -1.154  55.098  1.00  0.00    -0.004 C 
HETATM    8  C8  UNL     1      25.552  -0.754  54.268  1.00  0.00    -0.021 C 
HETATM    9  C9  UNL     1      25.743   0.015  53.012  1.00  0.00     0.018 C 
HETATM   10  C10 UNL     1      24.371   0.321  52.550  1.00  0.00     0.014 C 
HETATM   11  C11 UNL     1      23.948   1.675  53.046  1.00  0.00     0.046 C 
HETATM   12  C12 UNL     1      23.805   2.448  51.729  1.00  0.00     0.023 A 
HETATM   13  C13 UNL     1      22.531   2.734  51.281  1.00  0.00     0.134 A 
HETATM   14  N1  UNL     1      22.649   3.338  50.103  1.00  0.00    -0.224 NA
HETATM   15  C14 UNL     1      23.738   3.637  49.428  1.00  0.00     0.236 A 
HETATM   16  N2  UNL     1      24.983   3.336  49.901  1.00  0.00    -0.234 NA
HETATM   17  C15 UNL     1      24.999   2.714  51.106  1.00  0.00     0.104 A 
HETATM   18  S1  UNL     1      26.670   2.304  51.651  1.00  0.00    -0.109 SA
HETATM   19  C16 UNL     1      26.627   1.191  53.077  1.00  0.00     0.089 C 
HETATM   20  N3  UNL     1      21.253   2.463  51.836  1.00  0.00    -0.370 N 
HETATM   21  H19 UNL     1      21.100   3.467  52.174  1.00  0.00     0.161 HD
ENDROOT
TORSDOF 0
ENDMDL
MODEL 5
REMARK VINA RESULT:      -7.8      2.148      4.613
REMARK  0 active torsions:
REMARK  status: ('A' for Active; 'I' for Inactive)
ROOT
HETATM    1  C1  UNL     1      20.652   2.858  51.402  1.00  0.00     0.032 C 
HETATM    2  C2  UNL     1      21.503   1.847  50.660  1.00  0.00     0.084 C 
HETATM    3  C3  UNL     1      22.678   2.445  50.045  1.00  0.00     0.023 C 
HETATM    4  C4  UNL     1      23.917   2.822  49.875  1.00  0.00     0.022 C 
HETATM    5  C5  UNL     1      25.295   2.963  50.216  1.00  0.00    -0.021 C 
HETATM    6  C6  UNL     1      26.416   2.900  50.844  1.00  0.00    -0.004 C 
HETATM    7  C7  UNL     1      27.162   2.481  52.006  1.00  0.00    -0.004 C 
HETATM    8  C8  UNL     1      27.083   1.863  53.229  1.00  0.00    -0.021 C 
HETATM    9  C9  UNL     1      26.065   1.229  54.106  1.00  0.00     0.018 C 
HETATM   10  C10 UNL     1      24.779   1.461  53.411  1.00  0.00     0.014 C 
HETATM   11  C11 UNL     1      24.437   0.281  52.547  1.00  0.00     0.046 C 
HETATM   12  C12 UNL     1      23.166  -0.237  53.230  1.00  0.00     0.023 A 
HETATM   13  C13 UNL     1      21.958  -0.021  52.598  1.00  0.00     0.134 A 
HETATM   14  N1  UNL     1      21.002  -0.485  53.396  1.00  0.00    -0.224 NA
HETATM   15  C14 UNL     1      21.109  -1.052  54.579  1.00  0.00     0.236 A 
HETATM   16  N2  UNL     1      22.322  -1.248  55.176  1.00  0.00    -0.234 NA
HETATM   17  C15 UNL     1      23.387  -0.814  54.456  1.00  0.00     0.104 A 
HETATM   18  S1  UNL     1      24.952  -1.060  55.320  1.00  0.00    -0.109 SA
HETATM   19  C16 UNL     1      26.293  -0.175  54.487  1.00  0.00     0.089 C 
HETATM   20  N3  UNL     1      21.637   0.596  51.362  1.00  0.00    -0.370 N 
HETATM   21  H19 UNL     1      21.463  -0.329  50.854  1.00  0.00     0.161 HD
ENDROOT
TORSDOF 0
ENDMDL
MODEL 6
REMARK VINA RESULT:      -7.6      2.627      4.334
REMARK  0 active torsions:
REMARK  status: ('A' for Active; 'I' for Inactive)
ROOT
HETATM    1  C1  UNL     1      19.667  -0.468  52.603  1.00  0.00     0.032 C 
HETATM    2  C2  UNL     1      20.420   0.297  53.672  1.00  0.00     0.084 C 
HETATM    3  C3  UNL     1      21.659  -0.357  54.065  1.00  0.00     0.023 C 
HETATM    4  C4  UNL     1      22.931  -0.645  54.120  1.00  0.00     0.022 C 
HETATM    5  C5  UNL     1      24.312  -0.519  53.783  1.00  0.00    -0.021 C 
HETATM    6  C6  UNL     1      25.412  -0.128  53.243  1.00  0.00    -0.004 C 
HETATM    7  C7  UNL     1      26.096   0.745  52.318  1.00  0.00    -0.004 C 
HETATM    8  C8  UNL     1      25.937   1.742  51.388  1.00  0.00    -0.021 C 
HETATM    9  C9  UNL     1      24.849   2.538  50.766  1.00  0.00     0.018 C 
HETATM   10  C10 UNL     1      23.602   1.950  51.306  1.00  0.00     0.014 C 
HETATM   11  C11 UNL     1      23.154   2.711  52.521  1.00  0.00     0.046 C 
HETATM   12  C12 UNL     1      21.828   3.306  52.034  1.00  0.00     0.023 A 
HETATM   13  C13 UNL     1      20.657   2.763  52.522  1.00  0.00     0.134 A 
HETATM   14  N1  UNL     1      19.648   3.380  51.916  1.00  0.00    -0.224 NA
HETATM   15  C14 UNL     1      19.681   4.333  51.009  1.00  0.00     0.236 A 
HETATM   16  N2  UNL     1      20.859   4.846  50.546  1.00  0.00    -0.234 NA
HETATM   17  C15 UNL     1      21.972   4.295  51.093  1.00  0.00     0.104 A 
HETATM   18  S1  UNL     1      23.492   4.984  50.406  1.00  0.00    -0.109 SA
HETATM   19  C16 UNL     1      24.927   4.002  50.906  1.00  0.00     0.089 C 
HETATM   20  N3  UNL     1      20.418   1.722  53.456  1.00  0.00    -0.370 N 
HETATM   21  H19 UNL     1      20.158   2.388  54.252  1.00  0.00     0.161 HD
ENDROOT
TORSDOF 0
ENDMDL
MODEL 7
REMARK VINA RESULT:      -7.4      1.689      2.824
REMARK  0 active torsions:
REMARK  status: ('A' for Active; 'I' for Inactive)
ROOT
HETATM    1  C1  UNL     1      22.267   1.750  48.457  1.00  0.00     0.032 C 
HETATM    2  C2  UNL     1      21.798   2.498  49.689  1.00  0.00     0.084 C 
HETATM    3  C3  UNL     1      20.458   2.113  50.103  1.00  0.00     0.023 C 
HETATM    4  C4  UNL     1      19.500   1.509  50.753  1.00  0.00     0.022 C 
HETATM    5  C5  UNL     1      18.938   0.615  51.712  1.00  0.00    -0.021 C 
HETATM    6  C6  UNL     1      18.811  -0.263  52.644  1.00  0.00    -0.004 C 
HETATM    7  C7  UNL     1      19.427  -1.167  53.586  1.00  0.00    -0.004 C 
HETATM    8  C8  UNL     1      20.620  -1.660  54.055  1.00  0.00    -0.021 C 
HETATM    9  C9  UNL     1      22.076  -1.508  53.806  1.00  0.00     0.018 C 
HETATM   10  C10 UNL     1      22.161  -0.608  52.633  1.00  0.00     0.014 C 
HETATM   11  C11 UNL     1      22.321   0.816  53.083  1.00  0.00     0.046 C 
HETATM   12  C12 UNL     1      23.720   1.146  52.551  1.00  0.00     0.023 A 
HETATM   13  C13 UNL     1      23.816   1.977  51.453  1.00  0.00     0.134 A 
HETATM   14  N1  UNL     1      25.102   2.064  51.130  1.00  0.00    -0.224 NA
HETATM   15  C14 UNL     1      26.143   1.494  51.698  1.00  0.00     0.236 A 
HETATM   16  N2  UNL     1      26.011   0.674  52.783  1.00  0.00    -0.234 NA
HETATM   17  C15 UNL     1      24.736   0.504  53.215  1.00  0.00     0.104 A 
HETATM   18  S1  UNL     1      24.627  -0.624  54.620  1.00  0.00    -0.109 SA
HETATM   19  C16 UNL     1      22.907  -1.083  54.945  1.00  0.00     0.089 C 
HETATM   20  N3  UNL     1      22.826   2.645  50.687  1.00  0.00    -0.370 N 
HETATM   21  H19 UNL     1      23.020   3.602  51.126  1.00  0.00     0.161 HD
ENDROOT
TORSDOF 0
ENDMDL
MODEL 8
REMARK VINA RESULT:      -7.2      2.587      3.765
REMARK  0 active torsions:
REMARK  status: ('A' for Active; 'I' for Inactive)
ROOT
HETATM    1  C1  UNL     1      17.812   0.230  50.130  1.00  0.00     0.032 C 
HETATM    2  C2  UNL     1      17.892   0.750  51.551  1.00  0.00     0.084 C 
HETATM    3  C3  UNL     1      18.309  -0.270  52.501  1.00  0.00     0.023 C 
HETATM    4  C4  UNL     1      19.080  -0.981  53.279  1.00  0.00     0.022 C 
HETATM    5  C5  UNL     1      20.305  -1.369  53.898  1.00  0.00    -0.021 C 
HETATM    6  C6  UNL     1      21.545  -1.424  54.236  1.00  0.00    -0.004 C 
HETATM    7  C7  UNL     1      22.887  -0.908  54.109  1.00  0.00    -0.004 C 
HETATM    8  C8  UNL     1      23.679   0.019  53.477  1.00  0.00    -0.021 C 
HETATM    9  C9  UNL     1      23.558   1.104  52.471  1.00  0.00     0.018 C 
HETATM   10  C10 UNL     1      22.154   1.027  52.007  1.00  0.00     0.014 C 
HETATM   11  C11 UNL     1      21.295   1.973  52.796  1.00  0.00     0.046 C 
HETATM   12  C12 UNL     1      20.858   2.962  51.708  1.00  0.00     0.023 A 
HETATM   13  C13 UNL     1      19.555   2.897  51.260  1.00  0.00     0.134 A 
HETATM   14  N1  UNL     1      19.424   3.787  50.282  1.00  0.00    -0.224 NA
HETATM   15  C14 UNL     1      20.322   4.608  49.780  1.00  0.00     0.236 A 
HETATM   16  N2  UNL     1      21.605   4.644  50.247  1.00  0.00    -0.234 NA
HETATM   17  C15 UNL     1      21.868   3.775  51.255  1.00  0.00     0.104 A 
HETATM   18  S1  UNL     1      23.589   3.841  51.794  1.00  0.00    -0.109 SA
HETATM   19  C16 UNL     1      23.974   2.453  52.889  1.00  0.00     0.089 C 
HETATM   20  N3  UNL     1      18.467   2.069  51.639  1.00  0.00    -0.370 N 
HETATM   21  H19 UNL     1      17.980   2.834  52.207  1.00  0.00     0.161 HD
ENDROOT
TORSDOF 0
ENDMDL
MODEL 9
REMARK VINA RESULT:      -6.5      7.835      9.979
REMARK  0 active torsions:
REMARK  status: ('A' for Active; 'I' for Inactive)
ROOT
HETATM    1  C1  UNL     1      25.956  11.245  46.756  1.00  0.00     0.032 C 
HETATM    2  C2  UNL     1      26.117  10.829  48.203  1.00  0.00     0.084 C 
HETATM    3  C3  UNL     1      25.422   9.588  48.512  1.00  0.00     0.023 C 
HETATM    4  C4  UNL     1      25.215   8.316  48.720  1.00  0.00     0.022 C 
HETATM    5  C5  UNL     1      25.569   6.937  48.820  1.00  0.00    -0.021 C 
HETATM    6  C6  UNL     1      26.239   5.839  48.810  1.00  0.00    -0.004 C 
HETATM    7  C7  UNL     1      27.494   5.156  48.609  1.00  0.00    -0.004 C 
HETATM    8  C8  UNL     1      28.814   5.310  48.265  1.00  0.00    -0.021 C 
HETATM    9  C9  UNL     1      29.755   6.387  47.865  1.00  0.00     0.018 C 
HETATM   10  C10 UNL     1      28.908   7.596  47.746  1.00  0.00     0.014 C 
HETATM   11  C11 UNL     1      28.926   8.370  49.033  1.00  0.00     0.046 C 
HETATM   12  C12 UNL     1      29.612   9.669  48.595  1.00  0.00     0.023 A 
HETATM   13  C13 UNL     1      28.834  10.802  48.472  1.00  0.00     0.134 A 
HETATM   14  N1  UNL     1      29.617  11.776  48.018  1.00  0.00    -0.224 NA
HETATM   15  C14 UNL     1      30.897  11.741  47.718  1.00  0.00     0.236 A 
HETATM   16  N2  UNL     1      31.637  10.600  47.850  1.00  0.00    -0.234 NA
HETATM   17  C15 UNL     1      30.947   9.526  48.310  1.00  0.00     0.104 A 
HETATM   18  S1  UNL     1      31.970   8.043  48.417  1.00  0.00    -0.109 SA
HETATM   19  C16 UNL     1      30.949   6.577  48.705  1.00  0.00     0.089 C 
HETATM   20  N3  UNL     1      27.453  11.028  48.705  1.00  0.00    -0.370 N 
HETATM   21  H19 UNL     1      27.611  11.530  49.636  1.00  0.00     0.161 HD
ENDROOT
TORSDOF 0
ENDMDL
