MODEL 1
REMARK VINA RESULT:      -8.0      0.000      0.000
REMARK  4 active torsions:
REMARK  status: ('A' for Active; 'I' for Inactive)
REMARK       I    between atoms: C2_2  and  N1_4 
REMARK    1  A    between atoms: N1_4  and  C3_5 
REMARK    2  A    between atoms: C3_5  and  N2_6 
REMARK    3  A    between atoms: C6_9  and  N3_10 
REMARK    4  A    between atoms: N3_10  and  C7_11 
ROOT
HETATM    1  N2  UNL     1      27.519   2.138  54.151  1.00  0.00    -0.257 NA
HETATM    2  C4  UNL     1      26.596   2.422  53.265  1.00  0.00     0.105 C 
HETATM    3  C5  UNL     1      25.136   2.304  53.514  1.00  0.00     0.127 C 
HETATM    4  C6  UNL     1      24.427   1.611  52.369  1.00  0.00     0.214 C 
HETATM    5  N4  UNL     1      24.864   2.088  51.074  1.00  0.00    -0.259 NA
HETATM    6  C13 UNL     1      26.018   2.646  50.952  1.00  0.00     0.204 C 
HETATM    7  N5  UNL     1      26.982   2.875  51.973  1.00  0.00    -0.339 N 
HETATM    8  H15 UNL     1      27.888   3.330  51.799  1.00  0.00     0.168 HD
ENDROOT
BRANCH   4   9
HETATM    9  N3  UNL     1      22.996   1.838  52.423  1.00  0.00    -0.367 N 
HETATM   10  H10 UNL     1      22.644   2.757  52.129  1.00  0.00     0.161 HD
BRANCH   9  11
HETATM   11  C7  UNL     1      22.087   0.839  52.861  1.00  0.00     0.031 A 
HETATM   12  C8  UNL     1      22.397  -0.098  53.823  1.00  0.00     0.032 A 
HETATM   13  C9  UNL     1      21.537  -1.081  54.270  1.00  0.00     0.046 A 
HETATM   14  C10 UNL     1      20.276  -1.107  53.695  1.00  0.00     0.138 A 
HETATM   15  F1  UNL     1      19.335  -2.037  54.059  1.00  0.00    -0.204 F 
HETATM   16  C11 UNL     1      19.891  -0.192  52.717  1.00  0.00     0.074 A 
HETATM   17 CL1  UNL     1      18.295  -0.245  52.008  1.00  0.00    -0.081 Cl
HETATM   18  C12 UNL     1      20.821   0.770  52.321  1.00  0.00     0.056 A 
ENDBRANCH   9  11
ENDBRANCH   4   9
BRANCH   1  19
HETATM   19  C3  UNL     1      28.923   2.267  53.864  1.00  0.00     0.275 C 
BRANCH  19  20
HETATM   20  N1  UNL     1      29.361   0.995  53.298  1.00  0.00    -0.344 N 
HETATM   21  C2  UNL     1      29.158  -0.214  54.015  1.00  0.00     0.214 C 
HETATM   22  C1  UNL     1      29.601  -1.506  53.440  1.00  0.00     0.117 C 
HETATM   23  O1  UNL     1      28.596  -0.194  55.151  1.00  0.00    -0.274 OA
HETATM   24  H4  UNL     1      29.834   0.907  52.359  1.00  0.00     0.164 HD
ENDBRANCH  19  20
ENDBRANCH   1  19
TORSDOF 4
ENDMDL
MODEL 2
REMARK VINA RESULT:      -7.6      2.851      3.994
REMARK  4 active torsions:
REMARK  status: ('A' for Active; 'I' for Inactive)
REMARK       I    between atoms: C2_2  and  N1_4 
REMARK    1  A    between atoms: N1_4  and  C3_5 
REMARK    2  A    between atoms: C3_5  and  N2_6 
REMARK    3  A    between atoms: C6_9  and  N3_10 
REMARK    4  A    between atoms: N3_10  and  C7_11 
ROOT
HETATM    1  N2  UNL     1      25.493   0.306  53.989  1.00  0.00    -0.257 NA
HETATM    2  C4  UNL     1      24.414  -0.424  54.134  1.00  0.00     0.105 C 
HETATM    3  C5  UNL     1      23.279  -0.437  53.175  1.00  0.00     0.127 C 
HETATM    4  C6  UNL     1      21.946  -0.341  53.887  1.00  0.00     0.214 C 
HETATM    5  N4  UNL     1      21.871  -1.204  55.047  1.00  0.00    -0.259 NA
HETATM    6  C13 UNL     1      22.952  -1.591  55.629  1.00  0.00     0.204 C 
HETATM    7  N5  UNL     1      24.292  -1.271  55.270  1.00  0.00    -0.339 N 
HETATM    8  H15 UNL     1      25.110  -1.619  55.786  1.00  0.00     0.168 HD
ENDROOT
BRANCH   4   9
HETATM    9  N3  UNL     1      20.856  -0.739  53.016  1.00  0.00    -0.367 N 
HETATM   10  H10 UNL     1      20.755  -1.738  52.798  1.00  0.00     0.161 HD
BRANCH   9  11
HETATM   11  C7  UNL     1      19.942   0.202  52.469  1.00  0.00     0.031 A 
HETATM   12  C8  UNL     1      18.655  -0.121  52.097  1.00  0.00     0.032 A 
HETATM   13  C9  UNL     1      17.745   0.768  51.564  1.00  0.00     0.046 A 
HETATM   14  C10 UNL     1      18.179   2.074  51.401  1.00  0.00     0.138 A 
HETATM   15  F1  UNL     1      17.363   3.047  50.881  1.00  0.00    -0.204 F 
HETATM   16  C11 UNL     1      19.466   2.474  51.754  1.00  0.00     0.074 A 
HETATM   17 CL1  UNL     1      19.990   4.127  51.538  1.00  0.00    -0.081 Cl
HETATM   18  C12 UNL     1      20.326   1.513  52.287  1.00  0.00     0.056 A 
ENDBRANCH   9  11
ENDBRANCH   4   9
BRANCH   1  19
HETATM   19  C3  UNL     1      26.568   0.286  54.944  1.00  0.00     0.275 C 
BRANCH  19  20
HETATM   20  N1  UNL     1      27.682  -0.418  54.317  1.00  0.00    -0.344 N 
HETATM   21  C2  UNL     1      28.971   0.176  54.275  1.00  0.00     0.214 C 
HETATM   22  C1  UNL     1      30.103  -0.538  53.638  1.00  0.00     0.117 C 
HETATM   23  O1  UNL     1      29.161   1.322  54.783  1.00  0.00    -0.274 OA
HETATM   24  H4  UNL     1      27.594  -1.373  53.876  1.00  0.00     0.164 HD
ENDBRANCH  19  20
ENDBRANCH   1  19
TORSDOF 4
ENDMDL
MODEL 3
REMARK VINA RESULT:      -7.6      4.384      5.845
REMARK  4 active torsions:
REMARK  status: ('A' for Active; 'I' for Inactive)
REMARK       I    between atoms: C2_2  and  N1_4 
REMARK    1  A    between atoms: N1_4  and  C3_5 
REMARK    2  A    between atoms: C3_5  and  N2_6 
REMARK    3  A    between atoms: C6_9  and  N3_10 
REMARK    4  A    between atoms: N3_10  and  C7_11 
ROOT
HETATM    1  N2  UNL     1      26.403   1.418  54.392  1.00  0.00    -0.257 NA
HETATM    2  C4  UNL     1      25.473   1.368  53.469  1.00  0.00     0.105 C 
HETATM    3  C5  UNL     1      25.079   2.521  52.619  1.00  0.00     0.127 C 
HETATM    4  C6  UNL     1      23.574   2.663  52.532  1.00  0.00     0.214 C 
HETATM    5  N4  UNL     1      22.906   1.396  52.320  1.00  0.00    -0.259 NA
HETATM    6  C13 UNL     1      23.491   0.299  52.656  1.00  0.00     0.204 C 
HETATM    7  N5  UNL     1      24.779   0.148  53.242  1.00  0.00    -0.339 N 
HETATM    8  H15 UNL     1      25.182  -0.766  53.484  1.00  0.00     0.168 HD
ENDROOT
BRANCH   4   9
HETATM    9  N3  UNL     1      23.189   3.514  51.423  1.00  0.00    -0.367 N 
HETATM   10  H10 UNL     1      22.328   3.281  50.914  1.00  0.00     0.161 HD
BRANCH   9  11
HETATM   11  C7  UNL     1      23.959   4.643  51.032  1.00  0.00     0.031 A 
HETATM   12  C8  UNL     1      23.729   5.917  51.505  1.00  0.00     0.032 A 
HETATM   13  C9  UNL     1      24.458   7.032  51.145  1.00  0.00     0.046 A 
HETATM   14  C10 UNL     1      25.490   6.831  50.242  1.00  0.00     0.138 A 
HETATM   15  F1  UNL     1      26.284   7.863  49.811  1.00  0.00    -0.204 F 
HETATM   16  C11 UNL     1      25.782   5.572  49.722  1.00  0.00     0.074 A 
HETATM   17 CL1  UNL     1      27.089   5.344  48.585  1.00  0.00    -0.081 Cl
HETATM   18  C12 UNL     1      24.996   4.496  50.137  1.00  0.00     0.056 A 
ENDBRANCH   9  11
ENDBRANCH   4   9
BRANCH   1  19
HETATM   19  C3  UNL     1      26.751   0.274  55.192  1.00  0.00     0.275 C 
BRANCH  19  20
HETATM   20  N1  UNL     1      28.137  -0.058  54.880  1.00  0.00    -0.344 N 
HETATM   21  C2  UNL     1      28.436  -0.972  53.835  1.00  0.00     0.214 C 
HETATM   22  C1  UNL     1      29.844  -1.308  53.517  1.00  0.00     0.117 C 
HETATM   23  O1  UNL     1      27.499  -1.506  53.168  1.00  0.00    -0.274 OA
HETATM   24  H4  UNL     1      28.964   0.350  55.394  1.00  0.00     0.164 HD
ENDBRANCH  19  20
ENDBRANCH   1  19
TORSDOF 4
ENDMDL
MODEL 4
REMARK VINA RESULT:      -7.6      4.395      5.801
REMARK  4 active torsions:
REMARK  status: ('A' for Active; 'I' for Inactive)
REMARK       I    between atoms: C2_2  and  N1_4 
REMARK    1  A    between atoms: N1_4  and  C3_5 
REMARK    2  A    between atoms: C3_5  and  N2_6 
REMARK    3  A    between atoms: C6_9  and  N3_10 
REMARK    4  A    between atoms: N3_10  and  C7_11 
ROOT
HETATM    1  N2  UNL     1      25.334   5.954  49.912  1.00  0.00    -0.257 NA
HETATM    2  C4  UNL     1      24.726   5.101  50.700  1.00  0.00     0.105 C 
HETATM    3  C5  UNL     1      24.497   3.671  50.365  1.00  0.00     0.127 C 
HETATM    4  C6  UNL     1      23.077   3.245  50.677  1.00  0.00     0.214 C 
HETATM    5  N4  UNL     1      22.621   3.728  51.962  1.00  0.00    -0.259 NA
HETATM    6  C13 UNL     1      23.178   4.760  52.494  1.00  0.00     0.204 C 
HETATM    7  N5  UNL     1      24.244   5.539  51.964  1.00  0.00    -0.339 N 
HETATM    8  H15 UNL     1      24.639   6.355  52.450  1.00  0.00     0.168 HD
ENDROOT
BRANCH   4   9
HETATM    9  N3  UNL     1      22.961   1.800  50.723  1.00  0.00    -0.367 N 
HETATM   10  H10 UNL     1      22.525   1.327  49.922  1.00  0.00     0.161 HD
BRANCH   9  11
HETATM   11  C7  UNL     1      23.428   1.038  51.827  1.00  0.00     0.031 A 
HETATM   12  C8  UNL     1      24.761   0.921  52.156  1.00  0.00     0.032 A 
HETATM   13  C9  UNL     1      25.246   0.189  53.221  1.00  0.00     0.046 A 
HETATM   14  C10 UNL     1      24.306  -0.468  54.000  1.00  0.00     0.138 A 
HETATM   15  F1  UNL     1      24.668  -1.225  55.084  1.00  0.00    -0.204 F 
HETATM   16  C11 UNL     1      22.941  -0.396  53.727  1.00  0.00     0.074 A 
HETATM   17 CL1  UNL     1      21.775  -1.232  54.724  1.00  0.00    -0.081 Cl
HETATM   18  C12 UNL     1      22.534   0.366  52.632  1.00  0.00     0.056 A 
ENDBRANCH   9  11
ENDBRANCH   4   9
BRANCH   1  19
HETATM   19  C3  UNL     1      25.533   7.330  50.279  1.00  0.00     0.275 C 
BRANCH  19  20
HETATM   20  N1  UNL     1      26.905   7.673  49.918  1.00  0.00    -0.344 N 
HETATM   21  C2  UNL     1      27.336   9.025  49.946  1.00  0.00     0.214 C 
HETATM   22  C1  UNL     1      28.729   9.373  49.580  1.00  0.00     0.117 C 
HETATM   23  O1  UNL     1      26.530   9.944  50.286  1.00  0.00    -0.274 OA
HETATM   24  H4  UNL     1      27.626   6.959  49.626  1.00  0.00     0.164 HD
ENDBRANCH  19  20
ENDBRANCH   1  19
TORSDOF 4
ENDMDL
MODEL 5
REMARK VINA RESULT:      -7.5      4.592      6.019
REMARK  4 active torsions:
REMARK  status: ('A' for Active; 'I' for Inactive)
REMARK       I    between atoms: C2_2  and  N1_4 
REMARK    1  A    between atoms: N1_4  and  C3_5 
REMARK    2  A    between atoms: C3_5  and  N2_6 
REMARK    3  A    between atoms: C6_9  and  N3_10 
REMARK    4  A    between atoms: N3_10  and  C7_11 
ROOT
HETATM    1  N2  UNL     1      28.284   2.448  52.627  1.00  0.00    -0.257 NA
HETATM    2  C4  UNL     1      27.037   2.188  52.316  1.00  0.00     0.105 C 
HETATM    3  C5  UNL     1      26.408   2.546  51.019  1.00  0.00     0.127 C 
HETATM    4  C6  UNL     1      25.046   3.179  51.214  1.00  0.00     0.214 C 
HETATM    5  N4  UNL     1      24.243   2.480  52.194  1.00  0.00    -0.259 NA
HETATM    6  C13 UNL     1      24.814   1.750  53.088  1.00  0.00     0.204 C 
HETATM    7  N5  UNL     1      26.207   1.520  53.258  1.00  0.00    -0.339 N 
HETATM    8  H15 UNL     1      26.592   0.920  54.000  1.00  0.00     0.168 HD
ENDROOT
BRANCH   4   9
HETATM    9  N3  UNL     1      24.281   3.170  49.982  1.00  0.00    -0.367 N 
HETATM   10  H10 UNL     1      23.863   2.280  49.683  1.00  0.00     0.161 HD
BRANCH   9  11
HETATM   11  C7  UNL     1      24.096   4.339  49.197  1.00  0.00     0.031 A 
HETATM   12  C8  UNL     1      23.019   4.527  48.359  1.00  0.00     0.032 A 
HETATM   13  C9  UNL     1      22.812   5.649  47.583  1.00  0.00     0.046 A 
HETATM   14  C10 UNL     1      23.771   6.646  47.671  1.00  0.00     0.138 A 
HETATM   15  F1  UNL     1      23.673   7.808  46.948  1.00  0.00    -0.204 F 
HETATM   16  C11 UNL     1      24.887   6.527  48.496  1.00  0.00     0.074 A 
HETATM   17 CL1  UNL     1      26.083   7.798  48.589  1.00  0.00    -0.081 Cl
HETATM   18  C12 UNL     1      25.022   5.359  49.247  1.00  0.00     0.056 A 
ENDBRANCH   9  11
ENDBRANCH   4   9
BRANCH   1  19
HETATM   19  C3  UNL     1      28.851   2.082  53.897  1.00  0.00     0.275 C 
BRANCH  19  20
HETATM   20  N1  UNL     1      29.684   0.906  53.668  1.00  0.00    -0.344 N 
HETATM   21  C2  UNL     1      29.196  -0.389  53.985  1.00  0.00     0.214 C 
HETATM   22  C1  UNL     1      30.042  -1.584  53.751  1.00  0.00     0.117 C 
HETATM   23  O1  UNL     1      28.034  -0.531  54.470  1.00  0.00    -0.274 OA
HETATM   24  H4  UNL     1      30.659   0.952  53.267  1.00  0.00     0.164 HD
ENDBRANCH  19  20
ENDBRANCH   1  19
TORSDOF 4
ENDMDL
MODEL 6
REMARK VINA RESULT:      -7.5      4.714      7.732
REMARK  4 active torsions:
REMARK  status: ('A' for Active; 'I' for Inactive)
REMARK       I    between atoms: C2_2  and  N1_4 
REMARK    1  A    between atoms: N1_4  and  C3_5 
REMARK    2  A    between atoms: C3_5  and  N2_6 
REMARK    3  A    between atoms: C6_9  and  N3_10 
REMARK    4  A    between atoms: N3_10  and  C7_11 
ROOT
HETATM    1  N2  UNL     1      21.388  -0.314  53.697  1.00  0.00    -0.257 NA
HETATM    2  C4  UNL     1      22.011   0.270  52.702  1.00  0.00     0.105 C 
HETATM    3  C5  UNL     1      23.479   0.203  52.482  1.00  0.00     0.127 C 
HETATM    4  C6  UNL     1      24.058   1.566  52.164  1.00  0.00     0.214 C 
HETATM    5  N4  UNL     1      23.256   2.304  51.212  1.00  0.00    -0.259 NA
HETATM    6  C13 UNL     1      22.008   2.019  51.068  1.00  0.00     0.204 C 
HETATM    7  N5  UNL     1      21.262   1.021  51.755  1.00  0.00    -0.339 N 
HETATM    8  H15 UNL     1      20.262   0.851  51.586  1.00  0.00     0.168 HD
ENDROOT
BRANCH   4   9
HETATM    9  N3  UNL     1      25.379   1.451  51.578  1.00  0.00    -0.367 N 
HETATM   10  H10 UNL     1      25.518   1.820  50.629  1.00  0.00     0.161 HD
BRANCH   9  11
HETATM   11  C7  UNL     1      26.466   0.854  52.271  1.00  0.00     0.031 A 
HETATM   12  C8  UNL     1      26.698  -0.505  52.289  1.00  0.00     0.032 A 
HETATM   13  C9  UNL     1      27.743  -1.114  52.952  1.00  0.00     0.046 A 
HETATM   14  C10 UNL     1      28.609  -0.280  53.643  1.00  0.00     0.138 A 
HETATM   15  F1  UNL     1      29.684  -0.772  54.338  1.00  0.00    -0.204 F 
HETATM   16  C11 UNL     1      28.438   1.102  53.669  1.00  0.00     0.074 A 
HETATM   17 CL1  UNL     1      29.543   2.133  54.546  1.00  0.00    -0.081 Cl
HETATM   18  C12 UNL     1      27.355   1.640  52.972  1.00  0.00     0.056 A 
ENDBRANCH   9  11
ENDBRANCH   4   9
BRANCH   1  19
HETATM   19  C3  UNL     1      19.963  -0.222  53.871  1.00  0.00     0.275 C 
BRANCH  19  20
HETATM   20  N1  UNL     1      19.445  -1.586  53.862  1.00  0.00    -0.344 N 
HETATM   21  C2  UNL     1      18.063  -1.825  53.636  1.00  0.00     0.214 C 
HETATM   22  C1  UNL     1      17.536  -3.210  53.626  1.00  0.00     0.117 C 
HETATM   23  O1  UNL     1      17.272  -0.853  53.442  1.00  0.00    -0.274 OA
HETATM   24  H4  UNL     1      20.046  -2.439  54.016  1.00  0.00     0.164 HD
ENDBRANCH  19  20
ENDBRANCH   1  19
TORSDOF 4
ENDMDL
MODEL 7
REMARK VINA RESULT:      -7.4      2.111      2.967
REMARK  4 active torsions:
REMARK  status: ('A' for Active; 'I' for Inactive)
REMARK       I    between atoms: C2_2  and  N1_4 
REMARK    1  A    between atoms: N1_4  and  C3_5 
REMARK    2  A    between atoms: C3_5  and  N2_6 
REMARK    3  A    between atoms: C6_9  and  N3_10 
REMARK    4  A    between atoms: N3_10  and  C7_11 
ROOT
HETATM    1  N2  UNL     1      25.733  -0.485  52.935  1.00  0.00    -0.257 NA
HETATM    2  C4  UNL     1      24.816   0.441  52.790  1.00  0.00     0.105 C 
HETATM    3  C5  UNL     1      23.453   0.365  53.378  1.00  0.00     0.127 C 
HETATM    4  C6  UNL     1      22.388   0.743  52.369  1.00  0.00     0.214 C 
HETATM    5  N4  UNL     1      22.739   1.920  51.604  1.00  0.00    -0.259 NA
HETATM    6  C13 UNL     1      23.975   2.262  51.483  1.00  0.00     0.204 C 
HETATM    7  N5  UNL     1      25.113   1.605  52.028  1.00  0.00    -0.339 N 
HETATM    8  H15 UNL     1      26.075   1.938  51.888  1.00  0.00     0.168 HD
ENDROOT
BRANCH   4   9
HETATM    9  N3  UNL     1      21.130   1.045  53.023  1.00  0.00    -0.367 N 
HETATM   10  H10 UNL     1      21.137   1.739  53.781  1.00  0.00     0.161 HD
BRANCH   9  11
HETATM   11  C7  UNL     1      19.911   0.420  52.646  1.00  0.00     0.031 A 
HETATM   12  C8  UNL     1      19.114   0.872  51.618  1.00  0.00     0.032 A 
HETATM   13  C9  UNL     1      17.926   0.287  51.229  1.00  0.00     0.046 A 
HETATM   14  C10 UNL     1      17.528  -0.835  51.938  1.00  0.00     0.138 A 
HETATM   15  F1  UNL     1      16.366  -1.502  51.641  1.00  0.00    -0.204 F 
HETATM   16  C11 UNL     1      18.282  -1.350  52.990  1.00  0.00     0.074 A 
HETATM   17 CL1  UNL     1      17.759  -2.766  53.869  1.00  0.00    -0.081 Cl
HETATM   18  C12 UNL     1      19.471  -0.699  53.321  1.00  0.00     0.056 A 
ENDBRANCH   9  11
ENDBRANCH   4   9
BRANCH   1  19
HETATM   19  C3  UNL     1      27.041  -0.368  52.346  1.00  0.00     0.275 C 
BRANCH  19  20
HETATM   20  N1  UNL     1      27.943   0.083  53.401  1.00  0.00    -0.344 N 
HETATM   21  C2  UNL     1      28.431   1.417  53.402  1.00  0.00     0.214 C 
HETATM   22  C1  UNL     1      29.347   1.876  54.473  1.00  0.00     0.117 C 
HETATM   23  O1  UNL     1      28.086   2.223  52.486  1.00  0.00    -0.274 OA
HETATM   24  H4  UNL     1      28.269  -0.534  54.192  1.00  0.00     0.164 HD
ENDBRANCH  19  20
ENDBRANCH   1  19
TORSDOF 4
ENDMDL
MODEL 8
REMARK VINA RESULT:      -7.4      4.887      6.278
REMARK  4 active torsions:
REMARK  status: ('A' for Active; 'I' for Inactive)
REMARK       I    between atoms: C2_2  and  N1_4 
REMARK    1  A    between atoms: N1_4  and  C3_5 
REMARK    2  A    between atoms: C3_5  and  N2_6 
REMARK    3  A    between atoms: C6_9  and  N3_10 
REMARK    4  A    between atoms: N3_10  and  C7_11 
ROOT
HETATM    1  N2  UNL     1      27.708   4.608  48.725  1.00  0.00    -0.257 NA
HETATM    2  C4  UNL     1      26.740   4.488  49.601  1.00  0.00     0.105 C 
HETATM    3  C5  UNL     1      26.279   3.193  50.165  1.00  0.00     0.127 C 
HETATM    4  C6  UNL     1      24.769   3.087  50.162  1.00  0.00     0.214 C 
HETATM    5  N4  UNL     1      24.125   4.300  50.620  1.00  0.00    -0.259 NA
HETATM    6  C13 UNL     1      24.752   5.423  50.553  1.00  0.00     0.204 C 
HETATM    7  N5  UNL     1      26.068   5.653  50.063  1.00  0.00    -0.339 N 
HETATM    8  H15 UNL     1      26.504   6.584  50.041  1.00  0.00     0.168 HD
ENDROOT
BRANCH   4   9
HETATM    9  N3  UNL     1      24.314   2.030  51.044  1.00  0.00    -0.367 N 
HETATM   10  H10 UNL     1      23.376   1.643  50.886  1.00  0.00     0.161 HD
BRANCH   9  11
HETATM   11  C7  UNL     1      25.121   1.524  52.098  1.00  0.00     0.031 A 
HETATM   12  C8  UNL     1      25.347   2.208  53.273  1.00  0.00     0.032 A 
HETATM   13  C9  UNL     1      26.125   1.745  54.315  1.00  0.00     0.046 A 
HETATM   14  C10 UNL     1      26.710   0.500  54.144  1.00  0.00     0.138 A 
HETATM   15  F1  UNL     1      27.503  -0.064  55.111  1.00  0.00    -0.204 F 
HETATM   16  C11 UNL     1      26.526  -0.249  52.984  1.00  0.00     0.074 A 
HETATM   17 CL1  UNL     1      27.274  -1.816  52.792  1.00  0.00    -0.081 Cl
HETATM   18  C12 UNL     1      25.725   0.292  51.977  1.00  0.00     0.056 A 
ENDBRANCH   9  11
ENDBRANCH   4   9
BRANCH   1  19
HETATM   19  C3  UNL     1      28.120   5.885  48.207  1.00  0.00     0.275 C 
BRANCH  19  20
HETATM   20  N1  UNL     1      29.293   6.296  48.971  1.00  0.00    -0.344 N 
HETATM   21  C2  UNL     1      30.380   6.940  48.323  1.00  0.00     0.214 C 
HETATM   22  C1  UNL     1      31.571   7.358  49.099  1.00  0.00     0.117 C 
HETATM   23  O1  UNL     1      30.337   7.161  47.075  1.00  0.00    -0.274 OA
HETATM   24  H4  UNL     1      29.394   6.143  50.011  1.00  0.00     0.164 HD
ENDBRANCH  19  20
ENDBRANCH   1  19
TORSDOF 4
ENDMDL
MODEL 9
REMARK VINA RESULT:      -7.4      3.807      4.837
REMARK  4 active torsions:
REMARK  status: ('A' for Active; 'I' for Inactive)
REMARK       I    between atoms: C2_2  and  N1_4 
REMARK    1  A    between atoms: N1_4  and  C3_5 
REMARK    2  A    between atoms: C3_5  and  N2_6 
REMARK    3  A    between atoms: C6_9  and  N3_10 
REMARK    4  A    between atoms: N3_10  and  C7_11 
ROOT
HETATM    1  N2  UNL     1      25.736   0.791  53.863  1.00  0.00    -0.257 NA
HETATM    2  C4  UNL     1      24.552   0.383  53.477  1.00  0.00     0.105 C 
HETATM    3  C5  UNL     1      23.785   0.986  52.356  1.00  0.00     0.127 C 
HETATM    4  C6  UNL     1      22.338   1.224  52.733  1.00  0.00     0.214 C 
HETATM    5  N4  UNL     1      21.754   0.102  53.435  1.00  0.00    -0.259 NA
HETATM    6  C13 UNL     1      22.514  -0.732  54.056  1.00  0.00     0.204 C 
HETATM    7  N5  UNL     1      23.933  -0.704  54.154  1.00  0.00    -0.339 N 
HETATM    8  H15 UNL     1      24.475  -1.409  54.670  1.00  0.00     0.168 HD
ENDROOT
BRANCH   4   9
HETATM    9  N3  UNL     1      21.517   1.437  51.556  1.00  0.00    -0.367 N 
HETATM   10  H10 UNL     1      20.621   0.939  51.499  1.00  0.00     0.161 HD
BRANCH   9  11
HETATM   11  C7  UNL     1      21.915   2.303  50.502  1.00  0.00     0.031 A 
HETATM   12  C8  UNL     1      22.232   1.860  49.237  1.00  0.00     0.032 A 
HETATM   13  C9  UNL     1      22.621   2.675  48.193  1.00  0.00     0.046 A 
HETATM   14  C10 UNL     1      22.691   4.033  48.462  1.00  0.00     0.138 A 
HETATM   15  F1  UNL     1      23.065   4.940  47.504  1.00  0.00    -0.204 F 
HETATM   16  C11 UNL     1      22.386   4.554  49.718  1.00  0.00     0.074 A 
HETATM   17 CL1  UNL     1      22.482   6.270  50.032  1.00  0.00    -0.081 Cl
HETATM   18  C12 UNL     1      22.000   3.662  50.719  1.00  0.00     0.056 A 
ENDBRANCH   9  11
ENDBRANCH   4   9
BRANCH   1  19
HETATM   19  C3  UNL     1      26.442   0.176  54.956  1.00  0.00     0.275 C 
BRANCH  19  20
HETATM   20  N1  UNL     1      27.560  -0.563  54.378  1.00  0.00    -0.344 N 
HETATM   21  C2  UNL     1      28.862   0.003  54.368  1.00  0.00     0.214 C 
HETATM   22  C1  UNL     1      29.998  -0.747  53.783  1.00  0.00     0.117 C 
HETATM   23  O1  UNL     1      29.060   1.154  54.861  1.00  0.00    -0.274 OA
HETATM   24  H4  UNL     1      27.465  -1.524  53.953  1.00  0.00     0.164 HD
ENDBRANCH  19  20
ENDBRANCH   1  19
TORSDOF 4
ENDMDL
