MODEL 1
REMARK VINA RESULT:      -6.3      0.000      0.000
REMARK  4 active torsions:
REMARK  status: ('A' for Active; 'I' for Inactive)
REMARK    1  A    between atoms: O1_2  and  C2_3 
REMARK    2  A    between atoms: C9_13  and  C10_14 
REMARK    3  A    between atoms: C10_14  and  C11_15 
REMARK    4  A    between atoms: C10_14  and  C13_18 
ROOT
HETATM    1  C2  UNL     1      22.510   0.959  51.612  1.00  0.00     0.105 C 
HETATM    2  C3  UNL     1      22.175   1.246  50.382  1.00  0.00     0.054 C 
HETATM    3  C4  UNL     1      21.439   0.949  49.176  1.00  0.00     0.239 C 
HETATM    4  N1  UNL     1      21.588   1.793  48.175  1.00  0.00    -0.298 NA
HETATM    5  C5  UNL     1      22.479   2.898  48.446  1.00  0.00     0.164 C 
HETATM    6  N2  UNL     1      22.275   3.365  49.603  1.00  0.00    -0.261 NA
HETATM    7  C6  UNL     1      22.909   4.438  50.289  1.00  0.00     0.421 C 
HETATM    8  N3  UNL     1      23.707   3.945  51.416  1.00  0.00     0.114 N 
HETATM    9  C7  UNL     1      22.845   3.314  52.402  1.00  0.00     0.285 A 
HETATM   10  C8  UNL     1      23.451   1.979  52.129  1.00  0.00     0.086 A 
HETATM   11  C9  UNL     1      24.306   2.652  51.111  1.00  0.00     0.242 A 
ENDROOT
BRANCH  11  12
HETATM   12  C10 UNL     1      25.774   2.579  51.484  1.00  0.00     0.050 C 
BRANCH  12  13
HETATM   13  C11 UNL     1      26.187   1.127  51.502  1.00  0.00     0.010 C 
HETATM   14  C12 UNL     1      26.942   0.445  52.378  1.00  0.00     0.184 C 
HETATM   15  F1  UNL     1      27.311  -0.856  52.390  1.00  0.00    -0.220 F 
ENDBRANCH  12  13
BRANCH  12  16
HETATM   16  C13 UNL     1      26.672   3.238  50.530  1.00  0.00     0.021 C 
HETATM   17  C14 UNL     1      26.403   4.067  49.556  1.00  0.00     0.238 C 
HETATM   18 CL1  UNL     1      27.746   4.687  48.577  1.00  0.00    -0.255 Cl
ENDBRANCH  12  16
ENDBRANCH  11  12
BRANCH   1  19
HETATM   19  O1  UNL     1      22.237  -0.042  52.595  1.00  0.00    -0.381 OA
HETATM   20  C1  UNL     1      23.335  -0.477  53.399  1.00  0.00     0.202 C 
ENDBRANCH   1  19
TORSDOF 4
ENDMDL
MODEL 2
REMARK VINA RESULT:      -6.1      3.258      5.021
REMARK  4 active torsions:
REMARK  status: ('A' for Active; 'I' for Inactive)
REMARK    1  A    between atoms: O1_2  and  C2_3 
REMARK    2  A    between atoms: C9_13  and  C10_14 
REMARK    3  A    between atoms: C10_14  and  C11_15 
REMARK    4  A    between atoms: C10_14  and  C13_18 
ROOT
HETATM    1  C2  UNL     1      26.080   4.377  49.671  1.00  0.00     0.105 C 
HETATM    2  C3  UNL     1      25.438   5.414  50.142  1.00  0.00     0.054 C 
HETATM    3  C4  UNL     1      25.339   6.836  50.369  1.00  0.00     0.239 C 
HETATM    4  N1  UNL     1      24.257   7.256  50.992  1.00  0.00    -0.298 NA
HETATM    5  C5  UNL     1      23.327   6.212  51.356  1.00  0.00     0.164 C 
HETATM    6  N2  UNL     1      23.195   5.380  50.413  1.00  0.00    -0.261 NA
HETATM    7  C6  UNL     1      22.398   4.205  50.326  1.00  0.00     0.421 C 
HETATM    8  N3  UNL     1      23.235   3.001  50.304  1.00  0.00     0.114 N 
HETATM    9  C7  UNL     1      24.068   2.990  49.113  1.00  0.00     0.285 A 
HETATM   10  C8  UNL     1      25.304   3.143  49.933  1.00  0.00     0.086 A 
HETATM   11  C9  UNL     1      24.422   3.170  51.133  1.00  0.00     0.242 A 
ENDROOT
BRANCH  11  12
HETATM   12  C10 UNL     1      24.682   1.983  52.039  1.00  0.00     0.050 C 
BRANCH  12  13
HETATM   13  C11 UNL     1      25.770   2.361  53.016  1.00  0.00     0.010 C 
HETATM   14  C12 UNL     1      27.100   2.195  52.947  1.00  0.00     0.184 C 
HETATM   15  F1  UNL     1      28.072   2.534  53.823  1.00  0.00    -0.220 F 
ENDBRANCH  12  13
BRANCH  12  16
HETATM   16  C13 UNL     1      23.532   1.586  52.859  1.00  0.00     0.021 C 
HETATM   17  C14 UNL     1      23.007   0.405  53.056  1.00  0.00     0.238 C 
HETATM   18 CL1  UNL     1      21.596   0.274  54.124  1.00  0.00    -0.255 Cl
ENDBRANCH  12  16
ENDBRANCH  11  12
BRANCH   1  19
HETATM   19  O1  UNL     1      27.300   4.088  48.986  1.00  0.00    -0.381 OA
HETATM   20  C1  UNL     1      28.039   5.201  48.480  1.00  0.00     0.202 C 
ENDBRANCH   1  19
TORSDOF 4
ENDMDL
MODEL 3
REMARK VINA RESULT:      -5.9      2.974      3.925
REMARK  4 active torsions:
REMARK  status: ('A' for Active; 'I' for Inactive)
REMARK    1  A    between atoms: O1_2  and  C2_3 
REMARK    2  A    between atoms: C9_13  and  C10_14 
REMARK    3  A    between atoms: C10_14  and  C11_15 
REMARK    4  A    between atoms: C10_14  and  C13_18 
ROOT
HETATM    1  C2  UNL     1      20.389   2.950  51.494  1.00  0.00     0.105 C 
HETATM    2  C3  UNL     1      20.627   2.613  50.253  1.00  0.00     0.054 C 
HETATM    3  C4  UNL     1      20.169   2.353  48.909  1.00  0.00     0.239 C 
HETATM    4  N1  UNL     1      21.090   2.011  48.032  1.00  0.00    -0.298 NA
HETATM    5  C5  UNL     1      22.433   1.949  48.560  1.00  0.00     0.164 C 
HETATM    6  N2  UNL     1      22.661   2.932  49.322  1.00  0.00    -0.261 NA
HETATM    7  C6  UNL     1      23.830   3.277  50.056  1.00  0.00     0.421 C 
HETATM    8  N3  UNL     1      23.606   3.138  51.499  1.00  0.00     0.114 N 
HETATM    9  C7  UNL     1      22.584   4.073  51.940  1.00  0.00     0.285 A 
HETATM   10  C8  UNL     1      21.653   2.956  52.266  1.00  0.00     0.086 A 
HETATM   11  C9  UNL     1      22.712   2.024  51.788  1.00  0.00     0.242 A 
ENDROOT
BRANCH  11  12
HETATM   12  C10 UNL     1      23.218   1.138  52.910  1.00  0.00     0.050 C 
BRANCH  12  13
HETATM   13  C11 UNL     1      22.192   0.058  53.160  1.00  0.00     0.010 C 
HETATM   14  C12 UNL     1      21.679  -0.407  54.310  1.00  0.00     0.184 C 
HETATM   15  F1  UNL     1      20.761  -1.374  54.531  1.00  0.00    -0.220 F 
ENDBRANCH  12  13
BRANCH  12  16
HETATM   16  C13 UNL     1      24.470   0.436  52.606  1.00  0.00     0.021 C 
HETATM   17  C14 UNL     1      25.276  -0.226  53.393  1.00  0.00     0.238 C 
HETATM   18 CL1  UNL     1      26.727  -0.965  52.692  1.00  0.00    -0.255 Cl
ENDBRANCH  12  16
ENDBRANCH  11  12
BRANCH   1  19
HETATM   19  O1  UNL     1      19.276   3.310  52.315  1.00  0.00    -0.381 OA
HETATM   20  C1  UNL     1      18.012   3.456  51.666  1.00  0.00     0.202 C 
ENDBRANCH   1  19
TORSDOF 4
ENDMDL
MODEL 4
REMARK VINA RESULT:      -5.9      3.717      5.371
REMARK  4 active torsions:
REMARK  status: ('A' for Active; 'I' for Inactive)
REMARK    1  A    between atoms: O1_2  and  C2_3 
REMARK    2  A    between atoms: C9_13  and  C10_14 
REMARK    3  A    between atoms: C10_14  and  C11_15 
REMARK    4  A    between atoms: C10_14  and  C13_18 
ROOT
HETATM    1  C2  UNL     1      23.778   4.616  50.849  1.00  0.00     0.105 C 
HETATM    2  C3  UNL     1      24.882   4.041  50.450  1.00  0.00     0.054 C 
HETATM    3  C4  UNL     1      26.033   3.993  49.579  1.00  0.00     0.239 C 
HETATM    4  N1  UNL     1      26.865   2.988  49.762  1.00  0.00    -0.298 NA
HETATM    5  C5  UNL     1      26.489   2.078  50.819  1.00  0.00     0.164 C 
HETATM    6  N2  UNL     1      26.079   2.714  51.833  1.00  0.00    -0.261 NA
HETATM    7  C6  UNL     1      25.609   2.241  53.089  1.00  0.00     0.421 C 
HETATM    8  N3  UNL     1      24.174   2.500  53.247  1.00  0.00     0.114 N 
HETATM    9  C7  UNL     1      23.921   3.931  53.256  1.00  0.00     0.285 A 
HETATM   10  C8  UNL     1      23.183   3.843  51.964  1.00  0.00     0.086 A 
HETATM   11  C9  UNL     1      23.476   2.383  51.974  1.00  0.00     0.242 A 
ENDROOT
BRANCH  11  12
HETATM   12  C10 UNL     1      22.204   1.563  52.072  1.00  0.00     0.050 C 
BRANCH  12  13
HETATM   13  C11 UNL     1      21.963   0.901  50.737  1.00  0.00     0.010 C 
HETATM   14  C12 UNL     1      21.888   1.425  49.504  1.00  0.00     0.184 C 
HETATM   15  F1  UNL     1      21.670   0.830  48.310  1.00  0.00    -0.220 F 
ENDBRANCH  12  13
BRANCH  12  16
HETATM   16  C13 UNL     1      22.264   0.473  53.053  1.00  0.00     0.021 C 
HETATM   17  C14 UNL     1      21.457  -0.538  53.237  1.00  0.00     0.238 C 
HETATM   18 CL1  UNL     1      21.826  -1.691  54.533  1.00  0.00    -0.255 Cl
ENDBRANCH  12  16
ENDBRANCH  11  12
BRANCH   1  19
HETATM   19  O1  UNL     1      22.984   5.760  50.527  1.00  0.00    -0.381 OA
HETATM   20  C1  UNL     1      21.613   5.731  50.926  1.00  0.00     0.202 C 
ENDBRANCH   1  19
TORSDOF 4
ENDMDL
MODEL 5
REMARK VINA RESULT:      -5.9      2.700      3.335
REMARK  4 active torsions:
REMARK  status: ('A' for Active; 'I' for Inactive)
REMARK    1  A    between atoms: O1_2  and  C2_3 
REMARK    2  A    between atoms: C9_13  and  C10_14 
REMARK    3  A    between atoms: C10_14  and  C11_15 
REMARK    4  A    between atoms: C10_14  and  C13_18 
ROOT
HETATM    1  C2  UNL     1      22.831   1.191  52.496  1.00  0.00     0.105 C 
HETATM    2  C3  UNL     1      21.683   1.817  52.466  1.00  0.00     0.054 C 
HETATM    3  C4  UNL     1      20.260   1.849  52.707  1.00  0.00     0.239 C 
HETATM    4  N1  UNL     1      19.639   2.971  52.405  1.00  0.00    -0.298 NA
HETATM    5  C5  UNL     1      20.493   4.008  51.871  1.00  0.00     0.164 C 
HETATM    6  N2  UNL     1      21.576   4.074  52.519  1.00  0.00    -0.261 NA
HETATM    7  C6  UNL     1      22.700   4.930  52.350  1.00  0.00     0.421 C 
HETATM    8  N3  UNL     1      23.869   4.180  51.879  1.00  0.00     0.114 N 
HETATM    9  C7  UNL     1      24.274   3.204  52.877  1.00  0.00     0.285 A 
HETATM   10  C8  UNL     1      23.900   2.076  51.978  1.00  0.00     0.086 A 
HETATM   11  C9  UNL     1      23.474   3.100  50.983  1.00  0.00     0.242 A 
ENDROOT
BRANCH  11  12
HETATM   12  C10 UNL     1      24.320   3.037  49.727  1.00  0.00     0.050 C 
BRANCH  12  13
HETATM   13  C11 UNL     1      23.407   2.774  48.553  1.00  0.00     0.010 C 
HETATM   14  C12 UNL     1      22.172   2.253  48.509  1.00  0.00     0.184 C 
HETATM   15  F1  UNL     1      21.357   2.018  47.456  1.00  0.00    -0.220 F 
ENDBRANCH  12  13
BRANCH  12  16
HETATM   16  C13 UNL     1      25.025   4.285  49.412  1.00  0.00     0.021 C 
HETATM   17  C14 UNL     1      26.303   4.513  49.257  1.00  0.00     0.238 C 
HETATM   18 CL1  UNL     1      26.827   6.164  48.875  1.00  0.00    -0.255 Cl
ENDBRANCH  12  16
ENDBRANCH  11  12
BRANCH   1  19
HETATM   19  O1  UNL     1      23.350  -0.084  52.877  1.00  0.00    -0.381 OA
HETATM   20  C1  UNL     1      22.664  -0.777  53.921  1.00  0.00     0.202 C 
ENDBRANCH   1  19
TORSDOF 4
ENDMDL
MODEL 6
REMARK VINA RESULT:      -5.9      2.786      3.697
REMARK  4 active torsions:
REMARK  status: ('A' for Active; 'I' for Inactive)
REMARK    1  A    between atoms: O1_2  and  C2_3 
REMARK    2  A    between atoms: C9_13  and  C10_14 
REMARK    3  A    between atoms: C10_14  and  C11_15 
REMARK    4  A    between atoms: C10_14  and  C13_18 
ROOT
HETATM    1  C2  UNL     1      22.404   2.535  50.093  1.00  0.00     0.105 C 
HETATM    2  C3  UNL     1      22.314   3.838  50.146  1.00  0.00     0.054 C 
HETATM    3  C4  UNL     1      21.696   5.076  49.733  1.00  0.00     0.239 C 
HETATM    4  N1  UNL     1      22.176   6.178  50.270  1.00  0.00    -0.298 NA
HETATM    5  C5  UNL     1      23.261   5.973  51.202  1.00  0.00     0.164 C 
HETATM    6  N2  UNL     1      23.023   4.988  51.958  1.00  0.00    -0.261 NA
HETATM    7  C6  UNL     1      23.799   4.424  53.008  1.00  0.00     0.421 C 
HETATM    8  N3  UNL     1      24.298   3.094  52.639  1.00  0.00     0.114 N 
HETATM    9  C7  UNL     1      23.186   2.178  52.447  1.00  0.00     0.285 A 
HETATM   10  C8  UNL     1      23.484   2.067  50.990  1.00  0.00     0.086 A 
HETATM   11  C9  UNL     1      24.604   3.024  51.216  1.00  0.00     0.242 A 
ENDROOT
BRANCH  11  12
HETATM   12  C10 UNL     1      25.948   2.381  50.934  1.00  0.00     0.050 C 
BRANCH  12  13
HETATM   13  C11 UNL     1      26.507   2.988  49.669  1.00  0.00     0.010 C 
HETATM   14  C12 UNL     1      26.843   4.255  49.385  1.00  0.00     0.184 C 
HETATM   15  F1  UNL     1      27.343   4.796  48.251  1.00  0.00    -0.220 F 
ENDBRANCH  12  13
BRANCH  12  16
HETATM   16  C13 UNL     1      26.959   2.617  51.970  1.00  0.00     0.021 C 
HETATM   17  C14 UNL     1      27.641   1.766  52.690  1.00  0.00     0.238 C 
HETATM   18 CL1  UNL     1      28.802   2.397  53.873  1.00  0.00    -0.255 Cl
ENDBRANCH  12  16
ENDBRANCH  11  12
BRANCH   1  19
HETATM   19  O1  UNL     1      21.770   1.441  49.427  1.00  0.00    -0.381 OA
HETATM   20  C1  UNL     1      20.562   1.724  48.719  1.00  0.00     0.202 C 
ENDBRANCH   1  19
TORSDOF 4
ENDMDL
MODEL 7
REMARK VINA RESULT:      -5.7      3.113      4.550
REMARK  4 active torsions:
REMARK  status: ('A' for Active; 'I' for Inactive)
REMARK    1  A    between atoms: O1_2  and  C2_3 
REMARK    2  A    between atoms: C9_13  and  C10_14 
REMARK    3  A    between atoms: C10_14  and  C11_15 
REMARK    4  A    between atoms: C10_14  and  C13_18 
ROOT
HETATM    1  C2  UNL     1      22.884   3.103  48.811  1.00  0.00     0.105 C 
HETATM    2  C3  UNL     1      23.351   4.220  49.304  1.00  0.00     0.054 C 
HETATM    3  C4  UNL     1      23.940   5.526  49.124  1.00  0.00     0.239 C 
HETATM    4  N1  UNL     1      24.178   6.217  50.219  1.00  0.00    -0.298 NA
HETATM    5  C5  UNL     1      23.810   5.549  51.447  1.00  0.00     0.164 C 
HETATM    6  N2  UNL     1      22.688   4.978  51.326  1.00  0.00    -0.261 NA
HETATM    7  C6  UNL     1      21.942   4.208  52.261  1.00  0.00     0.421 C 
HETATM    8  N3  UNL     1      21.890   2.798  51.861  1.00  0.00     0.114 N 
HETATM    9  C7  UNL     1      21.184   2.661  50.598  1.00  0.00     0.285 A 
HETATM   10  C8  UNL     1      22.430   2.219  49.910  1.00  0.00     0.086 A 
HETATM   11  C9  UNL     1      23.130   2.389  51.214  1.00  0.00     0.242 A 
ENDROOT
BRANCH  11  12
HETATM   12  C10 UNL     1      23.659   1.067  51.735  1.00  0.00     0.050 C 
BRANCH  12  13
HETATM   13  C11 UNL     1      25.138   1.219  51.996  1.00  0.00     0.010 C 
HETATM   14  C12 UNL     1      26.090   0.292  52.184  1.00  0.00     0.184 C 
HETATM   15  F1  UNL     1      27.415   0.431  52.419  1.00  0.00    -0.220 F 
ENDBRANCH  12  13
BRANCH  12  16
HETATM   16  C13 UNL     1      23.070   0.643  53.010  1.00  0.00     0.021 C 
HETATM   17  C14 UNL     1      22.554  -0.506  53.357  1.00  0.00     0.238 C 
HETATM   18 CL1  UNL     1      21.920  -0.687  55.004  1.00  0.00    -0.255 Cl
ENDBRANCH  12  16
ENDBRANCH  11  12
BRANCH   1  19
HETATM   19  O1  UNL     1      22.686   2.490  47.535  1.00  0.00    -0.381 OA
HETATM   20  C1  UNL     1      21.933   3.229  46.572  1.00  0.00     0.202 C 
ENDBRANCH   1  19
TORSDOF 4
ENDMDL
MODEL 8
REMARK VINA RESULT:      -5.6      8.221     10.783
REMARK  4 active torsions:
REMARK  status: ('A' for Active; 'I' for Inactive)
REMARK    1  A    between atoms: O1_2  and  C2_3 
REMARK    2  A    between atoms: C9_13  and  C10_14 
REMARK    3  A    between atoms: C10_14  and  C11_15 
REMARK    4  A    between atoms: C10_14  and  C13_18 
ROOT
HETATM    1  C2  UNL     1      32.973   4.537  47.865  1.00  0.00     0.105 C 
HETATM    2  C3  UNL     1      33.970   5.290  48.250  1.00  0.00     0.054 C 
HETATM    3  C4  UNL     1      35.207   5.469  48.973  1.00  0.00     0.239 C 
HETATM    4  N1  UNL     1      35.751   6.667  48.917  1.00  0.00    -0.298 NA
HETATM    5  C5  UNL     1      35.013   7.629  48.131  1.00  0.00     0.164 C 
HETATM    6  N2  UNL     1      34.596   7.105  47.058  1.00  0.00    -0.261 NA
HETATM    7  C6  UNL     1      33.833   7.664  45.995  1.00  0.00     0.421 C 
HETATM    8  N3  UNL     1      32.487   7.084  45.951  1.00  0.00     0.114 N 
HETATM    9  C7  UNL     1      32.563   5.661  45.663  1.00  0.00     0.285 A 
HETATM   10  C8  UNL     1      32.046   5.323  47.019  1.00  0.00     0.086 A 
HETATM   11  C9  UNL     1      31.998   6.787  47.291  1.00  0.00     0.242 A 
ENDROOT
BRANCH  11  12
HETATM   12  C10 UNL     1      30.576   7.263  47.519  1.00  0.00     0.050 C 
BRANCH  12  13
HETATM   13  C11 UNL     1      29.835   6.192  48.283  1.00  0.00     0.010 C 
HETATM   14  C12 UNL     1      28.557   5.789  48.203  1.00  0.00     0.184 C 
HETATM   15  F1  UNL     1      27.896   4.830  48.889  1.00  0.00    -0.220 F 
ENDBRANCH  12  13
BRANCH  12  16
HETATM   16  C13 UNL     1      30.470   8.480  48.332  1.00  0.00     0.021 C 
HETATM   17  C14 UNL     1      30.852   9.702  48.070  1.00  0.00     0.238 C 
HETATM   18 CL1  UNL     1      30.569  10.957  49.291  1.00  0.00    -0.255 Cl
ENDBRANCH  12  16
ENDBRANCH  11  12
BRANCH   1  19
HETATM   19  O1  UNL     1      32.520   3.191  48.021  1.00  0.00    -0.381 OA
HETATM   20  C1  UNL     1      33.015   2.228  47.090  1.00  0.00     0.202 C 
ENDBRANCH   1  19
TORSDOF 4
ENDMDL
MODEL 9
REMARK VINA RESULT:      -5.6      7.305      9.414
REMARK  4 active torsions:
REMARK  status: ('A' for Active; 'I' for Inactive)
REMARK    1  A    between atoms: O1_2  and  C2_3 
REMARK    2  A    between atoms: C9_13  and  C10_14 
REMARK    3  A    between atoms: C10_14  and  C11_15 
REMARK    4  A    between atoms: C10_14  and  C13_18 
ROOT
HETATM    1  C2  UNL     1      29.641   5.767  47.995  1.00  0.00     0.105 C 
HETATM    2  C3  UNL     1      29.600   6.922  47.383  1.00  0.00     0.054 C 
HETATM    3  C4  UNL     1      28.856   8.025  46.824  1.00  0.00     0.239 C 
HETATM    4  N1  UNL     1      29.563   8.998  46.288  1.00  0.00    -0.298 NA
HETATM    5  C5  UNL     1      30.994   8.805  46.342  1.00  0.00     0.164 C 
HETATM    6  N2  UNL     1      31.342   8.358  47.473  1.00  0.00    -0.261 NA
HETATM    7  C6  UNL     1      32.631   8.019  47.972  1.00  0.00     0.421 C 
HETATM    8  N3  UNL     1      32.757   6.571  48.168  1.00  0.00     0.114 N 
HETATM    9  C7  UNL     1      31.820   6.119  49.182  1.00  0.00     0.285 A 
HETATM   10  C8  UNL     1      31.048   5.340  48.173  1.00  0.00     0.086 A 
HETATM   11  C9  UNL     1      32.013   5.837  47.152  1.00  0.00     0.242 A 
ENDROOT
BRANCH  11  12
HETATM   12  C10 UNL     1      32.810   4.699  46.544  1.00  0.00     0.050 C 
BRANCH  12  13
HETATM   13  C11 UNL     1      31.956   3.455  46.570  1.00  0.00     0.010 C 
HETATM   14  C12 UNL     1      32.304   2.158  46.585  1.00  0.00     0.184 C 
HETATM   15  F1  UNL     1      31.537   1.045  46.607  1.00  0.00    -0.220 F 
ENDBRANCH  12  13
BRANCH  12  16
HETATM   16  C13 UNL     1      33.175   4.904  45.138  1.00  0.00     0.021 C 
HETATM   17  C14 UNL     1      34.313   4.706  44.526  1.00  0.00     0.238 C 
HETATM   18 CL1  UNL     1      34.415   5.059  42.791  1.00  0.00    -0.255 Cl
ENDBRANCH  12  16
ENDBRANCH  11  12
BRANCH   1  19
HETATM   19  O1  UNL     1      28.733   4.806  48.537  1.00  0.00    -0.381 OA
HETATM   20  C1  UNL     1      27.366   5.201  48.658  1.00  0.00     0.202 C 
ENDBRANCH   1  19
TORSDOF 4
ENDMDL
