MODEL 1
REMARK VINA RESULT:      -6.6      0.000      0.000
REMARK  10 active torsions:
REMARK  status: ('A' for Active; 'I' for Inactive)
REMARK    1  A    between atoms: C2_2  and  C3_3 
REMARK    2  A    between atoms: C3_3  and  C4_4 
REMARK    3  A    between atoms: C4_4  and  C5_5 
REMARK    4  A    between atoms: C5_5  and  C6_6 
REMARK    5  A    between atoms: C6_6  and  N1_7 
REMARK       I    between atoms: N1_7  and  C7_8 
REMARK    6  A    between atoms: C7_8  and  C8_10 
REMARK    7  A    between atoms: C8_10  and  O2_11 
REMARK    8  A    between atoms: O2_11  and  C9_12 
REMARK    9  A    between atoms: C12_15  and  C13_16 
REMARK   10  A    between atoms: C15_19  and  O4_20 
ROOT
HETATM    1  C13 UNL     1      29.380  -0.552  53.524  1.00  0.00     0.110 C 
HETATM    2  C14 UNL     1      29.282  -2.039  53.534  1.00  0.00     0.235 C 
HETATM    3  O3  UNL     1      29.089  -3.247  53.526  1.00  0.00    -0.307 OA
ENDROOT
BRANCH   1   4
HETATM    4  C12 UNL     1      28.057   0.102  53.323  1.00  0.00    -0.018 A 
HETATM    5  C11 UNL     1      27.046  -0.625  52.737  1.00  0.00     0.013 A 
HETATM    6  C10 UNL     1      25.823  -0.004  52.560  1.00  0.00     0.037 A 
HETATM    7  C9  UNL     1      25.602   1.310  52.953  1.00  0.00     0.072 A 
HETATM    8  C16 UNL     1      26.598   2.059  53.542  1.00  0.00     0.073 A 
HETATM    9  C15 UNL     1      27.805   1.404  53.702  1.00  0.00     0.075 A 
BRANCH   7  10
HETATM   10  O2  UNL     1      24.334   1.833  52.726  1.00  0.00    -0.342 OA
BRANCH  10  11
HETATM   11  C8  UNL     1      24.032   3.198  52.953  1.00  0.00     0.278 C 
BRANCH  11  12
HETATM   12  C7  UNL     1      24.022   3.911  51.663  1.00  0.00     0.241 C 
HETATM   13  N1  UNL     1      24.842   4.944  51.141  1.00  0.00    -0.359 N 
HETATM   14  H14 UNL     1      25.586   5.219  51.849  1.00  0.00     0.162 HD
HETATM   15  O1  UNL     1      23.082   3.457  50.958  1.00  0.00    -0.271 OA
BRANCH  13  16
HETATM   16  C6  UNL     1      24.523   5.393  49.827  1.00  0.00     0.122 C 
BRANCH  16  17
HETATM   17  C5  UNL     1      25.671   5.563  48.889  1.00  0.00     0.020 C 
BRANCH  17  18
HETATM   18  C4  UNL     1      26.777   4.597  49.213  1.00  0.00     0.002 C 
BRANCH  18  19
HETATM   19  C3  UNL     1      28.042   4.936  48.461  1.00  0.00    -0.000 C 
BRANCH  19  20
HETATM   20  C2  UNL     1      28.101   6.403  48.069  1.00  0.00    -0.005 C 
HETATM   21  C1  UNL     1      29.561   6.817  48.083  1.00  0.00     0.005 C 
ENDBRANCH  19  20
ENDBRANCH  18  19
ENDBRANCH  17  18
ENDBRANCH  16  17
ENDBRANCH  13  16
ENDBRANCH  11  12
ENDBRANCH  10  11
ENDBRANCH   7  10
BRANCH   9  22
HETATM   22  O4  UNL     1      28.883   2.080  54.292  1.00  0.00    -0.360 OA
HETATM   23  H22 UNL     1      29.608   2.348  53.614  1.00  0.00     0.217 HD
ENDBRANCH   9  22
ENDBRANCH   1   4
TORSDOF 10
ENDMDL
MODEL 2
REMARK VINA RESULT:      -6.6      1.101      1.571
REMARK  10 active torsions:
REMARK  status: ('A' for Active; 'I' for Inactive)
REMARK    1  A    between atoms: C2_2  and  C3_3 
REMARK    2  A    between atoms: C3_3  and  C4_4 
REMARK    3  A    between atoms: C4_4  and  C5_5 
REMARK    4  A    between atoms: C5_5  and  C6_6 
REMARK    5  A    between atoms: C6_6  and  N1_7 
REMARK       I    between atoms: N1_7  and  C7_8 
REMARK    6  A    between atoms: C7_8  and  C8_10 
REMARK    7  A    between atoms: C8_10  and  O2_11 
REMARK    8  A    between atoms: O2_11  and  C9_12 
REMARK    9  A    between atoms: C12_15  and  C13_16 
REMARK   10  A    between atoms: C15_19  and  O4_20 
ROOT
HETATM    1  C13 UNL     1      29.526  -0.464  53.442  1.00  0.00     0.110 C 
HETATM    2  C14 UNL     1      29.328  -1.941  53.490  1.00  0.00     0.235 C 
HETATM    3  O3  UNL     1      29.052  -3.132  53.527  1.00  0.00    -0.307 OA
ENDROOT
BRANCH   1   4
HETATM    4  C12 UNL     1      28.237   0.279  53.385  1.00  0.00    -0.018 A 
HETATM    5  C11 UNL     1      27.065  -0.440  53.310  1.00  0.00     0.013 A 
HETATM    6  C10 UNL     1      25.877   0.266  53.260  1.00  0.00     0.037 A 
HETATM    7  C9  UNL     1      25.845   1.655  53.285  1.00  0.00     0.072 A 
HETATM    8  C16 UNL     1      27.003   2.397  53.359  1.00  0.00     0.073 A 
HETATM    9  C15 UNL     1      28.170   1.657  53.407  1.00  0.00     0.075 A 
BRANCH   7  10
HETATM   10  O2  UNL     1      24.594   2.260  53.229  1.00  0.00    -0.342 OA
BRANCH  10  11
HETATM   11  C8  UNL     1      23.818   2.276  52.045  1.00  0.00     0.278 C 
BRANCH  11  12
HETATM   12  C7  UNL     1      23.526   3.674  51.679  1.00  0.00     0.241 C 
HETATM   13  N1  UNL     1      24.262   4.874  51.848  1.00  0.00    -0.359 N 
HETATM   14  H14 UNL     1      25.187   4.676  52.332  1.00  0.00     0.162 HD
HETATM   15  O1  UNL     1      22.398   3.718  51.119  1.00  0.00    -0.271 OA
BRANCH  13  16
HETATM   16  C6  UNL     1      23.644   6.062  51.357  1.00  0.00     0.122 C 
BRANCH  16  17
HETATM   17  C5  UNL     1      24.175   6.602  50.073  1.00  0.00     0.020 C 
BRANCH  17  18
HETATM   18  C4  UNL     1      25.663   6.401  49.980  1.00  0.00     0.002 C 
BRANCH  18  19
HETATM   19  C3  UNL     1      26.042   5.660  48.719  1.00  0.00    -0.000 C 
BRANCH  19  20
HETATM   20  C2  UNL     1      27.184   4.685  48.949  1.00  0.00    -0.005 C 
HETATM   21  C1  UNL     1      26.591   3.427  49.558  1.00  0.00     0.005 C 
ENDBRANCH  19  20
ENDBRANCH  18  19
ENDBRANCH  17  18
ENDBRANCH  16  17
ENDBRANCH  13  16
ENDBRANCH  11  12
ENDBRANCH  10  11
ENDBRANCH   7  10
BRANCH   9  22
HETATM   22  O4  UNL     1      29.404   2.319  53.485  1.00  0.00    -0.360 OA
HETATM   23  H22 UNL     1      29.491   3.085  52.805  1.00  0.00     0.217 HD
ENDBRANCH   9  22
ENDBRANCH   1   4
TORSDOF 10
ENDMDL
MODEL 3
REMARK VINA RESULT:      -6.6      1.574      2.185
REMARK  10 active torsions:
REMARK  status: ('A' for Active; 'I' for Inactive)
REMARK    1  A    between atoms: C2_2  and  C3_3 
REMARK    2  A    between atoms: C3_3  and  C4_4 
REMARK    3  A    between atoms: C4_4  and  C5_5 
REMARK    4  A    between atoms: C5_5  and  C6_6 
REMARK    5  A    between atoms: C6_6  and  N1_7 
REMARK       I    between atoms: N1_7  and  C7_8 
REMARK    6  A    between atoms: C7_8  and  C8_10 
REMARK    7  A    between atoms: C8_10  and  O2_11 
REMARK    8  A    between atoms: O2_11  and  C9_12 
REMARK    9  A    between atoms: C12_15  and  C13_16 
REMARK   10  A    between atoms: C15_19  and  O4_20 
ROOT
HETATM    1  C13 UNL     1      28.271  -0.170  53.992  1.00  0.00     0.110 C 
HETATM    2  C14 UNL     1      29.030   0.997  54.524  1.00  0.00     0.235 C 
HETATM    3  O3  UNL     1      29.565   2.021  54.928  1.00  0.00    -0.307 OA
ENDROOT
BRANCH   1   4
HETATM    4  C12 UNL     1      26.952   0.223  53.423  1.00  0.00    -0.018 A 
HETATM    5  C11 UNL     1      26.929   0.913  52.232  1.00  0.00     0.013 A 
HETATM    6  C10 UNL     1      25.697   1.269  51.716  1.00  0.00     0.037 A 
HETATM    7  C9  UNL     1      24.509   0.950  52.362  1.00  0.00     0.072 A 
HETATM    8  C16 UNL     1      24.505   0.260  53.555  1.00  0.00     0.073 A 
HETATM    9  C15 UNL     1      25.756  -0.078  54.039  1.00  0.00     0.075 A 
BRANCH   7  10
HETATM   10  O2  UNL     1      23.328   1.358  51.753  1.00  0.00    -0.342 OA
BRANCH  10  11
HETATM   11  C8  UNL     1      22.570   2.451  52.237  1.00  0.00     0.278 C 
BRANCH  11  12
HETATM   12  C7  UNL     1      22.999   3.680  51.546  1.00  0.00     0.241 C 
HETATM   13  N1  UNL     1      24.200   4.432  51.603  1.00  0.00    -0.359 N 
HETATM   14  H14 UNL     1      24.885   3.986  52.284  1.00  0.00     0.162 HD
HETATM   15  O1  UNL     1      22.070   4.062  50.786  1.00  0.00    -0.271 OA
BRANCH  13  16
HETATM   16  C6  UNL     1      24.255   5.590  50.773  1.00  0.00     0.122 C 
BRANCH  16  17
HETATM   17  C5  UNL     1      24.829   5.400  49.410  1.00  0.00     0.020 C 
BRANCH  17  18
HETATM   18  C4  UNL     1      25.533   4.075  49.303  1.00  0.00     0.002 C 
BRANCH  18  19
HETATM   19  C3  UNL     1      27.028   4.254  49.186  1.00  0.00    -0.000 C 
BRANCH  19  20
HETATM   20  C2  UNL     1      27.398   5.572  48.529  1.00  0.00    -0.005 C 
HETATM   21  C1  UNL     1      28.886   5.527  48.228  1.00  0.00     0.005 C 
ENDBRANCH  19  20
ENDBRANCH  18  19
ENDBRANCH  17  18
ENDBRANCH  16  17
ENDBRANCH  13  16
ENDBRANCH  11  12
ENDBRANCH  10  11
ENDBRANCH   7  10
BRANCH   9  22
HETATM   22  O4  UNL     1      25.860  -0.782  55.247  1.00  0.00    -0.360 OA
HETATM   23  H22 UNL     1      26.450  -1.621  55.173  1.00  0.00     0.217 HD
ENDBRANCH   9  22
ENDBRANCH   1   4
TORSDOF 10
ENDMDL
MODEL 4
REMARK VINA RESULT:      -6.5      2.967      5.173
REMARK  10 active torsions:
REMARK  status: ('A' for Active; 'I' for Inactive)
REMARK    1  A    between atoms: C2_2  and  C3_3 
REMARK    2  A    between atoms: C3_3  and  C4_4 
REMARK    3  A    between atoms: C4_4  and  C5_5 
REMARK    4  A    between atoms: C5_5  and  C6_6 
REMARK    5  A    between atoms: C6_6  and  N1_7 
REMARK       I    between atoms: N1_7  and  C7_8 
REMARK    6  A    between atoms: C7_8  and  C8_10 
REMARK    7  A    between atoms: C8_10  and  O2_11 
REMARK    8  A    between atoms: O2_11  and  C9_12 
REMARK    9  A    between atoms: C12_15  and  C13_16 
REMARK   10  A    between atoms: C15_19  and  O4_20 
ROOT
HETATM    1  C13 UNL     1      29.795  -0.661  53.731  1.00  0.00     0.110 C 
HETATM    2  C14 UNL     1      29.439  -2.102  53.597  1.00  0.00     0.235 C 
HETATM    3  O3  UNL     1      29.042  -3.251  53.458  1.00  0.00    -0.307 OA
ENDROOT
BRANCH   1   4
HETATM    4  C12 UNL     1      28.653   0.238  53.402  1.00  0.00    -0.018 A 
HETATM    5  C11 UNL     1      27.566  -0.292  52.743  1.00  0.00     0.013 A 
HETATM    6  C10 UNL     1      26.514   0.554  52.447  1.00  0.00     0.037 A 
HETATM    7  C9  UNL     1      26.533   1.899  52.797  1.00  0.00     0.072 A 
HETATM    8  C16 UNL     1      27.607   2.454  53.457  1.00  0.00     0.073 A 
HETATM    9  C15 UNL     1      28.639   1.576  53.735  1.00  0.00     0.075 A 
BRANCH   7  10
HETATM   10  O2  UNL     1      25.420   2.658  52.450  1.00  0.00    -0.342 OA
BRANCH  10  11
HETATM   11  C8  UNL     1      24.757   2.497  51.208  1.00  0.00     0.278 C 
BRANCH  11  12
HETATM   12  C7  UNL     1      23.327   2.240  51.454  1.00  0.00     0.241 C 
HETATM   13  N1  UNL     1      22.317   1.644  50.656  1.00  0.00    -0.359 N 
HETATM   14  H14 UNL     1      22.717   1.343  49.718  1.00  0.00     0.162 HD
HETATM   15  O1  UNL     1      23.034   2.658  52.606  1.00  0.00    -0.271 OA
BRANCH  13  16
HETATM   16  C6  UNL     1      21.020   1.566  51.242  1.00  0.00     0.122 C 
BRANCH  16  17
HETATM   17  C5  UNL     1      20.609   0.232  51.766  1.00  0.00     0.020 C 
BRANCH  17  18
HETATM   18  C4  UNL     1      20.050   0.350  53.158  1.00  0.00     0.002 C 
BRANCH  18  19
HETATM   19  C3  UNL     1      21.128   0.171  54.201  1.00  0.00    -0.000 C 
BRANCH  19  20
HETATM   20  C2  UNL     1      22.017  -1.025  53.908  1.00  0.00    -0.005 C 
HETATM   21  C1  UNL     1      23.456  -0.546  53.978  1.00  0.00     0.005 C 
ENDBRANCH  19  20
ENDBRANCH  18  19
ENDBRANCH  17  18
ENDBRANCH  16  17
ENDBRANCH  13  16
ENDBRANCH  11  12
ENDBRANCH  10  11
ENDBRANCH   7  10
BRANCH   9  22
HETATM   22  O4  UNL     1      29.779   2.043  54.405  1.00  0.00    -0.360 OA
HETATM   23  H22 UNL     1      30.539   1.351  54.432  1.00  0.00     0.217 HD
ENDBRANCH   9  22
ENDBRANCH   1   4
TORSDOF 10
ENDMDL
MODEL 5
REMARK VINA RESULT:      -6.1      3.738      6.233
REMARK  10 active torsions:
REMARK  status: ('A' for Active; 'I' for Inactive)
REMARK    1  A    between atoms: C2_2  and  C3_3 
REMARK    2  A    between atoms: C3_3  and  C4_4 
REMARK    3  A    between atoms: C4_4  and  C5_5 
REMARK    4  A    between atoms: C5_5  and  C6_6 
REMARK    5  A    between atoms: C6_6  and  N1_7 
REMARK       I    between atoms: N1_7  and  C7_8 
REMARK    6  A    between atoms: C7_8  and  C8_10 
REMARK    7  A    between atoms: C8_10  and  O2_11 
REMARK    8  A    between atoms: O2_11  and  C9_12 
REMARK    9  A    between atoms: C12_15  and  C13_16 
REMARK   10  A    between atoms: C15_19  and  O4_20 
ROOT
HETATM    1  C13 UNL     1      28.084  -0.155  53.945  1.00  0.00     0.110 C 
HETATM    2  C14 UNL     1      28.903   1.007  54.394  1.00  0.00     0.235 C 
HETATM    3  O3  UNL     1      29.489   2.027  54.729  1.00  0.00    -0.307 OA
ENDROOT
BRANCH   1   4
HETATM    4  C12 UNL     1      26.761   0.262  53.403  1.00  0.00    -0.018 A 
HETATM    5  C11 UNL     1      26.729   1.145  52.347  1.00  0.00     0.013 A 
HETATM    6  C10 UNL     1      25.493   1.519  51.855  1.00  0.00     0.037 A 
HETATM    7  C9  UNL     1      24.309   1.031  52.393  1.00  0.00     0.072 A 
HETATM    8  C16 UNL     1      24.313   0.147  53.450  1.00  0.00     0.073 A 
HETATM    9  C15 UNL     1      25.567  -0.204  53.914  1.00  0.00     0.075 A 
BRANCH   7  10
HETATM   10  O2  UNL     1      23.123   1.476  51.819  1.00  0.00    -0.342 OA
BRANCH  10  11
HETATM   11  C8  UNL     1      22.523   2.705  52.188  1.00  0.00     0.278 C 
BRANCH  11  12
HETATM   12  C7  UNL     1      21.072   2.626  51.943  1.00  0.00     0.241 C 
HETATM   13  N1  UNL     1      20.289   1.757  51.142  1.00  0.00    -0.359 N 
HETATM   14  H14 UNL     1      20.910   1.050  50.647  1.00  0.00     0.162 HD
HETATM   15  O1  UNL     1      20.500   3.532  52.607  1.00  0.00    -0.271 OA
BRANCH  13  16
HETATM   16  C6  UNL     1      18.883   1.990  51.155  1.00  0.00     0.122 C 
BRANCH  16  17
HETATM   17  C5  UNL     1      18.026   0.846  51.583  1.00  0.00     0.020 C 
BRANCH  17  18
HETATM   18  C4  UNL     1      18.854  -0.389  51.809  1.00  0.00     0.002 C 
BRANCH  18  19
HETATM   19  C3  UNL     1      19.002  -0.691  53.282  1.00  0.00    -0.000 C 
BRANCH  19  20
HETATM   20  C2  UNL     1      20.448  -0.947  53.672  1.00  0.00    -0.005 C 
HETATM   21  C1  UNL     1      20.868   0.171  54.610  1.00  0.00     0.005 C 
ENDBRANCH  19  20
ENDBRANCH  18  19
ENDBRANCH  17  18
ENDBRANCH  16  17
ENDBRANCH  13  16
ENDBRANCH  11  12
ENDBRANCH  10  11
ENDBRANCH   7  10
BRANCH   9  22
HETATM   22  O4  UNL     1      25.679  -1.099  54.988  1.00  0.00    -0.360 OA
HETATM   23  H22 UNL     1      26.562  -1.625  54.981  1.00  0.00     0.217 HD
ENDBRANCH   9  22
ENDBRANCH   1   4
TORSDOF 10
ENDMDL
MODEL 6
REMARK VINA RESULT:      -6.1      2.980      5.274
REMARK  10 active torsions:
REMARK  status: ('A' for Active; 'I' for Inactive)
REMARK    1  A    between atoms: C2_2  and  C3_3 
REMARK    2  A    between atoms: C3_3  and  C4_4 
REMARK    3  A    between atoms: C4_4  and  C5_5 
REMARK    4  A    between atoms: C5_5  and  C6_6 
REMARK    5  A    between atoms: C6_6  and  N1_7 
REMARK       I    between atoms: N1_7  and  C7_8 
REMARK    6  A    between atoms: C7_8  and  C8_10 
REMARK    7  A    between atoms: C8_10  and  O2_11 
REMARK    8  A    between atoms: O2_11  and  C9_12 
REMARK    9  A    between atoms: C12_15  and  C13_16 
REMARK   10  A    between atoms: C15_19  and  O4_20 
ROOT
HETATM    1  C13 UNL     1      27.542  -1.477  52.840  1.00  0.00     0.110 C 
HETATM    2  C14 UNL     1      28.919  -1.278  53.373  1.00  0.00     0.235 C 
HETATM    3  O3  UNL     1      30.023  -1.004  53.825  1.00  0.00    -0.307 OA
ENDROOT
BRANCH   1   4
HETATM    4  C12 UNL     1      26.748  -0.217  52.838  1.00  0.00    -0.018 A 
HETATM    5  C11 UNL     1      26.975   0.704  51.840  1.00  0.00     0.013 A 
HETATM    6  C10 UNL     1      26.228   1.867  51.853  1.00  0.00     0.037 A 
HETATM    7  C9  UNL     1      25.273   2.117  52.830  1.00  0.00     0.072 A 
HETATM    8  C16 UNL     1      25.026   1.213  53.839  1.00  0.00     0.073 A 
HETATM    9  C15 UNL     1      25.793   0.062  53.794  1.00  0.00     0.075 A 
BRANCH   7  10
HETATM   10  O2  UNL     1      24.581   3.320  52.745  1.00  0.00    -0.342 OA
BRANCH  10  11
HETATM   11  C8  UNL     1      24.177   3.869  51.503  1.00  0.00     0.278 C 
BRANCH  11  12
HETATM   12  C7  UNL     1      22.966   3.169  51.037  1.00  0.00     0.241 C 
HETATM   13  N1  UNL     1      22.786   1.969  50.303  1.00  0.00    -0.359 N 
HETATM   14  H14 UNL     1      23.727   1.532  50.070  1.00  0.00     0.162 HD
HETATM   15  O1  UNL     1      21.954   3.825  51.402  1.00  0.00    -0.271 OA
BRANCH  13  16
HETATM   16  C6  UNL     1      21.436   1.598  50.032  1.00  0.00     0.122 C 
BRANCH  16  17
HETATM   17  C5  UNL     1      20.977   0.302  50.609  1.00  0.00     0.020 C 
BRANCH  17  18
HETATM   18  C4  UNL     1      21.100   0.309  52.108  1.00  0.00     0.002 C 
BRANCH  18  19
HETATM   19  C3  UNL     1      22.207  -0.607  52.575  1.00  0.00    -0.000 C 
BRANCH  19  20
HETATM   20  C2  UNL     1      21.868  -1.293  53.887  1.00  0.00    -0.005 C 
HETATM   21  C1  UNL     1      21.358  -0.225  54.837  1.00  0.00     0.005 C 
ENDBRANCH  19  20
ENDBRANCH  18  19
ENDBRANCH  17  18
ENDBRANCH  16  17
ENDBRANCH  13  16
ENDBRANCH  11  12
ENDBRANCH  10  11
ENDBRANCH   7  10
BRANCH   9  22
HETATM   22  O4  UNL     1      25.617  -0.923  54.777  1.00  0.00    -0.360 OA
HETATM   23  H22 UNL     1      25.556  -1.872  54.387  1.00  0.00     0.217 HD
ENDBRANCH   9  22
ENDBRANCH   1   4
TORSDOF 10
ENDMDL
MODEL 7
REMARK VINA RESULT:      -5.9      6.107      8.302
REMARK  10 active torsions:
REMARK  status: ('A' for Active; 'I' for Inactive)
REMARK    1  A    between atoms: C2_2  and  C3_3 
REMARK    2  A    between atoms: C3_3  and  C4_4 
REMARK    3  A    between atoms: C4_4  and  C5_5 
REMARK    4  A    between atoms: C5_5  and  C6_6 
REMARK    5  A    between atoms: C6_6  and  N1_7 
REMARK       I    between atoms: N1_7  and  C7_8 
REMARK    6  A    between atoms: C7_8  and  C8_10 
REMARK    7  A    between atoms: C8_10  and  O2_11 
REMARK    8  A    between atoms: O2_11  and  C9_12 
REMARK    9  A    between atoms: C12_15  and  C13_16 
REMARK   10  A    between atoms: C15_19  and  O4_20 
ROOT
HETATM    1  C13 UNL     1      35.070   5.084  48.704  1.00  0.00     0.110 C 
HETATM    2  C14 UNL     1      34.682   3.887  47.905  1.00  0.00     0.235 C 
HETATM    3  O3  UNL     1      34.269   2.961  47.221  1.00  0.00    -0.307 OA
ENDROOT
BRANCH   1   4
HETATM    4  C12 UNL     1      34.058   6.174  48.619  1.00  0.00    -0.018 A 
HETATM    5  C11 UNL     1      32.752   5.887  48.947  1.00  0.00     0.013 A 
HETATM    6  C10 UNL     1      31.826   6.910  48.865  1.00  0.00     0.037 A 
HETATM    7  C9  UNL     1      32.181   8.193  48.468  1.00  0.00     0.072 A 
HETATM    8  C16 UNL     1      33.481   8.506  48.135  1.00  0.00     0.073 A 
HETATM    9  C15 UNL     1      34.378   7.458  48.228  1.00  0.00     0.075 A 
BRANCH   7  10
HETATM   10  O2  UNL     1      31.167   9.144  48.421  1.00  0.00    -0.342 OA
BRANCH  10  11
HETATM   11  C8  UNL     1      30.518   9.609  49.591  1.00  0.00     0.278 C 
BRANCH  11  12
HETATM   12  C7  UNL     1      29.064   9.418  49.444  1.00  0.00     0.241 C 
HETATM   13  N1  UNL     1      28.024   9.264  50.396  1.00  0.00    -0.359 N 
HETATM   14  H14 UNL     1      28.418   9.301  51.383  1.00  0.00     0.162 HD
HETATM   15  O1  UNL     1      28.781   9.402  48.216  1.00  0.00    -0.271 OA
BRANCH  13  16
HETATM   16  C6  UNL     1      26.711   9.098  49.868  1.00  0.00     0.122 C 
BRANCH  16  17
HETATM   17  C5  UNL     1      26.039   7.799  50.160  1.00  0.00     0.020 C 
BRANCH  17  18
HETATM   18  C4  UNL     1      26.120   6.874  48.977  1.00  0.00     0.002 C 
BRANCH  18  19
HETATM   19  C3  UNL     1      26.296   5.438  49.411  1.00  0.00    -0.000 C 
BRANCH  19  20
HETATM   20  C2  UNL     1      27.427   4.749  48.668  1.00  0.00    -0.005 C 
HETATM   21  C1  UNL     1      28.442   5.815  48.298  1.00  0.00     0.005 C 
ENDBRANCH  19  20
ENDBRANCH  18  19
ENDBRANCH  17  18
ENDBRANCH  16  17
ENDBRANCH  13  16
ENDBRANCH  11  12
ENDBRANCH  10  11
ENDBRANCH   7  10
BRANCH   9  22
HETATM   22  O4  UNL     1      35.726   7.674  47.911  1.00  0.00    -0.360 OA
HETATM   23  H22 UNL     1      35.916   8.635  47.601  1.00  0.00     0.217 HD
ENDBRANCH   9  22
ENDBRANCH   1   4
TORSDOF 10
ENDMDL
MODEL 8
REMARK VINA RESULT:      -5.9      2.623      3.618
REMARK  10 active torsions:
REMARK  status: ('A' for Active; 'I' for Inactive)
REMARK    1  A    between atoms: C2_2  and  C3_3 
REMARK    2  A    between atoms: C3_3  and  C4_4 
REMARK    3  A    between atoms: C4_4  and  C5_5 
REMARK    4  A    between atoms: C5_5  and  C6_6 
REMARK    5  A    between atoms: C6_6  and  N1_7 
REMARK       I    between atoms: N1_7  and  C7_8 
REMARK    6  A    between atoms: C7_8  and  C8_10 
REMARK    7  A    between atoms: C8_10  and  O2_11 
REMARK    8  A    between atoms: O2_11  and  C9_12 
REMARK    9  A    between atoms: C12_15  and  C13_16 
REMARK   10  A    between atoms: C15_19  and  O4_20 
ROOT
HETATM    1  C13 UNL     1      27.024   0.352  54.639  1.00  0.00     0.110 C 
HETATM    2  C14 UNL     1      28.040  -0.391  53.841  1.00  0.00     0.235 C 
HETATM    3  O3  UNL     1      28.789  -1.029  53.113  1.00  0.00    -0.307 OA
ENDROOT
BRANCH   1   4
HETATM    4  C12 UNL     1      25.664   0.276  54.037  1.00  0.00    -0.018 A 
HETATM    5  C11 UNL     1      25.368   1.099  52.974  1.00  0.00     0.013 A 
HETATM    6  C10 UNL     1      24.101   1.014  52.425  1.00  0.00     0.037 A 
HETATM    7  C9  UNL     1      23.145   0.134  52.916  1.00  0.00     0.072 A 
HETATM    8  C16 UNL     1      23.417  -0.700  53.978  1.00  0.00     0.073 A 
HETATM    9  C15 UNL     1      24.693  -0.587  54.500  1.00  0.00     0.075 A 
BRANCH   7  10
HETATM   10  O2  UNL     1      21.905   0.133  52.287  1.00  0.00    -0.342 OA
BRANCH  10  11
HETATM   11  C8  UNL     1      20.815   0.898  52.773  1.00  0.00     0.278 C 
BRANCH  11  12
HETATM   12  C7  UNL     1      20.795   2.200  52.083  1.00  0.00     0.241 C 
HETATM   13  N1  UNL     1      21.265   2.609  50.809  1.00  0.00    -0.359 N 
HETATM   14  H14 UNL     1      21.705   1.788  50.296  1.00  0.00     0.162 HD
HETATM   15  O1  UNL     1      20.241   3.046  52.834  1.00  0.00    -0.271 OA
BRANCH  13  16
HETATM   16  C6  UNL     1      21.066   3.981  50.479  1.00  0.00     0.122 C 
BRANCH  16  17
HETATM   17  C5  UNL     1      22.276   4.742  50.052  1.00  0.00     0.020 C 
BRANCH  17  18
HETATM   18  C4  UNL     1      23.316   4.750  51.139  1.00  0.00     0.002 C 
BRANCH  18  19
HETATM   19  C3  UNL     1      24.713   4.709  50.566  1.00  0.00    -0.000 C 
BRANCH  19  20
HETATM   20  C2  UNL     1      24.916   3.525  49.637  1.00  0.00    -0.005 C 
HETATM   21  C1  UNL     1      26.401   3.210  49.622  1.00  0.00     0.005 C 
ENDBRANCH  19  20
ENDBRANCH  18  19
ENDBRANCH  17  18
ENDBRANCH  16  17
ENDBRANCH  13  16
ENDBRANCH  11  12
ENDBRANCH  10  11
ENDBRANCH   7  10
BRANCH   9  22
HETATM   22  O4  UNL     1      25.068  -1.393  55.584  1.00  0.00    -0.360 OA
HETATM   23  H22 UNL     1      25.977  -1.854  55.444  1.00  0.00     0.217 HD
ENDBRANCH   9  22
ENDBRANCH   1   4
TORSDOF 10
ENDMDL
MODEL 9
REMARK VINA RESULT:      -5.9      2.457      3.345
REMARK  10 active torsions:
REMARK  status: ('A' for Active; 'I' for Inactive)
REMARK    1  A    between atoms: C2_2  and  C3_3 
REMARK    2  A    between atoms: C3_3  and  C4_4 
REMARK    3  A    between atoms: C4_4  and  C5_5 
REMARK    4  A    between atoms: C5_5  and  C6_6 
REMARK    5  A    between atoms: C6_6  and  N1_7 
REMARK       I    between atoms: N1_7  and  C7_8 
REMARK    6  A    between atoms: C7_8  and  C8_10 
REMARK    7  A    between atoms: C8_10  and  O2_11 
REMARK    8  A    between atoms: O2_11  and  C9_12 
REMARK    9  A    between atoms: C12_15  and  C13_16 
REMARK   10  A    between atoms: C15_19  and  O4_20 
ROOT
HETATM    1  C13 UNL     1      27.480   0.414  52.770  1.00  0.00     0.110 C 
HETATM    2  C14 UNL     1      28.193   0.563  54.070  1.00  0.00     0.235 C 
HETATM    3  O3  UNL     1      28.676   0.704  55.186  1.00  0.00    -0.307 OA
ENDROOT
BRANCH   1   4
HETATM    4  C12 UNL     1      26.005   0.565  52.913  1.00  0.00    -0.018 A 
HETATM    5  C11 UNL     1      25.246  -0.560  53.145  1.00  0.00     0.013 A 
HETATM    6  C10 UNL     1      23.879  -0.402  53.277  1.00  0.00     0.037 A 
HETATM    7  C9  UNL     1      23.271   0.843  53.182  1.00  0.00     0.072 A 
HETATM    8  C16 UNL     1      24.007   1.985  52.949  1.00  0.00     0.073 A 
HETATM    9  C15 UNL     1      25.370   1.786  52.823  1.00  0.00     0.075 A 
BRANCH   7  10
HETATM   10  O2  UNL     1      21.889   0.885  53.330  1.00  0.00    -0.342 OA
BRANCH  10  11
HETATM   11  C8  UNL     1      21.009   0.431  52.317  1.00  0.00     0.278 C 
BRANCH  11  12
HETATM   12  C7  UNL     1      21.183   1.269  51.117  1.00  0.00     0.241 C 
HETATM   13  N1  UNL     1      21.886   1.057  49.903  1.00  0.00    -0.359 N 
HETATM   14  H14 UNL     1      22.356   0.103  49.910  1.00  0.00     0.162 HD
HETATM   15  O1  UNL     1      20.561   2.351  51.285  1.00  0.00    -0.271 OA
BRANCH  13  16
HETATM   16  C6  UNL     1      21.827   2.117  48.952  1.00  0.00     0.122 C 
BRANCH  16  17
HETATM   17  C5  UNL     1      23.120   2.782  48.622  1.00  0.00     0.020 C 
BRANCH  17  18
HETATM   18  C4  UNL     1      23.389   3.927  49.560  1.00  0.00     0.002 C 
BRANCH  18  19
HETATM   19  C3  UNL     1      24.408   4.883  48.985  1.00  0.00    -0.000 C 
BRANCH  19  20
HETATM   20  C2  UNL     1      25.654   4.979  49.848  1.00  0.00    -0.005 C 
HETATM   21  C1  UNL     1      26.672   4.005  49.283  1.00  0.00     0.005 C 
ENDBRANCH  19  20
ENDBRANCH  18  19
ENDBRANCH  17  18
ENDBRANCH  16  17
ENDBRANCH  13  16
ENDBRANCH  11  12
ENDBRANCH  10  11
ENDBRANCH   7  10
BRANCH   9  22
HETATM   22  O4  UNL     1      26.207   2.886  52.585  1.00  0.00    -0.360 OA
HETATM   23  H22 UNL     1      25.820   3.542  51.895  1.00  0.00     0.217 HD
ENDBRANCH   9  22
ENDBRANCH   1   4
TORSDOF 10
ENDMDL
