MODEL 1
REMARK VINA RESULT:      -7.3      0.000      0.000
REMARK  5 active torsions:
REMARK  status: ('A' for Active; 'I' for Inactive)
REMARK    1  A    between atoms: C2_2  and  C3_3 
REMARK       I    between atoms: C3_3  and  N1_5 
REMARK    2  A    between atoms: N1_5  and  C4_6 
REMARK    3  A    between atoms: C6_8  and  C7_9 
REMARK    4  A    between atoms: C9_13  and  N4_14 
REMARK    5  A    between atoms: N4_14  and  C10_15 
ROOT
HETATM    1  C7  UNL     1      26.322   1.435  53.287  1.00  0.00     0.203 A 
HETATM    2  N2  UNL     1      27.515   1.640  54.074  1.00  0.00    -0.266 NA
HETATM    3  C8  UNL     1      27.786   0.520  54.644  1.00  0.00     0.230 A 
HETATM    4  N3  UNL     1      26.832  -0.502  54.304  1.00  0.00    -0.226 NA
HETATM    5  C9  UNL     1      25.957   0.035  53.497  1.00  0.00     0.134 A 
ENDROOT
BRANCH   1   6
HETATM    6  C6  UNL     1      26.710   1.704  51.868  1.00  0.00     0.032 C 
HETATM    7  C4  UNL     1      26.203   2.744  51.221  1.00  0.00     0.007 C 
HETATM    8  C5  UNL     1      26.598   3.000  49.811  1.00  0.00     0.068 C 
BRANCH   7   9
HETATM    9  N1  UNL     1      25.283   3.633  51.843  1.00  0.00    -0.328 N 
HETATM   10  C3  UNL     1      23.898   3.744  51.532  1.00  0.00     0.244 C 
HETATM   11  O1  UNL     1      23.624   2.912  50.601  1.00  0.00    -0.268 OA
HETATM   12  H4  UNL     1      25.737   4.232  52.592  1.00  0.00     0.169 HD
BRANCH  10  13
HETATM   13  C2  UNL     1      23.039   4.691  52.231  1.00  0.00     0.064 C 
HETATM   14  C1  UNL     1      22.067   5.406  51.700  1.00  0.00     0.017 C 
ENDBRANCH  10  13
ENDBRANCH   7   9
ENDBRANCH   1   6
BRANCH   5  15
HETATM   15  N4  UNL     1      24.822  -0.565  52.885  1.00  0.00    -0.342 N 
HETATM   16  H11 UNL     1      24.910  -1.117  51.982  1.00  0.00     0.167 HD
BRANCH  15  17
HETATM   17  C10 UNL     1      23.538  -0.422  53.497  1.00  0.00     0.034 A 
HETATM   18  C11 UNL     1      23.051  -1.091  54.598  1.00  0.00     0.029 A 
HETATM   19  C12 UNL     1      21.776  -0.815  55.046  1.00  0.00     0.004 A 
HETATM   20  C13 UNL     1      20.964   0.115  54.421  1.00  0.00     0.019 A 
HETATM   21  C14 UNL     1      21.475   0.773  53.317  1.00  0.00     0.013 A 
HETATM   22 BR1  UNL     1      20.320   2.054  52.482  1.00  0.00    -0.051 Br
HETATM   23  C15 UNL     1      22.747   0.525  52.841  1.00  0.00     0.048 A 
ENDBRANCH  15  17
ENDBRANCH   5  15
TORSDOF 5
ENDMDL
MODEL 2
REMARK VINA RESULT:      -7.0      1.960      4.655
REMARK  5 active torsions:
REMARK  status: ('A' for Active; 'I' for Inactive)
REMARK    1  A    between atoms: C2_2  and  C3_3 
REMARK       I    between atoms: C3_3  and  N1_5 
REMARK    2  A    between atoms: N1_5  and  C4_6 
REMARK    3  A    between atoms: C6_8  and  C7_9 
REMARK    4  A    between atoms: C9_13  and  N4_14 
REMARK    5  A    between atoms: N4_14  and  C10_15 
ROOT
HETATM    1  C7  UNL     1      25.290  -0.113  53.524  1.00  0.00     0.203 A 
HETATM    2  N2  UNL     1      26.474  -0.827  53.939  1.00  0.00    -0.266 NA
HETATM    3  C8  UNL     1      27.334   0.054  54.307  1.00  0.00     0.230 A 
HETATM    4  N3  UNL     1      26.824   1.393  54.176  1.00  0.00    -0.226 NA
HETATM    5  C9  UNL     1      25.608   1.302  53.711  1.00  0.00     0.134 A 
ENDROOT
BRANCH   1   6
HETATM    6  C6  UNL     1      24.193  -0.563  54.436  1.00  0.00     0.032 C 
HETATM    7  C4  UNL     1      22.971  -0.763  53.964  1.00  0.00     0.007 C 
HETATM    8  C5  UNL     1      21.890  -1.210  54.880  1.00  0.00     0.068 C 
BRANCH   7   9
HETATM    9  N1  UNL     1      22.659  -0.562  52.590  1.00  0.00    -0.328 N 
HETATM   10  C3  UNL     1      21.991   0.574  52.050  1.00  0.00     0.244 C 
HETATM   11  O1  UNL     1      21.720   1.378  53.006  1.00  0.00    -0.268 OA
HETATM   12  H4  UNL     1      22.982  -1.365  51.976  1.00  0.00     0.169 HD
BRANCH  10  13
HETATM   13  C2  UNL     1      21.719   0.683  50.622  1.00  0.00     0.064 C 
HETATM   14  C1  UNL     1      21.941   1.737  49.861  1.00  0.00     0.017 C 
ENDBRANCH  10  13
ENDBRANCH   7   9
ENDBRANCH   1   6
BRANCH   5  15
HETATM   15  N4  UNL     1      24.689   2.345  53.411  1.00  0.00    -0.342 N 
HETATM   16  H11 UNL     1      23.966   2.663  54.120  1.00  0.00     0.167 HD
BRANCH  15  17
HETATM   17  C10 UNL     1      24.738   2.976  52.128  1.00  0.00     0.034 A 
HETATM   18  C11 UNL     1      25.489   2.605  51.036  1.00  0.00     0.029 A 
HETATM   19  C12 UNL     1      25.402   3.344  49.875  1.00  0.00     0.004 A 
HETATM   20  C13 UNL     1      24.582   4.454  49.771  1.00  0.00     0.019 A 
HETATM   21  C14 UNL     1      23.838   4.807  50.883  1.00  0.00     0.013 A 
HETATM   22 BR1  UNL     1      22.714   6.349  50.697  1.00  0.00    -0.051 Br
HETATM   23  C15 UNL     1      23.898   4.090  52.060  1.00  0.00     0.048 A 
ENDBRANCH  15  17
ENDBRANCH   5  15
TORSDOF 5
ENDMDL
MODEL 3
REMARK VINA RESULT:      -6.8      2.969      4.958
REMARK  5 active torsions:
REMARK  status: ('A' for Active; 'I' for Inactive)
REMARK    1  A    between atoms: C2_2  and  C3_3 
REMARK       I    between atoms: C3_3  and  N1_5 
REMARK    2  A    between atoms: N1_5  and  C4_6 
REMARK    3  A    between atoms: C6_8  and  C7_9 
REMARK    4  A    between atoms: C9_13  and  N4_14 
REMARK    5  A    between atoms: N4_14  and  C10_15 
ROOT
HETATM    1  C7  UNL     1      23.277   2.321  50.837  1.00  0.00     0.203 A 
HETATM    2  N2  UNL     1      22.329   2.060  49.780  1.00  0.00    -0.266 NA
HETATM    3  C8  UNL     1      21.605   1.068  50.160  1.00  0.00     0.230 A 
HETATM    4  N3  UNL     1      21.989   0.589  51.462  1.00  0.00    -0.226 NA
HETATM    5  C9  UNL     1      22.983   1.329  51.871  1.00  0.00     0.134 A 
ENDROOT
BRANCH   1   6
HETATM    6  C6  UNL     1      23.002   3.714  51.306  1.00  0.00     0.032 C 
HETATM    7  C4  UNL     1      23.957   4.633  51.269  1.00  0.00     0.007 C 
HETATM    8  C5  UNL     1      23.671   6.014  51.738  1.00  0.00     0.068 C 
BRANCH   7   9
HETATM    9  N1  UNL     1      25.262   4.334  50.787  1.00  0.00    -0.328 N 
HETATM   10  C3  UNL     1      25.741   4.599  49.473  1.00  0.00     0.244 C 
HETATM   11  O1  UNL     1      24.801   5.149  48.802  1.00  0.00    -0.268 OA
HETATM   12  H4  UNL     1      25.875   3.877  51.524  1.00  0.00     0.169 HD
BRANCH  10  13
HETATM   13  C2  UNL     1      27.100   4.253  49.079  1.00  0.00     0.064 C 
HETATM   14  C1  UNL     1      27.979   5.054  48.508  1.00  0.00     0.017 C 
ENDBRANCH  10  13
ENDBRANCH   7   9
ENDBRANCH   1   6
BRANCH   5  15
HETATM   15  N4  UNL     1      23.709   1.252  53.091  1.00  0.00    -0.342 N 
HETATM   16  H11 UNL     1      23.306   1.632  53.997  1.00  0.00     0.167 HD
BRANCH  15  17
HETATM   17  C10 UNL     1      25.006   0.651  53.099  1.00  0.00     0.034 A 
HETATM   18  C11 UNL     1      25.322  -0.673  52.897  1.00  0.00     0.029 A 
HETATM   19  C12 UNL     1      26.643  -1.067  52.943  1.00  0.00     0.004 A 
HETATM   20  C13 UNL     1      27.668  -0.170  53.188  1.00  0.00     0.019 A 
HETATM   21  C14 UNL     1      27.326   1.155  53.389  1.00  0.00     0.013 A 
HETATM   22 BR1  UNL     1      28.774   2.365  53.725  1.00  0.00    -0.051 Br
HETATM   23  C15 UNL     1      26.015   1.586  53.349  1.00  0.00     0.048 A 
ENDBRANCH  15  17
ENDBRANCH   5  15
TORSDOF 5
ENDMDL
MODEL 4
REMARK VINA RESULT:      -6.7      2.572      4.925
REMARK  5 active torsions:
REMARK  status: ('A' for Active; 'I' for Inactive)
REMARK    1  A    between atoms: C2_2  and  C3_3 
REMARK       I    between atoms: C3_3  and  N1_5 
REMARK    2  A    between atoms: N1_5  and  C4_6 
REMARK    3  A    between atoms: C6_8  and  C7_9 
REMARK    4  A    between atoms: C9_13  and  N4_14 
REMARK    5  A    between atoms: N4_14  and  C10_15 
ROOT
HETATM    1  C7  UNL     1      24.375   1.240  52.510  1.00  0.00     0.203 A 
HETATM    2  N2  UNL     1      24.888   2.485  53.029  1.00  0.00    -0.266 NA
HETATM    3  C8  UNL     1      24.078   3.411  52.656  1.00  0.00     0.230 A 
HETATM    4  N3  UNL     1      22.985   2.888  51.879  1.00  0.00    -0.226 NA
HETATM    5  C9  UNL     1      23.155   1.597  51.787  1.00  0.00     0.134 A 
ENDROOT
BRANCH   1   6
HETATM    6  C6  UNL     1      24.087   0.381  53.700  1.00  0.00     0.032 C 
HETATM    7  C4  UNL     1      25.013  -0.441  54.172  1.00  0.00     0.007 C 
HETATM    8  C5  UNL     1      24.714  -1.288  55.356  1.00  0.00     0.068 C 
BRANCH   7   9
HETATM    9  N1  UNL     1      26.300  -0.537  53.573  1.00  0.00    -0.328 N 
HETATM   10  C3  UNL     1      27.482   0.103  54.042  1.00  0.00     0.244 C 
HETATM   11  O1  UNL     1      27.190   0.777  55.089  1.00  0.00    -0.268 OA
HETATM   12  H4  UNL     1      26.304  -1.155  52.710  1.00  0.00     0.169 HD
BRANCH  10  13
HETATM   13  C2  UNL     1      28.756  -0.061  53.354  1.00  0.00     0.064 C 
HETATM   14  C1  UNL     1      29.757  -0.832  53.732  1.00  0.00     0.017 C 
ENDBRANCH  10  13
ENDBRANCH   7   9
ENDBRANCH   1   6
BRANCH   5  15
HETATM   15  N4  UNL     1      22.345   0.637  51.122  1.00  0.00    -0.342 N 
HETATM   16  H11 UNL     1      22.660   0.182  50.216  1.00  0.00     0.167 HD
BRANCH  15  17
HETATM   17  C10 UNL     1      21.080   0.276  51.684  1.00  0.00     0.034 A 
HETATM   18  C11 UNL     1      20.826  -0.201  52.950  1.00  0.00     0.029 A 
HETATM   19  C12 UNL     1      19.528  -0.495  53.312  1.00  0.00     0.004 A 
HETATM   20  C13 UNL     1      18.467  -0.328  52.441  1.00  0.00     0.019 A 
HETATM   21  C14 UNL     1      18.747   0.152  51.174  1.00  0.00     0.013 A 
HETATM   22 BR1  UNL     1      17.249   0.371  49.998  1.00  0.00    -0.051 Br
HETATM   23  C15 UNL     1      20.032   0.459  50.776  1.00  0.00     0.048 A 
ENDBRANCH  15  17
ENDBRANCH   5  15
TORSDOF 5
ENDMDL
MODEL 5
REMARK VINA RESULT:      -6.5      3.152      5.111
REMARK  5 active torsions:
REMARK  status: ('A' for Active; 'I' for Inactive)
REMARK    1  A    between atoms: C2_2  and  C3_3 
REMARK       I    between atoms: C3_3  and  N1_5 
REMARK    2  A    between atoms: N1_5  and  C4_6 
REMARK    3  A    between atoms: C6_8  and  C7_9 
REMARK    4  A    between atoms: C9_13  and  N4_14 
REMARK    5  A    between atoms: N4_14  and  C10_15 
ROOT
HETATM    1  C7  UNL     1      24.520   4.115  50.426  1.00  0.00     0.203 A 
HETATM    2  N2  UNL     1      24.177   3.926  49.037  1.00  0.00    -0.266 NA
HETATM    3  C8  UNL     1      23.361   2.935  48.983  1.00  0.00     0.230 A 
HETATM    4  N3  UNL     1      23.093   2.386  50.286  1.00  0.00    -0.226 NA
HETATM    5  C9  UNL     1      23.779   3.084  51.150  1.00  0.00     0.134 A 
ENDROOT
BRANCH   1   6
HETATM    6  C6  UNL     1      24.056   5.491  50.785  1.00  0.00     0.032 C 
HETATM    7  C4  UNL     1      24.849   6.536  50.594  1.00  0.00     0.007 C 
HETATM    8  C5  UNL     1      24.376   7.898  50.954  1.00  0.00     0.068 C 
BRANCH   7   9
HETATM    9  N1  UNL     1      26.155   6.391  50.048  1.00  0.00    -0.328 N 
HETATM   10  C3  UNL     1      26.517   6.628  48.691  1.00  0.00     0.244 C 
HETATM   11  O1  UNL     1      25.471   6.990  48.050  1.00  0.00    -0.268 OA
HETATM   12  H4  UNL     1      26.868   6.079  50.770  1.00  0.00     0.169 HD
BRANCH  10  13
HETATM   13  C2  UNL     1      27.888   6.451  48.232  1.00  0.00     0.064 C 
HETATM   14  C1  UNL     1      28.624   5.364  48.363  1.00  0.00     0.017 C 
ENDBRANCH  10  13
ENDBRANCH   7   9
ENDBRANCH   1   6
BRANCH   5  15
HETATM   15  N4  UNL     1      23.849   2.933  52.562  1.00  0.00    -0.342 N 
HETATM   16  H11 UNL     1      23.627   3.740  53.214  1.00  0.00     0.167 HD
BRANCH  15  17
HETATM   17  C10 UNL     1      24.227   1.669  53.115  1.00  0.00     0.034 A 
HETATM   18  C11 UNL     1      23.429   0.564  53.312  1.00  0.00     0.029 A 
HETATM   19  C12 UNL     1      23.978  -0.574  53.863  1.00  0.00     0.004 A 
HETATM   20  C13 UNL     1      25.311  -0.645  54.227  1.00  0.00     0.019 A 
HETATM   21  C14 UNL     1      26.092   0.478  54.020  1.00  0.00     0.013 A 
HETATM   22 BR1  UNL     1      27.933   0.339  54.536  1.00  0.00    -0.051 Br
HETATM   23  C15 UNL     1      25.578   1.635  53.470  1.00  0.00     0.048 A 
ENDBRANCH  15  17
ENDBRANCH   5  15
TORSDOF 5
ENDMDL
MODEL 6
REMARK VINA RESULT:      -6.4      2.816      5.499
REMARK  5 active torsions:
REMARK  status: ('A' for Active; 'I' for Inactive)
REMARK    1  A    between atoms: C2_2  and  C3_3 
REMARK       I    between atoms: C3_3  and  N1_5 
REMARK    2  A    between atoms: N1_5  and  C4_6 
REMARK    3  A    between atoms: C6_8  and  C7_9 
REMARK    4  A    between atoms: C9_13  and  N4_14 
REMARK    5  A    between atoms: N4_14  and  C10_15 
ROOT
HETATM    1  C7  UNL     1      22.317   3.649  52.063  1.00  0.00     0.203 A 
HETATM    2  N2  UNL     1      22.376   5.091  52.054  1.00  0.00    -0.266 NA
HETATM    3  C8  UNL     1      23.525   5.418  51.581  1.00  0.00     0.230 A 
HETATM    4  N3  UNL     1      24.316   4.264  51.243  1.00  0.00    -0.226 NA
HETATM    5  C9  UNL     1      23.604   3.207  51.527  1.00  0.00     0.134 A 
ENDROOT
BRANCH   1   6
HETATM    6  C6  UNL     1      21.181   3.273  51.166  1.00  0.00     0.032 C 
HETATM    7  C4  UNL     1      20.303   2.357  51.547  1.00  0.00     0.007 C 
HETATM    8  C5  UNL     1      19.178   1.993  50.646  1.00  0.00     0.068 C 
BRANCH   7   9
HETATM    9  N1  UNL     1      20.404   1.704  52.807  1.00  0.00    -0.328 N 
HETATM   10  C3  UNL     1      20.974   0.419  53.031  1.00  0.00     0.244 C 
HETATM   11  O1  UNL     1      21.377  -0.047  51.910  1.00  0.00    -0.268 OA
HETATM   12  H4  UNL     1      20.002   2.283  53.601  1.00  0.00     0.169 HD
BRANCH  10  13
HETATM   13  C2  UNL     1      21.030  -0.163  54.366  1.00  0.00     0.064 C 
HETATM   14  C1  UNL     1      21.480  -1.362  54.680  1.00  0.00     0.017 C 
ENDBRANCH  10  13
ENDBRANCH   7   9
ENDBRANCH   1   6
BRANCH   5  15
HETATM   15  N4  UNL     1      23.944   1.835  51.374  1.00  0.00    -0.342 N 
HETATM   16  H11 UNL     1      23.573   1.263  50.561  1.00  0.00     0.167 HD
BRANCH  15  17
HETATM   17  C10 UNL     1      24.803   1.214  52.334  1.00  0.00     0.034 A 
HETATM   18  C11 UNL     1      24.563   0.071  53.063  1.00  0.00     0.029 A 
HETATM   19  C12 UNL     1      25.520  -0.378  53.948  1.00  0.00     0.004 A 
HETATM   20  C13 UNL     1      26.720   0.286  54.131  1.00  0.00     0.019 A 
HETATM   21  C14 UNL     1      26.938   1.432  53.388  1.00  0.00     0.013 A 
HETATM   22 BR1  UNL     1      28.613   2.321  53.669  1.00  0.00    -0.051 Br
HETATM   23  C15 UNL     1      26.004   1.911  52.491  1.00  0.00     0.048 A 
ENDBRANCH  15  17
ENDBRANCH   5  15
TORSDOF 5
ENDMDL
MODEL 7
REMARK VINA RESULT:      -6.4      3.214      5.118
REMARK  5 active torsions:
REMARK  status: ('A' for Active; 'I' for Inactive)
REMARK    1  A    between atoms: C2_2  and  C3_3 
REMARK       I    between atoms: C3_3  and  N1_5 
REMARK    2  A    between atoms: N1_5  and  C4_6 
REMARK    3  A    between atoms: C6_8  and  C7_9 
REMARK    4  A    between atoms: C9_13  and  N4_14 
REMARK    5  A    between atoms: N4_14  and  C10_15 
ROOT
HETATM    1  C7  UNL     1      24.754   3.356  50.958  1.00  0.00     0.203 A 
HETATM    2  N2  UNL     1      24.990   3.695  49.575  1.00  0.00    -0.266 NA
HETATM    3  C8  UNL     1      26.252   3.564  49.366  1.00  0.00     0.230 A 
HETATM    4  N3  UNL     1      26.953   3.141  50.549  1.00  0.00    -0.226 NA
HETATM    5  C9  UNL     1      26.068   3.015  51.501  1.00  0.00     0.134 A 
ENDROOT
BRANCH   1   6
HETATM    6  C6  UNL     1      23.833   2.177  50.944  1.00  0.00     0.032 C 
HETATM    7  C4  UNL     1      22.574   2.316  50.555  1.00  0.00     0.007 C 
HETATM    8  C5  UNL     1      21.670   1.136  50.547  1.00  0.00     0.068 C 
BRANCH   7   9
HETATM    9  N1  UNL     1      22.056   3.574  50.140  1.00  0.00    -0.328 N 
HETATM   10  C3  UNL     1      21.460   4.547  50.991  1.00  0.00     0.244 C 
HETATM   11  O1  UNL     1      21.470   4.099  52.188  1.00  0.00    -0.268 OA
HETATM   12  H4  UNL     1      22.158   3.733  49.095  1.00  0.00     0.169 HD
BRANCH  10  13
HETATM   13  C2  UNL     1      20.960   5.810  50.462  1.00  0.00     0.064 C 
HETATM   14  C1  UNL     1      21.441   7.011  50.717  1.00  0.00     0.017 C 
ENDBRANCH  10  13
ENDBRANCH   7   9
ENDBRANCH   1   6
BRANCH   5  15
HETATM   15  N4  UNL     1      26.264   2.622  52.853  1.00  0.00    -0.342 N 
HETATM   16  H11 UNL     1      25.645   2.996  53.631  1.00  0.00     0.167 HD
BRANCH  15  17
HETATM   17  C10 UNL     1      27.313   1.705  53.172  1.00  0.00     0.034 A 
HETATM   18  C11 UNL     1      28.535   1.988  53.740  1.00  0.00     0.029 A 
HETATM   19  C12 UNL     1      29.425   0.960  53.974  1.00  0.00     0.004 A 
HETATM   20  C13 UNL     1      29.130  -0.353  53.655  1.00  0.00     0.019 A 
HETATM   21  C14 UNL     1      27.896  -0.613  53.085  1.00  0.00     0.013 A 
HETATM   22 BR1  UNL     1      27.525  -2.445  52.660  1.00  0.00    -0.051 Br
HETATM   23  C15 UNL     1      26.980   0.389  52.838  1.00  0.00     0.048 A 
ENDBRANCH  15  17
ENDBRANCH   5  15
TORSDOF 5
ENDMDL
MODEL 8
REMARK VINA RESULT:      -6.3      2.680      4.981
REMARK  5 active torsions:
REMARK  status: ('A' for Active; 'I' for Inactive)
REMARK    1  A    between atoms: C2_2  and  C3_3 
REMARK       I    between atoms: C3_3  and  N1_5 
REMARK    2  A    between atoms: N1_5  and  C4_6 
REMARK    3  A    between atoms: C6_8  and  C7_9 
REMARK    4  A    between atoms: C9_13  and  N4_14 
REMARK    5  A    between atoms: N4_14  and  C10_15 
ROOT
HETATM    1  C7  UNL     1      22.006   0.871  52.178  1.00  0.00     0.203 A 
HETATM    2  N2  UNL     1      20.939  -0.075  52.402  1.00  0.00    -0.266 NA
HETATM    3  C8  UNL     1      21.228  -0.721  53.475  1.00  0.00     0.230 A 
HETATM    4  N3  UNL     1      22.473  -0.282  54.049  1.00  0.00    -0.226 NA
HETATM    5  C9  UNL     1      22.942   0.665  53.283  1.00  0.00     0.134 A 
ENDROOT
BRANCH   1   6
HETATM    6  C6  UNL     1      21.375   2.226  52.227  1.00  0.00     0.032 C 
HETATM    7  C4  UNL     1      21.796   3.190  51.420  1.00  0.00     0.007 C 
HETATM    8  C5  UNL     1      21.161   4.532  51.478  1.00  0.00     0.068 C 
BRANCH   7   9
HETATM    9  N1  UNL     1      22.850   2.975  50.488  1.00  0.00    -0.328 N 
HETATM   10  C3  UNL     1      24.206   3.373  50.664  1.00  0.00     0.244 C 
HETATM   11  O1  UNL     1      24.314   3.955  51.797  1.00  0.00    -0.268 OA
HETATM   12  H4  UNL     1      22.525   2.469  49.613  1.00  0.00     0.169 HD
BRANCH  10  13
HETATM   13  C2  UNL     1      25.212   3.104  49.645  1.00  0.00     0.064 C 
HETATM   14  C1  UNL     1      26.464   3.520  49.650  1.00  0.00     0.017 C 
ENDBRANCH  10  13
ENDBRANCH   7   9
ENDBRANCH   1   6
BRANCH   5  15
HETATM   15  N4  UNL     1      24.142   1.415  53.425  1.00  0.00    -0.342 N 
HETATM   16  H11 UNL     1      24.120   2.456  53.628  1.00  0.00     0.167 HD
BRANCH  15  17
HETATM   17  C10 UNL     1      25.402   0.753  53.291  1.00  0.00     0.034 A 
HETATM   18  C11 UNL     1      25.638  -0.524  52.835  1.00  0.00     0.029 A 
HETATM   19  C12 UNL     1      26.935  -0.991  52.777  1.00  0.00     0.004 A 
HETATM   20  C13 UNL     1      28.012  -0.215  53.166  1.00  0.00     0.019 A 
HETATM   21  C14 UNL     1      27.750   1.065  53.621  1.00  0.00     0.013 A 
HETATM   22 BR1  UNL     1      29.270   2.107  54.147  1.00  0.00    -0.051 Br
HETATM   23  C15 UNL     1      26.466   1.566  53.691  1.00  0.00     0.048 A 
ENDBRANCH  15  17
ENDBRANCH   5  15
TORSDOF 5
ENDMDL
MODEL 9
REMARK VINA RESULT:      -6.2      3.036      5.344
REMARK  5 active torsions:
REMARK  status: ('A' for Active; 'I' for Inactive)
REMARK    1  A    between atoms: C2_2  and  C3_3 
REMARK       I    between atoms: C3_3  and  N1_5 
REMARK    2  A    between atoms: N1_5  and  C4_6 
REMARK    3  A    between atoms: C6_8  and  C7_9 
REMARK    4  A    between atoms: C9_13  and  N4_14 
REMARK    5  A    between atoms: N4_14  and  C10_15 
ROOT
HETATM    1  C7  UNL     1      24.474   4.377  49.547  1.00  0.00     0.203 A 
HETATM    2  N2  UNL     1      23.536   4.171  48.470  1.00  0.00    -0.266 NA
HETATM    3  C8  UNL     1      22.881   3.099  48.741  1.00  0.00     0.230 A 
HETATM    4  N3  UNL     1      23.307   2.508  49.982  1.00  0.00    -0.226 NA
HETATM    5  C9  UNL     1      24.254   3.263  50.468  1.00  0.00     0.134 A 
ENDROOT
BRANCH   1   6
HETATM    6  C6  UNL     1      24.115   5.690  50.165  1.00  0.00     0.032 C 
HETATM    7  C4  UNL     1      25.024   6.648  50.280  1.00  0.00     0.007 C 
HETATM    8  C5  UNL     1      24.653   7.949  50.896  1.00  0.00     0.068 C 
BRANCH   7   9
HETATM    9  N1  UNL     1      26.360   6.466  49.825  1.00  0.00    -0.328 N 
HETATM   10  C3  UNL     1      26.839   6.769  48.519  1.00  0.00     0.244 C 
HETATM   11  O1  UNL     1      25.868   7.230  47.828  1.00  0.00    -0.268 OA
HETATM   12  H4  UNL     1      26.997   6.068  50.576  1.00  0.00     0.169 HD
BRANCH  10  13
HETATM   13  C2  UNL     1      28.232   6.545  48.153  1.00  0.00     0.064 C 
HETATM   14  C1  UNL     1      28.886   5.402  48.223  1.00  0.00     0.017 C 
ENDBRANCH  10  13
ENDBRANCH   7   9
ENDBRANCH   1   6
BRANCH   5  15
HETATM   15  N4  UNL     1      24.994   3.101  51.672  1.00  0.00    -0.342 N 
HETATM   16  H11 UNL     1      25.282   3.938  52.258  1.00  0.00     0.167 HD
BRANCH  15  17
HETATM   17  C10 UNL     1      25.355   1.786  52.102  1.00  0.00     0.034 A 
HETATM   18  C11 UNL     1      26.500   1.085  51.796  1.00  0.00     0.029 A 
HETATM   19  C12 UNL     1      26.673  -0.183  52.309  1.00  0.00     0.004 A 
HETATM   20  C13 UNL     1      25.728  -0.779  53.126  1.00  0.00     0.019 A 
HETATM   21  C14 UNL     1      24.586  -0.055  53.420  1.00  0.00     0.013 A 
HETATM   22 BR1  UNL     1      23.304  -0.915  54.555  1.00  0.00    -0.051 Br
HETATM   23  C15 UNL     1      24.380   1.217  52.925  1.00  0.00     0.048 A 
ENDBRANCH  15  17
ENDBRANCH   5  15
TORSDOF 5
ENDMDL
