MODEL 1
REMARK VINA RESULT:     -10.1      0.000      0.000
REMARK  2 active torsions:
REMARK  status: ('A' for Active; 'I' for Inactive)
REMARK    1  A    between atoms: C2_2  and  O1_3 
REMARK    2  A    between atoms: O1_3  and  C3_4 
ROOT
HETATM    1  C3  UNL     1      26.807   0.917  53.051  1.00  0.00     0.094 A 
HETATM    2  C4  UNL     1      26.029   0.070  53.861  1.00  0.00     0.053 A 
HETATM    3  C5  UNL     1      24.577   0.015  53.640  1.00  0.00     0.134 A 
HETATM    4  N1  UNL     1      24.098  -0.891  54.565  1.00  0.00    -0.277 NA
HETATM    5  C6  UNL     1      22.784  -1.245  54.696  1.00  0.00     0.133 A 
HETATM    6  C7  UNL     1      21.969  -0.526  53.718  1.00  0.00     0.075 A 
HETATM    7  C8  UNL     1      20.610  -0.820  53.746  1.00  0.00     0.099 C 
HETATM    8  N2  UNL     1      19.520  -1.077  53.776  1.00  0.00    -0.192 NA
HETATM    9  C9  UNL     1      22.890   0.055  53.250  1.00  0.00     0.131 A 
HETATM   10  C10 UNL     1      23.814   0.784  52.616  1.00  0.00    -0.004 A 
HETATM   11  C11 UNL     1      24.828   1.420  52.094  1.00  0.00     0.041 A 
HETATM   12  C12 UNL     1      26.143   1.644  52.098  1.00  0.00     0.068 A 
HETATM   13  N3  UNL     1      26.607   2.506  51.111  1.00  0.00    -0.321 N 
HETATM   14  C13 UNL     1      25.920   3.579  50.530  1.00  0.00     0.245 C 
HETATM   15  O2  UNL     1      24.905   3.565  51.150  1.00  0.00    -0.268 OA
HETATM   16  C14 UNL     1      25.960   4.629  49.555  1.00  0.00     0.072 C 
HETATM   17  C15 UNL     1      25.150   5.551  49.148  1.00  0.00    -0.002 C 
HETATM   18  C16 UNL     1      23.859   6.257  49.190  1.00  0.00     0.144 C 
HETATM   19  N4  UNL     1      23.177   6.216  47.913  1.00  0.00    -0.413 N 
HETATM   20  C17 UNL     1      23.807   6.953  46.865  1.00  0.00     0.143 C 
HETATM   21  C18 UNL     1      22.633   4.948  47.566  1.00  0.00     0.120 C 
HETATM   22  C19 UNL     1      21.441   4.565  48.380  1.00  0.00     0.000 C 
HETATM   23  C20 UNL     1      20.235   5.387  48.155  1.00  0.00     0.011 C 
HETATM   24  C21 UNL     1      21.240   3.063  48.169  1.00  0.00    -0.014 C 
HETATM   25  C22 UNL     1      21.190   1.730  48.516  1.00  0.00     0.045 C 
HETATM   26  C23 UNL     1      21.491   1.442  49.961  1.00  0.00    -0.004 C 
HETATM   27  C24 UNL     1      21.631   0.551  50.973  1.00  0.00     0.080 C 
HETATM   28  N5  UNL     1      21.972   0.803  52.355  1.00  0.00    -0.379 N 
HETATM   29  H9  UNL     1      27.553   2.324  50.796  1.00  0.00     0.169 HD
HETATM   30  H27 UNL     1      21.345   1.611  52.522  1.00  0.00     0.160 HD
ENDROOT
BRANCH   1  31
HETATM   31  O1  UNL     1      28.125   1.168  53.019  1.00  0.00    -0.349 OA
BRANCH  31  32
HETATM   32  C2  UNL     1      29.182   0.928  53.843  1.00  0.00     0.171 C 
HETATM   33  C1  UNL     1      29.677  -0.489  53.599  1.00  0.00     0.034 C 
ENDBRANCH  31  32
ENDBRANCH   1  31
TORSDOF 2
ENDMDL
MODEL 2
REMARK VINA RESULT:      -9.0      2.347      4.024
REMARK  2 active torsions:
REMARK  status: ('A' for Active; 'I' for Inactive)
REMARK    1  A    between atoms: C2_2  and  O1_3 
REMARK    2  A    between atoms: O1_3  and  C3_4 
ROOT
HETATM    1  C3  UNL     1      25.868   2.875  50.202  1.00  0.00     0.094 A 
HETATM    2  C4  UNL     1      26.269   2.024  51.248  1.00  0.00     0.053 A 
HETATM    3  C5  UNL     1      25.237   1.344  52.044  1.00  0.00     0.134 A 
HETATM    4  N1  UNL     1      25.927   0.587  52.971  1.00  0.00    -0.277 NA
HETATM    5  C6  UNL     1      25.339  -0.212  53.911  1.00  0.00     0.133 A 
HETATM    6  C7  UNL     1      23.884  -0.147  53.789  1.00  0.00     0.075 A 
HETATM    7  C8  UNL     1      23.177  -0.937  54.688  1.00  0.00     0.099 C 
HETATM    8  N2  UNL     1      22.623  -1.588  55.413  1.00  0.00    -0.192 NA
HETATM    9  C9  UNL     1      23.908   0.614  52.880  1.00  0.00     0.131 A 
HETATM   10  C10 UNL     1      23.763   1.463  51.858  1.00  0.00    -0.004 A 
HETATM   11  C11 UNL     1      23.788   2.295  50.852  1.00  0.00     0.041 A 
HETATM   12  C12 UNL     1      24.520   3.014  49.999  1.00  0.00     0.068 A 
HETATM   13  N3  UNL     1      23.803   3.710  49.033  1.00  0.00    -0.321 N 
HETATM   14  C13 UNL     1      22.512   4.239  49.152  1.00  0.00     0.245 C 
HETATM   15  O2  UNL     1      22.261   3.981  50.285  1.00  0.00    -0.268 OA
HETATM   16  C14 UNL     1      21.447   4.936  48.493  1.00  0.00     0.072 C 
HETATM   17  C15 UNL     1      20.256   5.327  48.809  1.00  0.00    -0.002 C 
HETATM   18  C16 UNL     1      19.138   5.450  49.759  1.00  0.00     0.144 C 
HETATM   19  N4  UNL     1      17.931   4.822  49.262  1.00  0.00    -0.413 N 
HETATM   20  C17 UNL     1      17.340   5.458  48.129  1.00  0.00     0.143 C 
HETATM   21  C18 UNL     1      17.956   3.400  49.256  1.00  0.00     0.120 C 
HETATM   22  C19 UNL     1      17.884   2.794  50.620  1.00  0.00     0.000 C 
HETATM   23  C20 UNL     1      16.601   2.986  51.326  1.00  0.00     0.011 C 
HETATM   24  C21 UNL     1      18.319   1.335  50.468  1.00  0.00    -0.014 C 
HETATM   25  C22 UNL     1      19.118   0.226  50.642  1.00  0.00     0.045 C 
HETATM   26  C23 UNL     1      20.339   0.455  51.490  1.00  0.00    -0.004 C 
HETATM   27  C24 UNL     1      21.467  -0.022  52.071  1.00  0.00     0.080 C 
HETATM   28  N5  UNL     1      22.426   0.685  52.891  1.00  0.00    -0.379 N 
HETATM   29  H9  UNL     1      24.290   3.844  48.155  1.00  0.00     0.169 HD
HETATM   30  H27 UNL     1      21.759   1.192  53.501  1.00  0.00     0.160 HD
ENDROOT
BRANCH   1  31
HETATM   31  O1  UNL     1      26.567   3.611  49.323  1.00  0.00    -0.349 OA
BRANCH  31  32
HETATM   32  C2  UNL     1      26.802   4.939  49.137  1.00  0.00     0.171 C 
HETATM   33  C1  UNL     1      28.161   5.103  48.475  1.00  0.00     0.034 C 
ENDBRANCH  31  32
ENDBRANCH   1  31
TORSDOF 2
ENDMDL
MODEL 3
REMARK VINA RESULT:      -8.7      2.545      5.677
REMARK  2 active torsions:
REMARK  status: ('A' for Active; 'I' for Inactive)
REMARK    1  A    between atoms: C2_2  and  O1_3 
REMARK    2  A    between atoms: O1_3  and  C3_4 
ROOT
HETATM    1  C3  UNL     1      20.083  -0.863  53.489  1.00  0.00     0.094 A 
HETATM    2  C4  UNL     1      21.212  -1.333  54.183  1.00  0.00     0.053 A 
HETATM    3  C5  UNL     1      22.491  -0.629  54.015  1.00  0.00     0.134 A 
HETATM    4  N1  UNL     1      23.392  -1.307  54.812  1.00  0.00    -0.277 NA
HETATM    5  C6  UNL     1      24.710  -0.972  54.952  1.00  0.00     0.133 A 
HETATM    6  C7  UNL     1      25.019   0.203  54.139  1.00  0.00     0.075 A 
HETATM    7  C8  UNL     1      26.334   0.649  54.216  1.00  0.00     0.099 C 
HETATM    8  N2  UNL     1      27.395   1.000  54.298  1.00  0.00    -0.192 NA
HETATM    9  C9  UNL     1      23.915   0.311  53.721  1.00  0.00     0.131 A 
HETATM   10  C10 UNL     1      22.729   0.570  53.162  1.00  0.00    -0.004 A 
HETATM   11  C11 UNL     1      21.512   0.695  52.705  1.00  0.00     0.041 A 
HETATM   12  C12 UNL     1      20.259   0.236  52.691  1.00  0.00     0.068 A 
HETATM   13  N3  UNL     1      19.359   0.979  51.937  1.00  0.00    -0.321 N 
HETATM   14  C13 UNL     1      19.630   1.727  50.784  1.00  0.00     0.245 C 
HETATM   15  O2  UNL     1      20.784   1.490  50.624  1.00  0.00    -0.268 OA
HETATM   16  C14 UNL     1      19.097   2.597  49.777  1.00  0.00     0.072 C 
HETATM   17  C15 UNL     1      19.565   3.227  48.750  1.00  0.00    -0.002 C 
HETATM   18  C16 UNL     1      20.666   3.606  47.850  1.00  0.00     0.144 C 
HETATM   19  N4  UNL     1      20.869   5.041  47.815  1.00  0.00    -0.413 N 
HETATM   20  C17 UNL     1      19.812   5.787  47.212  1.00  0.00     0.143 C 
HETATM   21  C18 UNL     1      21.452   5.591  48.990  1.00  0.00     0.120 C 
HETATM   22  C19 UNL     1      22.895   5.243  49.162  1.00  0.00     0.000 C 
HETATM   23  C20 UNL     1      23.807   5.840  48.166  1.00  0.00     0.011 C 
HETATM   24  C21 UNL     1      23.243   5.556  50.618  1.00  0.00    -0.014 C 
HETATM   25  C22 UNL     1      23.615   5.288  51.918  1.00  0.00     0.045 C 
HETATM   26  C23 UNL     1      23.874   3.836  52.214  1.00  0.00    -0.004 C 
HETATM   27  C24 UNL     1      24.229   2.865  53.091  1.00  0.00     0.080 C 
HETATM   28  N5  UNL     1      24.344   1.442  52.861  1.00  0.00    -0.379 N 
HETATM   29  H9  UNL     1      18.403   0.959  52.273  1.00  0.00     0.169 HD
HETATM   30  H27 UNL     1      24.857   1.475  51.961  1.00  0.00     0.160 HD
ENDROOT
BRANCH   1  31
HETATM   31  O1  UNL     1      18.810  -1.290  53.448  1.00  0.00    -0.349 OA
BRANCH  31  32
HETATM   32  C2  UNL     1      18.153  -2.425  53.812  1.00  0.00     0.171 C 
HETATM   33  C1  UNL     1      16.834  -2.487  53.057  1.00  0.00     0.034 C 
ENDBRANCH  31  32
ENDBRANCH   1  31
TORSDOF 2
ENDMDL
MODEL 4
REMARK VINA RESULT:      -8.6      6.281     10.505
REMARK  2 active torsions:
REMARK  status: ('A' for Active; 'I' for Inactive)
REMARK    1  A    between atoms: C2_2  and  O1_3 
REMARK    2  A    between atoms: O1_3  and  C3_4 
ROOT
HETATM    1  C3  UNL     1      27.022   5.765  48.724  1.00  0.00     0.094 A 
HETATM    2  C4  UNL     1      28.220   5.088  48.430  1.00  0.00     0.053 A 
HETATM    3  C5  UNL     1      29.414   5.876  48.094  1.00  0.00     0.134 A 
HETATM    4  N1  UNL     1      30.413   4.951  47.867  1.00  0.00    -0.277 NA
HETATM    5  C6  UNL     1      31.700   5.265  47.529  1.00  0.00     0.133 A 
HETATM    6  C7  UNL     1      31.859   6.716  47.447  1.00  0.00     0.075 A 
HETATM    7  C8  UNL     1      33.138   7.156  47.126  1.00  0.00     0.099 C 
HETATM    8  N2  UNL     1      34.177   7.494  46.877  1.00  0.00    -0.192 NA
HETATM    9  C9  UNL     1      30.729   6.942  47.728  1.00  0.00     0.131 A 
HETATM   10  C10 UNL     1      29.497   7.363  48.029  1.00  0.00    -0.004 A 
HETATM   11  C11 UNL     1      28.255   7.614  48.345  1.00  0.00     0.041 A 
HETATM   12  C12 UNL     1      27.055   7.133  48.674  1.00  0.00     0.068 A 
HETATM   13  N3  UNL     1      26.087   8.087  48.966  1.00  0.00    -0.321 N 
HETATM   14  C13 UNL     1      25.979   9.378  48.433  1.00  0.00     0.245 C 
HETATM   15  O2  UNL     1      26.878   9.380  47.654  1.00  0.00    -0.268 OA
HETATM   16  C14 UNL     1      25.252  10.613  48.445  1.00  0.00     0.072 C 
HETATM   17  C15 UNL     1      25.347  11.754  47.845  1.00  0.00    -0.002 C 
HETATM   18  C16 UNL     1      26.004  12.675  46.903  1.00  0.00     0.144 C 
HETATM   19  N4  UNL     1      26.456  13.887  47.555  1.00  0.00    -0.413 N 
HETATM   20  C17 UNL     1      25.418  14.744  48.029  1.00  0.00     0.143 C 
HETATM   21  C18 UNL     1      27.587  13.723  48.403  1.00  0.00     0.120 C 
HETATM   22  C19 UNL     1      28.860  13.473  47.662  1.00  0.00     0.000 C 
HETATM   23  C20 UNL     1      29.353  14.609  46.859  1.00  0.00     0.011 C 
HETATM   24  C21 UNL     1      29.857  12.933  48.689  1.00  0.00    -0.014 C 
HETATM   25  C22 UNL     1      30.690  12.010  49.283  1.00  0.00     0.045 C 
HETATM   26  C23 UNL     1      30.754  10.677  48.588  1.00  0.00    -0.004 C 
HETATM   27  C24 UNL     1      31.248   9.418  48.514  1.00  0.00     0.080 C 
HETATM   28  N5  UNL     1      30.964   8.394  47.533  1.00  0.00    -0.379 N 
HETATM   29  H9  UNL     1      25.387   7.793  49.637  1.00  0.00     0.169 HD
HETATM   30  H27 UNL     1      31.033   8.978  46.680  1.00  0.00     0.160 HD
ENDROOT
BRANCH   1  31
HETATM   31  O1  UNL     1      25.799   5.323  49.060  1.00  0.00    -0.349 OA
BRANCH  31  32
HETATM   32  C2  UNL     1      25.253   4.699  50.140  1.00  0.00     0.171 C 
HETATM   33  C1  UNL     1      25.044   3.232  49.800  1.00  0.00     0.034 C 
ENDBRANCH  31  32
ENDBRANCH   1  31
TORSDOF 2
ENDMDL
MODEL 5
REMARK VINA RESULT:      -8.6      2.119      3.180
REMARK  2 active torsions:
REMARK  status: ('A' for Active; 'I' for Inactive)
REMARK    1  A    between atoms: C2_2  and  O1_3 
REMARK    2  A    between atoms: O1_3  and  C3_4 
ROOT
HETATM    1  C3  UNL     1      25.477   1.337  51.829  1.00  0.00     0.094 A 
HETATM    2  C4  UNL     1      24.273   0.991  52.469  1.00  0.00     0.053 A 
HETATM    3  C5  UNL     1      23.060   1.762  52.159  1.00  0.00     0.134 A 
HETATM    4  N1  UNL     1      22.059   1.192  52.920  1.00  0.00    -0.277 NA
HETATM    5  C6  UNL     1      20.757   1.609  52.926  1.00  0.00     0.133 A 
HETATM    6  C7  UNL     1      20.585   2.737  52.013  1.00  0.00     0.075 A 
HETATM    7  C8  UNL     1      19.290   3.237  51.923  1.00  0.00     0.099 C 
HETATM    8  N2  UNL     1      18.240   3.619  51.855  1.00  0.00    -0.192 NA
HETATM    9  C9  UNL     1      21.724   2.755  51.684  1.00  0.00     0.131 A 
HETATM   10  C10 UNL     1      22.965   2.908  51.211  1.00  0.00    -0.004 A 
HETATM   11  C11 UNL     1      24.217   2.924  50.842  1.00  0.00     0.041 A 
HETATM   12  C12 UNL     1      25.433   2.387  50.951  1.00  0.00     0.068 A 
HETATM   13  N3  UNL     1      26.406   2.934  50.122  1.00  0.00    -0.321 N 
HETATM   14  C13 UNL     1      26.483   4.253  49.658  1.00  0.00     0.245 C 
HETATM   15  O2  UNL     1      25.552   4.745  50.212  1.00  0.00    -0.268 OA
HETATM   16  C14 UNL     1      27.201   5.188  48.843  1.00  0.00     0.072 C 
HETATM   17  C15 UNL     1      27.073   6.434  48.524  1.00  0.00    -0.002 C 
HETATM   18  C16 UNL     1      26.372   7.726  48.590  1.00  0.00     0.144 C 
HETATM   19  N4  UNL     1      25.938   8.176  47.283  1.00  0.00    -0.413 N 
HETATM   20  C17 UNL     1      26.990   8.532  46.386  1.00  0.00     0.143 C 
HETATM   21  C18 UNL     1      24.846   7.451  46.732  1.00  0.00     0.120 C 
HETATM   22  C19 UNL     1      23.545   7.717  47.416  1.00  0.00     0.000 C 
HETATM   23  C20 UNL     1      23.010   9.082  47.240  1.00  0.00     0.011 C 
HETATM   24  C21 UNL     1      22.595   6.597  46.987  1.00  0.00    -0.014 C 
HETATM   25  C22 UNL     1      21.794   5.487  47.141  1.00  0.00     0.045 C 
HETATM   26  C23 UNL     1      21.710   4.958  48.547  1.00  0.00    -0.004 C 
HETATM   27  C24 UNL     1      21.222   4.054  49.430  1.00  0.00     0.080 C 
HETATM   28  N5  UNL     1      21.472   3.957  50.851  1.00  0.00    -0.379 N 
HETATM   29  H9  UNL     1      27.135   2.290  49.839  1.00  0.00     0.169 HD
HETATM   30  H27 UNL     1      21.363   4.959  51.093  1.00  0.00     0.160 HD
ENDROOT
BRANCH   1  31
HETATM   31  O1  UNL     1      26.716   0.825  51.908  1.00  0.00    -0.349 OA
BRANCH  31  32
HETATM   32  C2  UNL     1      27.746   0.902  52.794  1.00  0.00     0.171 C 
HETATM   33  C1  UNL     1      27.511  -0.113  53.902  1.00  0.00     0.034 C 
ENDBRANCH  31  32
ENDBRANCH   1  31
TORSDOF 2
ENDMDL
MODEL 6
REMARK VINA RESULT:      -8.5      4.518      7.483
REMARK  2 active torsions:
REMARK  status: ('A' for Active; 'I' for Inactive)
REMARK    1  A    between atoms: C2_2  and  O1_3 
REMARK    2  A    between atoms: O1_3  and  C3_4 
ROOT
HETATM    1  C3  UNL     1      21.353   4.226  50.816  1.00  0.00     0.094 A 
HETATM    2  C4  UNL     1      22.347   3.478  51.472  1.00  0.00     0.053 A 
HETATM    3  C5  UNL     1      21.948   2.293  52.244  1.00  0.00     0.134 A 
HETATM    4  N1  UNL     1      23.121   1.775  52.756  1.00  0.00    -0.277 NA
HETATM    5  C6  UNL     1      23.200   0.656  53.536  1.00  0.00     0.133 A 
HETATM    6  C7  UNL     1      21.867   0.093  53.746  1.00  0.00     0.075 A 
HETATM    7  C8  UNL     1      21.825  -1.064  54.516  1.00  0.00     0.099 C 
HETATM    8  N2  UNL     1      21.811  -2.002  55.129  1.00  0.00    -0.192 NA
HETATM    9  C9  UNL     1      21.321   0.926  53.102  1.00  0.00     0.131 A 
HETATM   10  C10 UNL     1      20.559   1.781  52.414  1.00  0.00    -0.004 A 
HETATM   11  C11 UNL     1      19.956   2.693  51.699  1.00  0.00     0.041 A 
HETATM   12  C12 UNL     1      20.061   3.790  50.948  1.00  0.00     0.068 A 
HETATM   13  N3  UNL     1      18.874   4.249  50.389  1.00  0.00    -0.321 N 
HETATM   14  C13 UNL     1      17.583   4.129  50.919  1.00  0.00     0.245 C 
HETATM   15  O2  UNL     1      17.811   3.603  51.961  1.00  0.00    -0.268 OA
HETATM   16  C14 UNL     1      16.187   4.385  50.722  1.00  0.00     0.072 C 
HETATM   17  C15 UNL     1      15.097   4.155  51.377  1.00  0.00    -0.002 C 
HETATM   18  C16 UNL     1      14.368   3.615  52.537  1.00  0.00     0.144 C 
HETATM   19  N4  UNL     1      13.398   2.612  52.149  1.00  0.00    -0.413 N 
HETATM   20  C17 UNL     1      12.292   3.101  51.390  1.00  0.00     0.143 C 
HETATM   21  C18 UNL     1      13.954   1.368  51.740  1.00  0.00     0.120 C 
HETATM   22  C19 UNL     1      14.540   0.576  52.864  1.00  0.00     0.000 C 
HETATM   23  C20 UNL     1      13.566   0.065  53.848  1.00  0.00     0.011 C 
HETATM   24  C21 UNL     1      15.423  -0.496  52.221  1.00  0.00    -0.014 C 
HETATM   25  C22 UNL     1      16.593  -1.152  51.906  1.00  0.00     0.045 C 
HETATM   26  C23 UNL     1      17.835  -0.553  52.507  1.00  0.00    -0.004 C 
HETATM   27  C24 UNL     1      19.179  -0.574  52.680  1.00  0.00     0.080 C 
HETATM   28  N5  UNL     1      20.003   0.335  53.444  1.00  0.00    -0.379 N 
HETATM   29  H9  UNL     1      18.977   4.727  49.501  1.00  0.00     0.169 HD
HETATM   30  H27 UNL     1      19.418   0.389  54.298  1.00  0.00     0.160 HD
ENDROOT
BRANCH   1  31
HETATM   31  O1  UNL     1      21.414   5.329  50.052  1.00  0.00    -0.349 OA
BRANCH  31  32
HETATM   32  C2  UNL     1      22.212   6.430  49.997  1.00  0.00     0.171 C 
HETATM   33  C1  UNL     1      21.493   7.586  50.676  1.00  0.00     0.034 C 
ENDBRANCH  31  32
ENDBRANCH   1  31
TORSDOF 2
ENDMDL
MODEL 7
REMARK VINA RESULT:      -8.2      2.322      6.002
REMARK  2 active torsions:
REMARK  status: ('A' for Active; 'I' for Inactive)
REMARK    1  A    between atoms: C2_2  and  O1_3 
REMARK    2  A    between atoms: O1_3  and  C3_4 
ROOT
HETATM    1  C3  UNL     1      25.673   1.009  52.025  1.00  0.00     0.094 A 
HETATM    2  C4  UNL     1      26.590   1.861  51.384  1.00  0.00     0.053 A 
HETATM    3  C5  UNL     1      26.076   2.977  50.578  1.00  0.00     0.134 A 
HETATM    4  N1  UNL     1      27.194   3.626  50.092  1.00  0.00    -0.277 NA
HETATM    5  C6  UNL     1      27.162   4.734  49.293  1.00  0.00     0.133 A 
HETATM    6  C7  UNL     1      25.779   5.129  49.034  1.00  0.00     0.075 A 
HETATM    7  C8  UNL     1      25.622   6.261  48.242  1.00  0.00     0.099 C 
HETATM    8  N2  UNL     1      25.514   7.181  47.611  1.00  0.00    -0.192 NA
HETATM    9  C9  UNL     1      25.317   4.246  49.677  1.00  0.00     0.131 A 
HETATM   10  C10 UNL     1      24.641   3.316  50.359  1.00  0.00    -0.004 A 
HETATM   11  C11 UNL     1      24.130   2.349  51.073  1.00  0.00     0.041 A 
HETATM   12  C12 UNL     1      24.343   1.284  51.847  1.00  0.00     0.068 A 
HETATM   13  N3  UNL     1      23.203   0.694  52.380  1.00  0.00    -0.321 N 
HETATM   14  C13 UNL     1      21.924   0.649  51.810  1.00  0.00     0.245 C 
HETATM   15  O2  UNL     1      22.120   1.182  50.765  1.00  0.00    -0.268 OA
HETATM   16  C14 UNL     1      20.564   0.229  51.971  1.00  0.00     0.072 C 
HETATM   17  C15 UNL     1      19.475   0.317  51.280  1.00  0.00    -0.002 C 
HETATM   18  C16 UNL     1      18.723   0.747  50.090  1.00  0.00     0.144 C 
HETATM   19  N4  UNL     1      17.627   1.632  50.431  1.00  0.00    -0.413 N 
HETATM   20  C17 UNL     1      16.565   1.025  51.166  1.00  0.00     0.143 C 
HETATM   21  C18 UNL     1      18.017   2.940  50.832  1.00  0.00     0.120 C 
HETATM   22  C19 UNL     1      18.539   3.779  49.712  1.00  0.00     0.000 C 
HETATM   23  C20 UNL     1      17.541   4.154  48.690  1.00  0.00     0.011 C 
HETATM   24  C21 UNL     1      19.266   4.959  50.360  1.00  0.00    -0.014 C 
HETATM   25  C22 UNL     1      20.338   5.757  50.696  1.00  0.00     0.045 C 
HETATM   26  C23 UNL     1      21.661   5.303  50.143  1.00  0.00    -0.004 C 
HETATM   27  C24 UNL     1      22.998   5.483  50.009  1.00  0.00     0.080 C 
HETATM   28  N5  UNL     1      23.948   4.668  49.286  1.00  0.00    -0.379 N 
HETATM   29  H9  UNL     1      23.335   0.245  53.279  1.00  0.00     0.169 HD
HETATM   30  H27 UNL     1      23.402   4.532  48.416  1.00  0.00     0.160 HD
ENDROOT
BRANCH   1  31
HETATM   31  O1  UNL     1      25.843  -0.067  52.811  1.00  0.00    -0.349 OA
BRANCH  31  32
HETATM   32  C2  UNL     1      26.539  -1.234  52.725  1.00  0.00     0.171 C 
HETATM   33  C1  UNL     1      27.980  -0.971  53.131  1.00  0.00     0.034 C 
ENDBRANCH  31  32
ENDBRANCH   1  31
TORSDOF 2
ENDMDL
MODEL 8
REMARK VINA RESULT:      -8.2      3.079      6.563
REMARK  2 active torsions:
REMARK  status: ('A' for Active; 'I' for Inactive)
REMARK    1  A    between atoms: C2_2  and  O1_3 
REMARK    2  A    between atoms: O1_3  and  C3_4 
ROOT
HETATM    1  C3  UNL     1      24.149   0.838  52.824  1.00  0.00     0.094 A 
HETATM    2  C4  UNL     1      24.911   1.668  51.982  1.00  0.00     0.053 A 
HETATM    3  C5  UNL     1      24.215   2.528  51.015  1.00  0.00     0.134 A 
HETATM    4  N1  UNL     1      25.210   3.217  50.351  1.00  0.00    -0.277 NA
HETATM    5  C6  UNL     1      24.991   4.136  49.363  1.00  0.00     0.133 A 
HETATM    6  C7  UNL     1      23.557   4.280  49.118  1.00  0.00     0.075 A 
HETATM    7  C8  UNL     1      23.212   5.206  48.140  1.00  0.00     0.099 C 
HETATM    8  N2  UNL     1      22.951   5.964  47.357  1.00  0.00    -0.192 NA
HETATM    9  C9  UNL     1      23.250   3.483  49.941  1.00  0.00     0.131 A 
HETATM   10  C10 UNL     1      22.739   2.619  50.823  1.00  0.00    -0.004 A 
HETATM   11  C11 UNL     1      22.398   1.747  51.734  1.00  0.00     0.041 A 
HETATM   12  C12 UNL     1      22.788   0.890  52.678  1.00  0.00     0.068 A 
HETATM   13  N3  UNL     1      21.764   0.264  53.379  1.00  0.00    -0.321 N 
HETATM   14  C13 UNL     1      20.488  -0.064  52.904  1.00  0.00     0.245 C 
HETATM   15  O2  UNL     1      20.570   0.280  51.769  1.00  0.00    -0.268 OA
HETATM   16  C14 UNL     1      19.208  -0.626  53.222  1.00  0.00     0.072 C 
HETATM   17  C15 UNL     1      18.097  -0.823  52.593  1.00  0.00    -0.002 C 
HETATM   18  C16 UNL     1      17.252  -0.737  51.391  1.00  0.00     0.144 C 
HETATM   19  N4  UNL     1      16.051   0.039  51.626  1.00  0.00    -0.413 N 
HETATM   20  C17 UNL     1      15.113  -0.554  52.524  1.00  0.00     0.143 C 
HETATM   21  C18 UNL     1      16.259   1.441  51.753  1.00  0.00     0.120 C 
HETATM   22  C19 UNL     1      16.617   2.112  50.467  1.00  0.00     0.000 C 
HETATM   23  C20 UNL     1      15.542   2.143  49.455  1.00  0.00     0.011 C 
HETATM   24  C21 UNL     1      17.185   3.482  50.840  1.00  0.00    -0.014 C 
HETATM   25  C22 UNL     1      18.140   4.469  50.957  1.00  0.00     0.045 C 
HETATM   26  C23 UNL     1      19.497   4.102  50.420  1.00  0.00    -0.004 C 
HETATM   27  C24 UNL     1      20.788   4.433  50.175  1.00  0.00     0.080 C 
HETATM   28  N5  UNL     1      21.823   3.632  49.561  1.00  0.00    -0.379 N 
HETATM   29  H9  UNL     1      21.990   0.019  54.336  1.00  0.00     0.169 HD
HETATM   30  H27 UNL     1      21.273   3.257  48.766  1.00  0.00     0.160 HD
ENDROOT
BRANCH   1  31
HETATM   31  O1  UNL     1      24.499  -0.032  53.785  1.00  0.00    -0.349 OA
BRANCH  31  32
HETATM   32  C2  UNL     1      25.633  -0.708  54.119  1.00  0.00     0.171 C 
HETATM   33  C1  UNL     1      26.495   0.189  54.993  1.00  0.00     0.034 C 
ENDBRANCH  31  32
ENDBRANCH   1  31
TORSDOF 2
ENDMDL
MODEL 9
REMARK VINA RESULT:      -8.1      2.123      6.981
REMARK  2 active torsions:
REMARK  status: ('A' for Active; 'I' for Inactive)
REMARK    1  A    between atoms: C2_2  and  O1_3 
REMARK    2  A    between atoms: O1_3  and  C3_4 
ROOT
HETATM    1  C3  UNL     1      25.410   6.278  48.532  1.00  0.00     0.094 A 
HETATM    2  C4  UNL     1      24.334   6.595  47.683  1.00  0.00     0.053 A 
HETATM    3  C5  UNL     1      23.085   5.830  47.806  1.00  0.00     0.134 A 
HETATM    4  N1  UNL     1      22.230   6.368  46.864  1.00  0.00    -0.277 NA
HETATM    5  C6  UNL     1      20.948   5.945  46.649  1.00  0.00     0.133 A 
HETATM    6  C7  UNL     1      20.620   4.848  47.558  1.00  0.00     0.075 A 
HETATM    7  C8  UNL     1      19.329   4.346  47.441  1.00  0.00     0.099 C 
HETATM    8  N2  UNL     1      18.282   3.960  47.340  1.00  0.00    -0.192 NA
HETATM    9  C9  UNL     1      21.686   4.847  48.078  1.00  0.00     0.131 A 
HETATM   10  C10 UNL     1      22.826   4.717  48.763  1.00  0.00    -0.004 A 
HETATM   11  C11 UNL     1      23.996   4.719  49.343  1.00  0.00     0.041 A 
HETATM   12  C12 UNL     1      25.214   5.258  49.426  1.00  0.00     0.068 A 
HETATM   13  N3  UNL     1      26.028   4.745  50.428  1.00  0.00    -0.321 N 
HETATM   14  C13 UNL     1      26.023   3.443  50.944  1.00  0.00     0.245 C 
HETATM   15  O2  UNL     1      25.201   2.928  50.257  1.00  0.00    -0.268 OA
HETATM   16  C14 UNL     1      26.589   2.541  51.903  1.00  0.00     0.072 C 
HETATM   17  C15 UNL     1      26.407   1.306  52.239  1.00  0.00    -0.002 C 
HETATM   18  C16 UNL     1      25.726   0.009  52.098  1.00  0.00     0.144 C 
HETATM   19  N4  UNL     1      25.073  -0.398  53.326  1.00  0.00    -0.413 N 
HETATM   20  C17 UNL     1      25.954  -0.718  54.402  1.00  0.00     0.143 C 
HETATM   21  C18 UNL     1      23.903   0.340  53.654  1.00  0.00     0.120 C 
HETATM   22  C19 UNL     1      22.739   0.044  52.766  1.00  0.00     0.000 C 
HETATM   23  C20 UNL     1      22.180  -1.316  52.895  1.00  0.00     0.011 C 
HETATM   24  C21 UNL     1      21.730   1.174  52.986  1.00  0.00    -0.014 C 
HETATM   25  C22 UNL     1      20.969   2.274  52.658  1.00  0.00     0.045 C 
HETATM   26  C23 UNL     1      21.129   2.754  51.241  1.00  0.00    -0.004 C 
HETATM   27  C24 UNL     1      20.802   3.625  50.256  1.00  0.00     0.080 C 
HETATM   28  N5  UNL     1      21.292   3.673  48.897  1.00  0.00    -0.379 N 
HETATM   29  H9  UNL     1      26.699   5.402  50.810  1.00  0.00     0.169 HD
HETATM   30  H27 UNL     1      21.226   2.663  48.674  1.00  0.00     0.160 HD
ENDROOT
BRANCH   1  31
HETATM   31  O1  UNL     1      26.644   6.793  48.651  1.00  0.00    -0.349 OA
BRANCH  31  32
HETATM   32  C2  UNL     1      27.732   6.909  47.840  1.00  0.00     0.171 C 
HETATM   33  C1  UNL     1      28.717   5.805  48.189  1.00  0.00     0.034 C 
ENDBRANCH  31  32
ENDBRANCH   1  31
TORSDOF 2
ENDMDL
