MODEL 1
REMARK VINA RESULT:      -7.1      0.000      0.000
REMARK  9 active torsions:
REMARK  status: ('A' for Active; 'I' for Inactive)
REMARK    1  A    between atoms: C2_2  and  N1_3 
REMARK    2  A    between atoms: N1_3  and  C3_4 
REMARK    3  A    between atoms: C3_4  and  C4_5 
REMARK    4  A    between atoms: C3_4  and  C8_10 
REMARK    5  A    between atoms: C5_6  and  C6_7 
REMARK    6  A    between atoms: C6_7  and  C7_8 
REMARK    7  A    between atoms: C13_15  and  N2_16 
REMARK    8  A    between atoms: N2_16  and  C14_17 
REMARK    9  A    between atoms: C14_17  and  C15_18 
ROOT
HETATM    1  C8  UNL     1      24.423   2.760  51.602  1.00  0.00    -0.006 A 
HETATM    2  C9  UNL     1      24.128   3.247  50.345  1.00  0.00     0.012 A 
HETATM    3  C10 UNL     1      25.022   3.528  49.348  1.00  0.00     0.001 A 
HETATM    4  C11 UNL     1      26.363   3.311  49.600  1.00  0.00     0.002 A 
HETATM    5  C12 UNL     1      26.719   2.822  50.852  1.00  0.00     0.030 A 
HETATM    6  C13 UNL     1      25.784   2.553  51.828  1.00  0.00     0.036 A 
ENDROOT
BRANCH   1   7
HETATM    7  C3  UNL     1      23.343   2.483  52.544  1.00  0.00     0.139 C 
BRANCH   7   8
HETATM    8  N1  UNL     1      22.283   3.466  52.338  1.00  0.00    -0.388 N 
HETATM    9  H4  UNL     1      22.476   4.476  52.170  1.00  0.00     0.159 HD
BRANCH   8  10
HETATM   10  C2  UNL     1      20.889   3.089  52.355  1.00  0.00     0.073 C 
HETATM   11  C1  UNL     1      20.056   3.789  51.587  1.00  0.00     0.029 C 
ENDBRANCH   8  10
ENDBRANCH   7   8
BRANCH   7  12
HETATM   12  C4  UNL     1      22.701   1.142  52.393  1.00  0.00    -0.001 C 
HETATM   13  C5  UNL     1      23.033   0.218  53.290  1.00  0.00    -0.026 C 
BRANCH  13  14
HETATM   14  C6  UNL     1      22.504  -1.149  53.298  1.00  0.00     0.058 C 
BRANCH  14  15
HETATM   15  C7  UNL     1      21.331  -1.219  54.276  1.00  0.00     0.225 C 
HETATM   16  F1  UNL     1      21.454  -0.236  55.234  1.00  0.00    -0.255 F 
ENDBRANCH  14  15
ENDBRANCH  13  14
ENDBRANCH   7  12
ENDBRANCH   1   7
BRANCH   6  17
HETATM   17  N2  UNL     1      26.231   2.086  53.084  1.00  0.00    -0.385 N 
HETATM   18  H16 UNL     1      25.598   2.249  53.898  1.00  0.00     0.160 HD
BRANCH  17  19
HETATM   19  C14 UNL     1      27.411   1.417  53.597  1.00  0.00     0.158 C 
BRANCH  19  20
HETATM   20  C15 UNL     1      27.505  -0.009  53.258  1.00  0.00    -0.038 A 
HETATM   21  C16 UNL     1      28.772  -0.550  53.516  1.00  0.00     0.028 A 
HETATM   22  C17 UNL     1      29.108  -1.859  53.297  1.00  0.00     0.116 A 
HETATM   23  N3  UNL     1      28.198  -2.717  52.806  1.00  0.00    -0.273 NA
HETATM   24  C18 UNL     1      26.981  -2.240  52.547  1.00  0.00     0.116 A 
HETATM   25  C19 UNL     1      26.613  -0.933  52.757  1.00  0.00     0.028 A 
ENDBRANCH  19  20
ENDBRANCH  17  19
ENDBRANCH   6  17
TORSDOF 9
ENDMDL
MODEL 2
REMARK VINA RESULT:      -6.9      2.972      5.926
REMARK  9 active torsions:
REMARK  status: ('A' for Active; 'I' for Inactive)
REMARK    1  A    between atoms: C2_2  and  N1_3 
REMARK    2  A    between atoms: N1_3  and  C3_4 
REMARK    3  A    between atoms: C3_4  and  C4_5 
REMARK    4  A    between atoms: C3_4  and  C8_10 
REMARK    5  A    between atoms: C5_6  and  C6_7 
REMARK    6  A    between atoms: C6_7  and  C7_8 
REMARK    7  A    between atoms: C13_15  and  N2_16 
REMARK    8  A    between atoms: N2_16  and  C14_17 
REMARK    9  A    between atoms: C14_17  and  C15_18 
ROOT
HETATM    1  C8  UNL     1      26.907   1.585  52.893  1.00  0.00    -0.006 A 
HETATM    2  C9  UNL     1      28.074   2.281  53.133  1.00  0.00     0.012 A 
HETATM    3  C10 UNL     1      29.066   1.934  54.010  1.00  0.00     0.001 A 
HETATM    4  C11 UNL     1      28.906   0.774  54.743  1.00  0.00     0.002 A 
HETATM    5  C12 UNL     1      27.746   0.032  54.543  1.00  0.00     0.030 A 
HETATM    6  C13 UNL     1      26.773   0.420  53.649  1.00  0.00     0.036 A 
ENDROOT
BRANCH   1   7
HETATM    7  C3  UNL     1      25.961   2.078  51.896  1.00  0.00     0.139 C 
BRANCH   7   8
HETATM    8  N1  UNL     1      25.333   3.291  52.411  1.00  0.00    -0.388 N 
HETATM    9  H4  UNL     1      25.789   4.227  52.358  1.00  0.00     0.159 HD
BRANCH   8  10
HETATM   10  C2  UNL     1      24.030   3.264  53.032  1.00  0.00     0.073 C 
HETATM   11  C1  UNL     1      22.994   3.675  52.301  1.00  0.00     0.029 C 
ENDBRANCH   8  10
ENDBRANCH   7   8
BRANCH   7  12
HETATM   12  C4  UNL     1      26.565   2.450  50.581  1.00  0.00    -0.001 C 
HETATM   13  C5  UNL     1      26.451   3.722  50.212  1.00  0.00    -0.026 C 
BRANCH  13  14
HETATM   14  C6  UNL     1      26.981   4.266  48.959  1.00  0.00     0.058 C 
BRANCH  14  15
HETATM   15  C7  UNL     1      26.592   5.741  48.857  1.00  0.00     0.225 C 
HETATM   16  F1  UNL     1      27.722   6.528  48.820  1.00  0.00    -0.255 F 
ENDBRANCH  14  15
ENDBRANCH  13  14
ENDBRANCH   7  12
ENDBRANCH   1   7
BRANCH   6  17
HETATM   17  N2  UNL     1      25.610  -0.373  53.526  1.00  0.00    -0.385 N 
HETATM   18  H16 UNL     1      25.409  -0.771  52.582  1.00  0.00     0.160 HD
BRANCH  17  19
HETATM   19  C14 UNL     1      24.535  -0.803  54.399  1.00  0.00     0.158 C 
BRANCH  19  20
HETATM   20  C15 UNL     1      23.186  -0.623  53.846  1.00  0.00    -0.038 A 
HETATM   21  C16 UNL     1      22.184  -1.167  54.660  1.00  0.00     0.028 A 
HETATM   22  C17 UNL     1      20.847  -1.116  54.372  1.00  0.00     0.116 A 
HETATM   23  N3  UNL     1      20.420  -0.517  53.247  1.00  0.00    -0.273 NA
HETATM   24  C18 UNL     1      21.344   0.013  52.445  1.00  0.00     0.116 A 
HETATM   25  C19 UNL     1      22.692  -0.021  52.708  1.00  0.00     0.028 A 
ENDBRANCH  19  20
ENDBRANCH  17  19
ENDBRANCH   6  17
TORSDOF 9
ENDMDL
MODEL 3
REMARK VINA RESULT:      -6.7      2.578      4.896
REMARK  9 active torsions:
REMARK  status: ('A' for Active; 'I' for Inactive)
REMARK    1  A    between atoms: C2_2  and  N1_3 
REMARK    2  A    between atoms: N1_3  and  C3_4 
REMARK    3  A    between atoms: C3_4  and  C4_5 
REMARK    4  A    between atoms: C3_4  and  C8_10 
REMARK    5  A    between atoms: C5_6  and  C6_7 
REMARK    6  A    between atoms: C6_7  and  C7_8 
REMARK    7  A    between atoms: C13_15  and  N2_16 
REMARK    8  A    between atoms: N2_16  and  C14_17 
REMARK    9  A    between atoms: C14_17  and  C15_18 
ROOT
HETATM    1  C8  UNL     1      22.713   0.499  52.567  1.00  0.00    -0.006 A 
HETATM    2  C9  UNL     1      21.441   0.572  53.096  1.00  0.00     0.012 A 
HETATM    3  C10 UNL     1      21.008  -0.000  54.262  1.00  0.00     0.001 A 
HETATM    4  C11 UNL     1      21.916  -0.731  55.002  1.00  0.00     0.002 A 
HETATM    5  C12 UNL     1      23.215  -0.840  54.515  1.00  0.00     0.030 A 
HETATM    6  C13 UNL     1      23.608  -0.247  53.335  1.00  0.00     0.036 A 
ENDROOT
BRANCH   1   7
HETATM    7  C3  UNL     1      23.022   1.196  51.322  1.00  0.00     0.139 C 
BRANCH   7   8
HETATM    8  N1  UNL     1      21.768   1.506  50.640  1.00  0.00    -0.388 N 
HETATM    9  H4  UNL     1      21.034   2.115  51.059  1.00  0.00     0.159 HD
BRANCH   8  10
HETATM   10  C2  UNL     1      21.470   0.979  49.329  1.00  0.00     0.073 C 
HETATM   11  C1  UNL     1      21.638   1.794  48.288  1.00  0.00     0.029 C 
ENDBRANCH   8  10
ENDBRANCH   7   8
BRANCH   7  12
HETATM   12  C4  UNL     1      23.737   2.498  51.487  1.00  0.00    -0.001 C 
HETATM   13  C5  UNL     1      24.585   2.839  50.521  1.00  0.00    -0.026 C 
BRANCH  13  14
HETATM   14  C6  UNL     1      25.371   4.075  50.514  1.00  0.00     0.058 C 
BRANCH  14  15
HETATM   15  C7  UNL     1      24.723   5.067  49.549  1.00  0.00     0.225 C 
HETATM   16  F1  UNL     1      23.974   4.394  48.608  1.00  0.00    -0.255 F 
ENDBRANCH  14  15
ENDBRANCH  13  14
ENDBRANCH   7  12
ENDBRANCH   1   7
BRANCH   6  17
HETATM   17  N2  UNL     1      24.938  -0.430  52.895  1.00  0.00    -0.385 N 
HETATM   18  H16 UNL     1      25.154  -0.138  51.916  1.00  0.00     0.160 HD
BRANCH  17  19
HETATM   19  C14 UNL     1      26.165  -0.964  53.453  1.00  0.00     0.158 C 
BRANCH  19  20
HETATM   20  C15 UNL     1      27.187   0.043  53.767  1.00  0.00    -0.038 A 
HETATM   21  C16 UNL     1      26.896   1.303  53.230  1.00  0.00     0.028 A 
HETATM   22  C17 UNL     1      27.685   2.410  53.394  1.00  0.00     0.116 A 
HETATM   23  N3  UNL     1      28.821   2.330  54.108  1.00  0.00    -0.273 NA
HETATM   24  C18 UNL     1      29.132   1.147  54.635  1.00  0.00     0.116 A 
HETATM   25  C19 UNL     1      28.361   0.019  54.489  1.00  0.00     0.028 A 
ENDBRANCH  19  20
ENDBRANCH  17  19
ENDBRANCH   6  17
TORSDOF 9
ENDMDL
MODEL 4
REMARK VINA RESULT:      -6.6      2.440      6.583
REMARK  9 active torsions:
REMARK  status: ('A' for Active; 'I' for Inactive)
REMARK    1  A    between atoms: C2_2  and  N1_3 
REMARK    2  A    between atoms: N1_3  and  C3_4 
REMARK    3  A    between atoms: C3_4  and  C4_5 
REMARK    4  A    between atoms: C3_4  and  C8_10 
REMARK    5  A    between atoms: C5_6  and  C6_7 
REMARK    6  A    between atoms: C6_7  and  C7_8 
REMARK    7  A    between atoms: C13_15  and  N2_16 
REMARK    8  A    between atoms: N2_16  and  C14_17 
REMARK    9  A    between atoms: C14_17  and  C15_18 
ROOT
HETATM    1  C8  UNL     1      24.185  -0.237  53.369  1.00  0.00    -0.006 A 
HETATM    2  C9  UNL     1      24.150  -0.927  54.564  1.00  0.00     0.012 A 
HETATM    3  C10 UNL     1      23.038  -1.208  55.311  1.00  0.00     0.001 A 
HETATM    4  C11 UNL     1      21.815  -0.767  54.845  1.00  0.00     0.002 A 
HETATM    5  C12 UNL     1      21.790  -0.064  53.645  1.00  0.00     0.030 A 
HETATM    6  C13 UNL     1      22.935   0.198  52.925  1.00  0.00     0.036 A 
ENDROOT
BRANCH   1   7
HETATM    7  C3  UNL     1      25.457  -0.047  52.678  1.00  0.00     0.139 C 
BRANCH   7   8
HETATM    8  N1  UNL     1      26.087   1.167  53.191  1.00  0.00    -0.388 N 
HETATM    9  H4  UNL     1      26.488   1.231  54.151  1.00  0.00     0.159 HD
BRANCH   8  10
HETATM   10  C2  UNL     1      26.193   2.362  52.388  1.00  0.00     0.073 C 
HETATM   11  C1  UNL     1      26.534   2.212  51.109  1.00  0.00     0.029 C 
ENDBRANCH   8  10
ENDBRANCH   7   8
BRANCH   7  12
HETATM   12  C4  UNL     1      26.452  -1.145  52.873  1.00  0.00    -0.001 C 
HETATM   13  C5  UNL     1      27.716  -0.777  53.057  1.00  0.00    -0.026 C 
BRANCH  13  14
HETATM   14  C6  UNL     1      28.824  -1.714  53.264  1.00  0.00     0.058 C 
BRANCH  14  15
HETATM   15  C7  UNL     1      30.066  -0.926  53.682  1.00  0.00     0.225 C 
HETATM   16  F1  UNL     1      29.830   0.427  53.565  1.00  0.00    -0.255 F 
ENDBRANCH  14  15
ENDBRANCH  13  14
ENDBRANCH   7  12
ENDBRANCH   1   7
BRANCH   6  17
HETATM   17  N2  UNL     1      22.829   0.945  51.731  1.00  0.00    -0.385 N 
HETATM   18  H16 UNL     1      23.465   0.675  50.949  1.00  0.00     0.160 HD
BRANCH  17  19
HETATM   19  C14 UNL     1      22.044   2.071  51.263  1.00  0.00     0.158 C 
BRANCH  19  20
HETATM   20  C15 UNL     1      22.811   3.303  51.038  1.00  0.00    -0.038 A 
HETATM   21  C16 UNL     1      23.320   3.400  49.736  1.00  0.00     0.028 A 
HETATM   22  C17 UNL     1      24.056   4.459  49.275  1.00  0.00     0.116 A 
HETATM   23  N3  UNL     1      24.333   5.494  50.087  1.00  0.00    -0.273 NA
HETATM   24  C18 UNL     1      23.866   5.438  51.333  1.00  0.00     0.116 A 
HETATM   25  C19 UNL     1      23.124   4.391  51.825  1.00  0.00     0.028 A 
ENDBRANCH  19  20
ENDBRANCH  17  19
ENDBRANCH   6  17
TORSDOF 9
ENDMDL
MODEL 5
REMARK VINA RESULT:      -6.5      2.439      4.359
REMARK  9 active torsions:
REMARK  status: ('A' for Active; 'I' for Inactive)
REMARK    1  A    between atoms: C2_2  and  N1_3 
REMARK    2  A    between atoms: N1_3  and  C3_4 
REMARK    3  A    between atoms: C3_4  and  C4_5 
REMARK    4  A    between atoms: C3_4  and  C8_10 
REMARK    5  A    between atoms: C5_6  and  C6_7 
REMARK    6  A    between atoms: C6_7  and  C7_8 
REMARK    7  A    between atoms: C13_15  and  N2_16 
REMARK    8  A    between atoms: N2_16  and  C14_17 
REMARK    9  A    between atoms: C14_17  and  C15_18 
ROOT
HETATM    1  C8  UNL     1      22.585   0.121  52.986  1.00  0.00    -0.006 A 
HETATM    2  C9  UNL     1      21.604  -0.648  53.578  1.00  0.00     0.012 A 
HETATM    3  C10 UNL     1      21.754  -1.465  54.666  1.00  0.00     0.001 A 
HETATM    4  C11 UNL     1      23.004  -1.547  55.247  1.00  0.00     0.002 A 
HETATM    5  C12 UNL     1      24.033  -0.794  54.690  1.00  0.00     0.030 A 
HETATM    6  C13 UNL     1      23.836   0.016  53.593  1.00  0.00     0.036 A 
ENDROOT
BRANCH   1   7
HETATM    7  C3  UNL     1      22.252   0.966  51.843  1.00  0.00     0.139 C 
BRANCH   7   8
HETATM    8  N1  UNL     1      21.195   0.314  51.074  1.00  0.00    -0.388 N 
HETATM    9  H4  UNL     1      21.293  -0.648  50.686  1.00  0.00     0.159 HD
BRANCH   8  10
HETATM   10  C2  UNL     1      19.940   0.973  50.804  1.00  0.00     0.073 C 
HETATM   11  C1  UNL     1      18.825   0.341  51.168  1.00  0.00     0.029 C 
ENDBRANCH   8  10
ENDBRANCH   7   8
BRANCH   7  12
HETATM   12  C4  UNL     1      21.732   2.324  52.192  1.00  0.00    -0.001 C 
HETATM   13  C5  UNL     1      22.580   3.339  52.056  1.00  0.00    -0.026 C 
BRANCH  13  14
HETATM   14  C6  UNL     1      22.247   4.735  52.351  1.00  0.00     0.058 C 
BRANCH  14  15
HETATM   15  C7  UNL     1      22.047   5.484  51.033  1.00  0.00     0.225 C 
HETATM   16  F1  UNL     1      20.704   5.561  50.731  1.00  0.00    -0.255 F 
ENDBRANCH  14  15
ENDBRANCH  13  14
ENDBRANCH   7  12
ENDBRANCH   1   7
BRANCH   6  17
HETATM   17  N2  UNL     1      24.940   0.725  53.069  1.00  0.00    -0.385 N 
HETATM   18  H16 UNL     1      25.081   1.699  53.416  1.00  0.00     0.160 HD
BRANCH  17  19
HETATM   19  C14 UNL     1      25.991   0.469  52.102  1.00  0.00     0.158 C 
BRANCH  19  20
HETATM   20  C15 UNL     1      26.940  -0.582  52.491  1.00  0.00    -0.038 A 
HETATM   21  C16 UNL     1      28.085  -0.078  53.122  1.00  0.00     0.028 A 
HETATM   22  C17 UNL     1      29.110  -0.856  53.590  1.00  0.00     0.116 A 
HETATM   23  N3  UNL     1      29.059  -2.192  53.458  1.00  0.00    -0.273 NA
HETATM   24  C18 UNL     1      27.985  -2.710  52.862  1.00  0.00     0.116 A 
HETATM   25  C19 UNL     1      26.941  -1.956  52.384  1.00  0.00     0.028 A 
ENDBRANCH  19  20
ENDBRANCH  17  19
ENDBRANCH   6  17
TORSDOF 9
ENDMDL
MODEL 6
REMARK VINA RESULT:      -6.4      2.830      5.556
REMARK  9 active torsions:
REMARK  status: ('A' for Active; 'I' for Inactive)
REMARK    1  A    between atoms: C2_2  and  N1_3 
REMARK    2  A    between atoms: N1_3  and  C3_4 
REMARK    3  A    between atoms: C3_4  and  C4_5 
REMARK    4  A    between atoms: C3_4  and  C8_10 
REMARK    5  A    between atoms: C5_6  and  C6_7 
REMARK    6  A    between atoms: C6_7  and  C7_8 
REMARK    7  A    between atoms: C13_15  and  N2_16 
REMARK    8  A    between atoms: N2_16  and  C14_17 
REMARK    9  A    between atoms: C14_17  and  C15_18 
ROOT
HETATM    1  C8  UNL     1      22.584   1.384  51.330  1.00  0.00    -0.006 A 
HETATM    2  C9  UNL     1      21.600   0.592  50.775  1.00  0.00     0.012 A 
HETATM    3  C10 UNL     1      21.164   0.621  49.478  1.00  0.00     0.001 A 
HETATM    4  C11 UNL     1      21.752   1.528  48.617  1.00  0.00     0.002 A 
HETATM    5  C12 UNL     1      22.750   2.355  49.124  1.00  0.00     0.030 A 
HETATM    6  C13 UNL     1      23.157   2.291  50.438  1.00  0.00     0.036 A 
ENDROOT
BRANCH   1   7
HETATM    7  C3  UNL     1      22.954   1.205  52.731  1.00  0.00     0.139 C 
BRANCH   7   8
HETATM    8  N1  UNL     1      21.764   0.808  53.479  1.00  0.00    -0.388 N 
HETATM    9  H4  UNL     1      20.853   1.307  53.395  1.00  0.00     0.159 HD
BRANCH   8  10
HETATM   10  C2  UNL     1      21.783  -0.312  54.390  1.00  0.00     0.073 C 
HETATM   11  C1  UNL     1      20.936  -1.312  54.149  1.00  0.00     0.029 C 
ENDBRANCH   8  10
ENDBRANCH   7   8
BRANCH   7  12
HETATM   12  C4  UNL     1      23.976   0.144  52.984  1.00  0.00    -0.001 C 
HETATM   13  C5  UNL     1      25.250   0.522  52.942  1.00  0.00    -0.026 C 
BRANCH  13  14
HETATM   14  C6  UNL     1      26.384  -0.379  53.163  1.00  0.00     0.058 C 
BRANCH  14  15
HETATM   15  C7  UNL     1      27.087   0.022  54.460  1.00  0.00     0.225 C 
HETATM   16  F1  UNL     1      28.419  -0.329  54.406  1.00  0.00    -0.255 F 
ENDBRANCH  14  15
ENDBRANCH  13  14
ENDBRANCH   7  12
ENDBRANCH   1   7
BRANCH   6  17
HETATM   17  N2  UNL     1      24.156   3.186  50.882  1.00  0.00    -0.385 N 
HETATM   18  H16 UNL     1      24.906   2.790  51.490  1.00  0.00     0.160 HD
BRANCH  17  19
HETATM   19  C14 UNL     1      24.438   4.601  50.737  1.00  0.00     0.158 C 
BRANCH  19  20
HETATM   20  C15 UNL     1      25.613   4.911  49.911  1.00  0.00    -0.038 A 
HETATM   21  C16 UNL     1      25.709   6.271  49.587  1.00  0.00     0.028 A 
HETATM   22  C17 UNL     1      26.720   6.813  48.840  1.00  0.00     0.116 A 
HETATM   23  N3  UNL     1      27.705   6.031  48.366  1.00  0.00    -0.273 NA
HETATM   24  C18 UNL     1      27.648   4.731  48.653  1.00  0.00     0.116 A 
HETATM   25  C19 UNL     1      26.648   4.158  49.401  1.00  0.00     0.028 A 
ENDBRANCH  19  20
ENDBRANCH  17  19
ENDBRANCH   6  17
TORSDOF 9
ENDMDL
MODEL 7
REMARK VINA RESULT:      -6.4      2.899      6.338
REMARK  9 active torsions:
REMARK  status: ('A' for Active; 'I' for Inactive)
REMARK    1  A    between atoms: C2_2  and  N1_3 
REMARK    2  A    between atoms: N1_3  and  C3_4 
REMARK    3  A    between atoms: C3_4  and  C4_5 
REMARK    4  A    between atoms: C3_4  and  C8_10 
REMARK    5  A    between atoms: C5_6  and  C6_7 
REMARK    6  A    between atoms: C6_7  and  C7_8 
REMARK    7  A    between atoms: C13_15  and  N2_16 
REMARK    8  A    between atoms: N2_16  and  C14_17 
REMARK    9  A    between atoms: C14_17  and  C15_18 
ROOT
HETATM    1  C8  UNL     1      24.730   1.506  51.965  1.00  0.00    -0.006 A 
HETATM    2  C9  UNL     1      25.996   1.085  51.612  1.00  0.00     0.012 A 
HETATM    3  C10 UNL     1      26.656  -0.013  52.094  1.00  0.00     0.001 A 
HETATM    4  C11 UNL     1      26.011  -0.797  53.030  1.00  0.00     0.002 A 
HETATM    5  C12 UNL     1      24.731  -0.420  53.426  1.00  0.00     0.030 A 
HETATM    6  C13 UNL     1      24.105   0.696  52.914  1.00  0.00     0.036 A 
ENDROOT
BRANCH   1   7
HETATM    7  C3  UNL     1      24.156   2.689  51.332  1.00  0.00     0.139 C 
BRANCH   7   8
HETATM    8  N1  UNL     1      25.202   3.698  51.196  1.00  0.00    -0.388 N 
HETATM    9  H4  UNL     1      25.765   4.039  52.005  1.00  0.00     0.159 HD
BRANCH   8  10
HETATM   10  C2  UNL     1      25.523   4.289  49.919  1.00  0.00     0.073 C 
HETATM   11  C1  UNL     1      26.742   4.068  49.430  1.00  0.00     0.029 C 
ENDBRANCH   8  10
ENDBRANCH   7   8
BRANCH   7  12
HETATM   12  C4  UNL     1      23.612   2.468  49.957  1.00  0.00    -0.001 C 
HETATM   13  C5  UNL     1      22.471   1.792  49.870  1.00  0.00    -0.026 C 
BRANCH  13  14
HETATM   14  C6  UNL     1      21.792   1.482  48.608  1.00  0.00     0.058 C 
BRANCH  14  15
HETATM   15  C7  UNL     1      21.693   2.759  47.774  1.00  0.00     0.225 C 
HETATM   16  F1  UNL     1      22.435   2.630  46.620  1.00  0.00    -0.255 F 
ENDBRANCH  14  15
ENDBRANCH  13  14
ENDBRANCH   7  12
ENDBRANCH   1   7
BRANCH   6  17
HETATM   17  N2  UNL     1      22.817   1.028  53.390  1.00  0.00    -0.385 N 
HETATM   18  H16 UNL     1      22.686   1.995  53.759  1.00  0.00     0.160 HD
BRANCH  17  19
HETATM   19  C14 UNL     1      21.545   0.348  53.538  1.00  0.00     0.158 C 
BRANCH  19  20
HETATM   20  C15 UNL     1      20.487   0.818  52.634  1.00  0.00    -0.038 A 
HETATM   21  C16 UNL     1      20.324   2.209  52.661  1.00  0.00     0.028 A 
HETATM   22  C17 UNL     1      19.413   2.892  51.900  1.00  0.00     0.116 A 
HETATM   23  N3  UNL     1      18.604   2.227  51.057  1.00  0.00    -0.273 NA
HETATM   24  C18 UNL     1      18.729   0.902  51.003  1.00  0.00     0.116 A 
HETATM   25  C19 UNL     1      19.633   0.189  51.754  1.00  0.00     0.028 A 
ENDBRANCH  19  20
ENDBRANCH  17  19
ENDBRANCH   6  17
TORSDOF 9
ENDMDL
MODEL 8
REMARK VINA RESULT:      -6.4      3.091      6.505
REMARK  9 active torsions:
REMARK  status: ('A' for Active; 'I' for Inactive)
REMARK    1  A    between atoms: C2_2  and  N1_3 
REMARK    2  A    between atoms: N1_3  and  C3_4 
REMARK    3  A    between atoms: C3_4  and  C4_5 
REMARK    4  A    between atoms: C3_4  and  C8_10 
REMARK    5  A    between atoms: C5_6  and  C6_7 
REMARK    6  A    between atoms: C6_7  and  C7_8 
REMARK    7  A    between atoms: C13_15  and  N2_16 
REMARK    8  A    between atoms: N2_16  and  C14_17 
REMARK    9  A    between atoms: C14_17  and  C15_18 
ROOT
HETATM    1  C8  UNL     1      25.139   1.465  51.862  1.00  0.00    -0.006 A 
HETATM    2  C9  UNL     1      26.474   1.117  51.845  1.00  0.00     0.012 A 
HETATM    3  C10 UNL     1      27.043   0.034  52.459  1.00  0.00     0.001 A 
HETATM    4  C11 UNL     1      26.219  -0.812  53.176  1.00  0.00     0.002 A 
HETATM    5  C12 UNL     1      24.862  -0.509  53.228  1.00  0.00     0.030 A 
HETATM    6  C13 UNL     1      24.332   0.594  52.595  1.00  0.00     0.036 A 
ENDROOT
BRANCH   1   7
HETATM    7  C3  UNL     1      24.687   2.642  51.126  1.00  0.00     0.139 C 
BRANCH   7   8
HETATM    8  N1  UNL     1      24.770   3.802  52.008  1.00  0.00    -0.388 N 
HETATM    9  H4  UNL     1      25.671   4.276  52.232  1.00  0.00     0.159 HD
BRANCH   8  10
HETATM   10  C2  UNL     1      23.595   4.366  52.630  1.00  0.00     0.073 C 
HETATM   11  C1  UNL     1      22.445   4.274  51.963  1.00  0.00     0.029 C 
ENDBRANCH   8  10
ENDBRANCH   7   8
BRANCH   7  12
HETATM   12  C4  UNL     1      25.498   2.981  49.917  1.00  0.00    -0.001 C 
HETATM   13  C5  UNL     1      26.257   4.070  49.996  1.00  0.00    -0.026 C 
BRANCH  13  14
HETATM   14  C6  UNL     1      27.116   4.554  48.912  1.00  0.00     0.058 C 
BRANCH  14  15
HETATM   15  C7  UNL     1      26.827   6.037  48.679  1.00  0.00     0.225 C 
HETATM   16  F1  UNL     1      25.514   6.210  48.300  1.00  0.00    -0.255 F 
ENDBRANCH  14  15
ENDBRANCH  13  14
ENDBRANCH   7  12
ENDBRANCH   1   7
BRANCH   6  17
HETATM   17  N2  UNL     1      22.948   0.848  52.721  1.00  0.00    -0.385 N 
HETATM   18  H16 UNL     1      22.520   1.487  52.015  1.00  0.00     0.160 HD
BRANCH  17  19
HETATM   19  C14 UNL     1      21.888   0.460  53.632  1.00  0.00     0.158 C 
BRANCH  19  20
HETATM   20  C15 UNL     1      20.602   0.163  52.987  1.00  0.00    -0.038 A 
HETATM   21  C16 UNL     1      20.504   0.691  51.693  1.00  0.00     0.028 A 
HETATM   22  C17 UNL     1      19.413   0.540  50.881  1.00  0.00     0.116 A 
HETATM   23  N3  UNL     1      18.343  -0.151  51.309  1.00  0.00    -0.273 NA
HETATM   24  C18 UNL     1      18.397  -0.669  52.536  1.00  0.00     0.116 A 
HETATM   25  C19 UNL     1      19.478  -0.536  53.373  1.00  0.00     0.028 A 
ENDBRANCH  19  20
ENDBRANCH  17  19
ENDBRANCH   6  17
TORSDOF 9
ENDMDL
MODEL 9
REMARK VINA RESULT:      -6.4      2.547      6.681
REMARK  9 active torsions:
REMARK  status: ('A' for Active; 'I' for Inactive)
REMARK    1  A    between atoms: C2_2  and  N1_3 
REMARK    2  A    between atoms: N1_3  and  C3_4 
REMARK    3  A    between atoms: C3_4  and  C4_5 
REMARK    4  A    between atoms: C3_4  and  C8_10 
REMARK    5  A    between atoms: C5_6  and  C6_7 
REMARK    6  A    between atoms: C6_7  and  C7_8 
REMARK    7  A    between atoms: C13_15  and  N2_16 
REMARK    8  A    between atoms: N2_16  and  C14_17 
REMARK    9  A    between atoms: C14_17  and  C15_18 
ROOT
HETATM    1  C8  UNL     1      23.462  -0.157  53.354  1.00  0.00    -0.006 A 
HETATM    2  C9  UNL     1      23.375  -0.879  54.526  1.00  0.00     0.012 A 
HETATM    3  C10 UNL     1      22.240  -1.418  55.070  1.00  0.00     0.001 A 
HETATM    4  C11 UNL     1      21.048  -1.233  54.397  1.00  0.00     0.002 A 
HETATM    5  C12 UNL     1      21.076  -0.509  53.209  1.00  0.00     0.030 A 
HETATM    6  C13 UNL     1      22.243   0.016  52.698  1.00  0.00     0.036 A 
ENDROOT
BRANCH   1   7
HETATM    7  C3  UNL     1      24.762   0.325  52.894  1.00  0.00     0.139 C 
BRANCH   7   8
HETATM    8  N1  UNL     1      24.912   1.718  53.304  1.00  0.00    -0.388 N 
HETATM    9  H4  UNL     1      24.973   2.008  54.303  1.00  0.00     0.159 HD
BRANCH   8  10
HETATM   10  C2  UNL     1      24.988   2.787  52.337  1.00  0.00     0.073 C 
HETATM   11  C1  UNL     1      25.312   2.461  51.087  1.00  0.00     0.029 C 
ENDBRANCH   8  10
ENDBRANCH   7   8
BRANCH   7  12
HETATM   12  C4  UNL     1      25.940  -0.403  53.457  1.00  0.00    -0.001 C 
HETATM   13  C5  UNL     1      27.070  -0.336  52.760  1.00  0.00    -0.026 C 
BRANCH  13  14
HETATM   14  C6  UNL     1      28.322  -0.985  53.157  1.00  0.00     0.058 C 
BRANCH  14  15
HETATM   15  C7  UNL     1      29.138  -0.008  54.003  1.00  0.00     0.225 C 
HETATM   16  F1  UNL     1      28.725  -0.060  55.317  1.00  0.00    -0.255 F 
ENDBRANCH  14  15
ENDBRANCH  13  14
ENDBRANCH   7  12
ENDBRANCH   1   7
BRANCH   6  17
HETATM   17  N2  UNL     1      22.182   0.764  51.501  1.00  0.00    -0.385 N 
HETATM   18  H16 UNL     1      22.773   1.623  51.453  1.00  0.00     0.160 HD
BRANCH  17  19
HETATM   19  C14 UNL     1      21.466   0.677  50.243  1.00  0.00     0.158 C 
BRANCH  19  20
HETATM   20  C15 UNL     1      21.763   1.754  49.291  1.00  0.00    -0.038 A 
HETATM   21  C16 UNL     1      21.851   3.013  49.899  1.00  0.00     0.028 A 
HETATM   22  C17 UNL     1      22.132   4.173  49.228  1.00  0.00     0.116 A 
HETATM   23  N3  UNL     1      22.345   4.152  47.901  1.00  0.00    -0.273 NA
HETATM   24  C18 UNL     1      22.270   2.973  47.286  1.00  0.00     0.116 A 
HETATM   25  C19 UNL     1      21.991   1.792  47.931  1.00  0.00     0.028 A 
ENDBRANCH  19  20
ENDBRANCH  17  19
ENDBRANCH   6  17
TORSDOF 9
ENDMDL
