MODEL 1
REMARK VINA RESULT:      -8.5      0.000      0.000
REMARK  3 active torsions:
REMARK  status: ('A' for Active; 'I' for Inactive)
REMARK    1  A    between atoms: C2_2  and  C3_3 
REMARK    2  A    between atoms: C4_4  and  O1_5 
REMARK    3  A    between atoms: C6_7  and  O2_8 
ROOT
HETATM    1  C3  UNL     1      26.152   5.743  48.835  1.00  0.00     0.067 C 
HETATM    2  C4  UNL     1      25.260   6.510  48.340  1.00  0.00     0.106 C 
HETATM    3  C6  UNL     1      23.813   6.137  48.238  1.00  0.00     0.115 C 
HETATM    4  C8  UNL     1      22.975   5.139  48.515  1.00  0.00     0.131 C 
HETATM    5  C9  UNL     1      21.930   4.109  48.770  1.00  0.00     0.068 A 
HETATM    6  N1  UNL     1      22.708   3.026  48.610  1.00  0.00    -0.242 NA
HETATM    7  C10 UNL     1      22.309   1.768  48.778  1.00  0.00     0.236 A 
HETATM    8  N2  UNL     1      21.029   1.897  49.121  1.00  0.00    -0.217 NA
HETATM    9  C11 UNL     1      20.457   3.058  49.219  1.00  0.00     0.185 A 
HETATM   10  C12 UNL     1      20.563   4.386  49.125  1.00  0.00     0.020 A 
HETATM   11  C13 UNL     1      20.683   5.830  49.019  1.00  0.00     0.055 C 
HETATM   12  O3  UNL     1      19.160   3.530  49.561  1.00  0.00    -0.275 OA
HETATM   13  S1  UNL     1      18.824   3.691  51.315  1.00  0.00    -0.089 SA
HETATM   14  C14 UNL     1      19.914   2.590  52.139  1.00  0.00     0.192 C 
HETATM   15  C15 UNL     1      20.808   1.692  52.408  1.00  0.00     0.051 C 
HETATM   16  C16 UNL     1      21.441   1.044  53.527  1.00  0.00    -0.021 C 
HETATM   17  C17 UNL     1      22.318   0.159  53.014  1.00  0.00    -0.030 C 
HETATM   18  C18 UNL     1      23.220  -0.767  53.672  1.00  0.00     0.027 C 
HETATM   19  C19 UNL     1      24.671  -0.740  53.490  1.00  0.00     0.004 C 
HETATM   20  C20 UNL     1      25.460   0.437  53.877  1.00  0.00     0.002 C 
HETATM   21  C21 UNL     1      25.459   1.642  52.983  1.00  0.00     0.020 C 
HETATM   22  C22 UNL     1      26.138   1.286  51.637  1.00  0.00     0.124 C 
HETATM   23  N3  UNL     1      26.394   2.455  50.896  1.00  0.00    -0.343 N 
HETATM   24  C23 UNL     1      26.487   3.588  50.190  1.00  0.00     0.320 C 
HETATM   25  O4  UNL     1      25.292   3.470  50.303  1.00  0.00    -0.247 OA
HETATM   26  N4  UNL     1      26.793   4.707  49.488  1.00  0.00    -0.307 N 
HETATM   27  H29 UNL     1      27.468   2.520  50.771  1.00  0.00     0.164 HD
HETATM   28  H30 UNL     1      27.757   4.415  49.674  1.00  0.00     0.170 HD
ENDROOT
BRANCH   1  29
HETATM   29  C2  UNL     1      27.259   6.699  48.597  1.00  0.00     0.022 C 
HETATM   30  C1  UNL     1      28.535   6.464  48.239  1.00  0.00     0.013 C 
ENDBRANCH   1  29
BRANCH   2  31
HETATM   31  O1  UNL     1      25.507   7.756  47.836  1.00  0.00    -0.355 OA
HETATM   32  C5  UNL     1      25.233   8.945  48.567  1.00  0.00     0.209 C 
ENDBRANCH   2  31
BRANCH   3  33
HETATM   33  O2  UNL     1      23.043   7.175  47.643  1.00  0.00    -0.379 OA
HETATM   34  C7  UNL     1      22.720   6.874  46.274  1.00  0.00     0.202 C 
ENDBRANCH   3  33
TORSDOF 3
ENDMDL
MODEL 2
REMARK VINA RESULT:      -8.3      2.985      6.939
REMARK  3 active torsions:
REMARK  status: ('A' for Active; 'I' for Inactive)
REMARK    1  A    between atoms: C2_2  and  C3_3 
REMARK    2  A    between atoms: C4_4  and  O1_5 
REMARK    3  A    between atoms: C6_7  and  O2_8 
ROOT
HETATM    1  C3  UNL     1      19.129   0.046  52.529  1.00  0.00     0.067 C 
HETATM    2  C4  UNL     1      18.380   0.772  51.793  1.00  0.00     0.106 C 
HETATM    3  C6  UNL     1      18.803   2.097  51.237  1.00  0.00     0.115 C 
HETATM    4  C8  UNL     1      19.838   2.936  51.224  1.00  0.00     0.131 C 
HETATM    5  C9  UNL     1      20.913   3.962  51.123  1.00  0.00     0.068 A 
HETATM    6  N1  UNL     1      21.461   3.763  52.333  1.00  0.00    -0.242 NA
HETATM    7  C10 UNL     1      22.540   4.389  52.793  1.00  0.00     0.236 A 
HETATM    8  N2  UNL     1      22.879   5.194  51.789  1.00  0.00    -0.217 NA
HETATM    9  C11 UNL     1      22.200   5.237  50.682  1.00  0.00     0.185 A 
HETATM   10  C12 UNL     1      21.167   4.785  49.969  1.00  0.00     0.020 A 
HETATM   11  C13 UNL     1      20.039   4.291  49.197  1.00  0.00     0.055 C 
HETATM   12  O3  UNL     1      22.295   5.949  49.456  1.00  0.00    -0.275 OA
HETATM   13  S1  UNL     1      23.421   5.265  48.240  1.00  0.00    -0.089 SA
HETATM   14  C14 UNL     1      24.602   4.316  49.126  1.00  0.00     0.192 C 
HETATM   15  C15 UNL     1      25.290   3.745  50.063  1.00  0.00     0.051 C 
HETATM   16  C16 UNL     1      26.417   2.867  50.247  1.00  0.00    -0.021 C 
HETATM   17  C17 UNL     1      26.568   2.708  51.576  1.00  0.00    -0.030 C 
HETATM   18  C18 UNL     1      27.540   1.940  52.331  1.00  0.00     0.027 C 
HETATM   19  C19 UNL     1      27.171   0.866  53.254  1.00  0.00     0.004 C 
HETATM   20  C20 UNL     1      26.467  -0.332  52.779  1.00  0.00     0.002 C 
HETATM   21  C21 UNL     1      24.995  -0.248  52.498  1.00  0.00     0.020 C 
HETATM   22  C22 UNL     1      24.232   0.013  53.821  1.00  0.00     0.124 C 
HETATM   23  N3  UNL     1      22.850  -0.177  53.632  1.00  0.00    -0.343 N 
HETATM   24  C23 UNL     1      21.543  -0.243  53.352  1.00  0.00     0.320 C 
HETATM   25  O4  UNL     1      21.890   0.690  52.671  1.00  0.00    -0.247 OA
HETATM   26  N4  UNL     1      20.216  -0.477  53.203  1.00  0.00    -0.307 N 
HETATM   27  H29 UNL     1      22.552  -0.991  54.282  1.00  0.00     0.164 HD
HETATM   28  H30 UNL     1      20.402  -1.251  53.848  1.00  0.00     0.170 HD
ENDROOT
BRANCH   1  29
HETATM   29  C2  UNL     1      18.109  -1.015  52.703  1.00  0.00     0.022 C 
HETATM   30  C1  UNL     1      18.138  -2.114  53.481  1.00  0.00     0.013 C 
ENDBRANCH   1  29
BRANCH   2  31
HETATM   31  O1  UNL     1      17.105   0.444  51.427  1.00  0.00    -0.355 OA
HETATM   32  C5  UNL     1      16.797  -0.139  50.166  1.00  0.00     0.209 C 
ENDBRANCH   2  31
BRANCH   3  33
HETATM   33  O2  UNL     1      17.774   2.693  50.456  1.00  0.00    -0.379 OA
HETATM   34  C7  UNL     1      17.120   3.757  51.168  1.00  0.00     0.202 C 
ENDBRANCH   3  33
TORSDOF 3
ENDMDL
MODEL 3
REMARK VINA RESULT:      -7.5      8.411     11.503
REMARK  3 active torsions:
REMARK  status: ('A' for Active; 'I' for Inactive)
REMARK    1  A    between atoms: C2_2  and  C3_3 
REMARK    2  A    between atoms: C4_4  and  O1_5 
REMARK    3  A    between atoms: C6_7  and  O2_8 
ROOT
HETATM    1  C3  UNL     1      29.265   9.453  48.402  1.00  0.00     0.067 C 
HETATM    2  C4  UNL     1      29.052  10.366  47.536  1.00  0.00     0.106 C 
HETATM    3  C6  UNL     1      29.963  10.636  46.378  1.00  0.00     0.115 C 
HETATM    4  C8  UNL     1      31.099  10.209  45.828  1.00  0.00     0.131 C 
HETATM    5  C9  UNL     1      32.348   9.834  45.109  1.00  0.00     0.068 A 
HETATM    6  N1  UNL     1      33.053   9.431  46.179  1.00  0.00    -0.242 NA
HETATM    7  C10 UNL     1      34.279   8.917  46.134  1.00  0.00     0.236 A 
HETATM    8  N2  UNL     1      34.566   8.923  44.834  1.00  0.00    -0.217 NA
HETATM    9  C11 UNL     1      33.730   9.368  43.947  1.00  0.00     0.185 A 
HETATM   10  C12 UNL     1      32.535   9.902  43.683  1.00  0.00     0.020 A 
HETATM   11  C13 UNL     1      31.234  10.484  43.401  1.00  0.00     0.055 C 
HETATM   12  O3  UNL     1      33.720   9.501  42.531  1.00  0.00    -0.275 OA
HETATM   13  S1  UNL     1      33.257   8.033  41.612  1.00  0.00    -0.089 SA
HETATM   14  C14 UNL     1      33.606   6.659  42.647  1.00  0.00     0.192 C 
HETATM   15  C15 UNL     1      33.993   5.906  43.627  1.00  0.00     0.051 C 
HETATM   16  C16 UNL     1      34.039   4.522  44.023  1.00  0.00    -0.021 C 
HETATM   17  C17 UNL     1      34.620   4.489  45.238  1.00  0.00    -0.030 C 
HETATM   18  C18 UNL     1      34.929   3.368  46.107  1.00  0.00     0.027 C 
HETATM   19  C19 UNL     1      34.396   3.234  47.463  1.00  0.00     0.004 C 
HETATM   20  C20 UNL     1      32.950   3.130  47.700  1.00  0.00     0.002 C 
HETATM   21  C21 UNL     1      32.110   4.372  47.636  1.00  0.00     0.020 C 
HETATM   22  C22 UNL     1      32.511   5.326  48.788  1.00  0.00     0.124 C 
HETATM   23  N3  UNL     1      31.564   6.360  48.916  1.00  0.00    -0.343 N 
HETATM   24  C23 UNL     1      30.703   7.384  48.896  1.00  0.00     0.320 C 
HETATM   25  O4  UNL     1      31.236   7.495  47.819  1.00  0.00    -0.247 OA
HETATM   26  N4  UNL     1      29.772   8.355  49.070  1.00  0.00    -0.307 N 
HETATM   27  H29 UNL     1      31.127   6.267  49.903  1.00  0.00     0.164 HD
HETATM   28  H30 UNL     1      29.615   7.876  49.962  1.00  0.00     0.170 HD
ENDROOT
BRANCH   1  29
HETATM   29  C2  UNL     1      28.053   9.772  49.193  1.00  0.00     0.022 C 
HETATM   30  C1  UNL     1      27.435   9.050  50.147  1.00  0.00     0.013 C 
ENDBRANCH   1  29
BRANCH   2  31
HETATM   31  O1  UNL     1      27.980  11.214  47.556  1.00  0.00    -0.355 OA
HETATM   32  C5  UNL     1      26.840  11.025  46.726  1.00  0.00     0.209 C 
ENDBRANCH   2  31
BRANCH   3  33
HETATM   33  O2  UNL     1      29.489  11.709  45.574  1.00  0.00    -0.379 OA
HETATM   34  C7  UNL     1      30.234  12.916  45.811  1.00  0.00     0.202 C 
ENDBRANCH   3  33
TORSDOF 3
ENDMDL
MODEL 4
REMARK VINA RESULT:      -7.3      5.509     10.549
REMARK  3 active torsions:
REMARK  status: ('A' for Active; 'I' for Inactive)
REMARK    1  A    between atoms: C2_2  and  C3_3 
REMARK    2  A    between atoms: C4_4  and  O1_5 
REMARK    3  A    between atoms: C6_7  and  O2_8 
ROOT
HETATM    1  C3  UNL     1      27.244   6.495  48.529  1.00  0.00     0.067 C 
HETATM    2  C4  UNL     1      26.416   7.345  48.058  1.00  0.00     0.106 C 
HETATM    3  C6  UNL     1      26.777   8.764  47.745  1.00  0.00     0.115 C 
HETATM    4  C8  UNL     1      27.809   9.607  47.784  1.00  0.00     0.131 C 
HETATM    5  C9  UNL     1      28.871  10.651  47.772  1.00  0.00     0.068 A 
HETATM    6  N1  UNL     1      29.561  10.213  48.838  1.00  0.00    -0.242 NA
HETATM    7  C10 UNL     1      30.692  10.749  49.286  1.00  0.00     0.236 A 
HETATM    8  N2  UNL     1      30.912  11.753  48.439  1.00  0.00    -0.217 NA
HETATM    9  C11 UNL     1      30.104  12.014  47.457  1.00  0.00     0.185 A 
HETATM   10  C12 UNL     1      28.988  11.702  46.794  1.00  0.00     0.020 A 
HETATM   11  C13 UNL     1      27.771  11.359  46.078  1.00  0.00     0.055 C 
HETATM   12  O3  UNL     1      30.053  12.969  46.405  1.00  0.00    -0.275 OA
HETATM   13  S1  UNL     1      31.018  12.576  44.945  1.00  0.00    -0.089 SA
HETATM   14  C14 UNL     1      32.291  11.484  45.463  1.00  0.00     0.192 C 
HETATM   15  C15 UNL     1      33.084  10.743  46.170  1.00  0.00     0.051 C 
HETATM   16  C16 UNL     1      34.219   9.867  46.028  1.00  0.00    -0.021 C 
HETATM   17  C17 UNL     1      34.529   9.436  47.266  1.00  0.00    -0.030 C 
HETATM   18  C18 UNL     1      35.581   8.546  47.720  1.00  0.00     0.027 C 
HETATM   19  C19 UNL     1      35.320   7.296  48.434  1.00  0.00     0.004 C 
HETATM   20  C20 UNL     1      34.554   6.211  47.806  1.00  0.00     0.002 C 
HETATM   21  C21 UNL     1      33.060   6.323  47.729  1.00  0.00     0.020 C 
HETATM   22  C22 UNL     1      32.466   6.288  49.160  1.00  0.00     0.124 C 
HETATM   23  N3  UNL     1      31.070   6.116  49.103  1.00  0.00    -0.343 N 
HETATM   24  C23 UNL     1      29.738   6.085  48.975  1.00  0.00     0.320 C 
HETATM   25  O4  UNL     1      30.006   7.147  48.468  1.00  0.00    -0.247 OA
HETATM   26  N4  UNL     1      28.401   5.862  48.942  1.00  0.00    -0.307 N 
HETATM   27  H29 UNL     1      30.848   5.178  49.599  1.00  0.00     0.164 HD
HETATM   28  H30 UNL     1      28.659   4.975  49.383  1.00  0.00     0.170 HD
ENDROOT
BRANCH   1  29
HETATM   29  C2  UNL     1      26.245   5.402  48.598  1.00  0.00     0.022 C 
HETATM   30  C1  UNL     1      26.255   4.275  49.335  1.00  0.00     0.013 C 
ENDBRANCH   1  29
BRANCH   2  31
HETATM   31  O1  UNL     1      25.103   7.076  47.787  1.00  0.00    -0.355 OA
HETATM   32  C5  UNL     1      24.073   7.251  48.752  1.00  0.00     0.209 C 
ENDBRANCH   2  31
BRANCH   3  33
HETATM   33  O2  UNL     1      25.665   9.491  47.237  1.00  0.00    -0.379 OA
HETATM   34  C7  UNL     1      25.226  10.500  48.163  1.00  0.00     0.202 C 
ENDBRANCH   3  33
TORSDOF 3
ENDMDL
MODEL 5
REMARK VINA RESULT:      -7.3      4.157      8.454
REMARK  3 active torsions:
REMARK  status: ('A' for Active; 'I' for Inactive)
REMARK    1  A    between atoms: C2_2  and  C3_3 
REMARK    2  A    between atoms: C4_4  and  O1_5 
REMARK    3  A    between atoms: C6_7  and  O2_8 
ROOT
HETATM    1  C3  UNL     1      17.025  -1.578  52.658  1.00  0.00     0.067 C 
HETATM    2  C4  UNL     1      16.139  -1.283  51.787  1.00  0.00     0.106 C 
HETATM    3  C6  UNL     1      16.187  -0.043  50.948  1.00  0.00     0.115 C 
HETATM    4  C8  UNL     1      16.930   1.043  50.740  1.00  0.00     0.131 C 
HETATM    5  C9  UNL     1      17.662   2.296  50.404  1.00  0.00     0.068 A 
HETATM    6  N1  UNL     1      18.174   2.533  51.623  1.00  0.00    -0.242 NA
HETATM    7  C10 UNL     1      18.995   3.535  51.924  1.00  0.00     0.236 A 
HETATM    8  N2  UNL     1      19.140   4.170  50.763  1.00  0.00    -0.217 NA
HETATM    9  C11 UNL     1      18.543   3.772  49.681  1.00  0.00     0.185 A 
HETATM   10  C12 UNL     1      17.729   2.891  49.095  1.00  0.00     0.020 A 
HETATM   11  C13 UNL     1      16.841   1.931  48.462  1.00  0.00     0.055 C 
HETATM   12  O3  UNL     1      18.494   4.201  48.326  1.00  0.00    -0.275 OA
HETATM   13  S1  UNL     1      19.839   3.640  47.281  1.00  0.00    -0.089 SA
HETATM   14  C14 UNL     1      21.193   3.298  48.343  1.00  0.00     0.192 C 
HETATM   15  C15 UNL     1      21.964   3.172  49.376  1.00  0.00     0.051 C 
HETATM   16  C16 UNL     1      23.286   2.730  49.739  1.00  0.00    -0.021 C 
HETATM   17  C17 UNL     1      23.401   2.911  51.069  1.00  0.00    -0.030 C 
HETATM   18  C18 UNL     1      24.511   2.647  51.965  1.00  0.00     0.027 C 
HETATM   19  C19 UNL     1      24.420   1.735  53.106  1.00  0.00     0.004 C 
HETATM   20  C20 UNL     1      24.125   0.309  52.914  1.00  0.00     0.002 C 
HETATM   21  C21 UNL     1      22.712  -0.111  52.636  1.00  0.00     0.020 C 
HETATM   22  C22 UNL     1      21.832   0.188  53.876  1.00  0.00     0.124 C 
HETATM   23  N3  UNL     1      20.579  -0.442  53.747  1.00  0.00    -0.343 N 
HETATM   24  C23 UNL     1      19.367  -0.952  53.501  1.00  0.00     0.320 C 
HETATM   25  O4  UNL     1      19.464  -0.126  52.627  1.00  0.00    -0.247 OA
HETATM   26  N4  UNL     1      18.177  -1.597  53.420  1.00  0.00    -0.307 N 
HETATM   27  H29 UNL     1      20.496  -1.149  54.563  1.00  0.00     0.164 HD
HETATM   28  H30 UNL     1      18.545  -2.124  54.218  1.00  0.00     0.170 HD
ENDROOT
BRANCH   1  29
HETATM   29  C2  UNL     1      16.352  -2.832  53.072  1.00  0.00     0.022 C 
HETATM   30  C1  UNL     1      16.884  -3.981  53.531  1.00  0.00     0.013 C 
ENDBRANCH   1  29
BRANCH   2  31
HETATM   31  O1  UNL     1      15.039  -2.047  51.515  1.00  0.00    -0.355 OA
HETATM   32  C5  UNL     1      13.809  -1.891  52.212  1.00  0.00     0.209 C 
ENDBRANCH   2  31
BRANCH   3  33
HETATM   33  O2  UNL     1      15.075   0.038  50.064  1.00  0.00    -0.379 OA
HETATM   34  C7  UNL     1      14.208   1.133  50.406  1.00  0.00     0.202 C 
ENDBRANCH   3  33
TORSDOF 3
ENDMDL
MODEL 6
REMARK VINA RESULT:      -7.1      3.640      8.211
REMARK  3 active torsions:
REMARK  status: ('A' for Active; 'I' for Inactive)
REMARK    1  A    between atoms: C2_2  and  C3_3 
REMARK    2  A    between atoms: C4_4  and  O1_5 
REMARK    3  A    between atoms: C6_7  and  O2_8 
ROOT
HETATM    1  C3  UNL     1      16.093   3.686  50.354  1.00  0.00     0.067 C 
HETATM    2  C4  UNL     1      15.816   2.574  50.916  1.00  0.00     0.106 C 
HETATM    3  C6  UNL     1      16.835   1.511  51.190  1.00  0.00     0.115 C 
HETATM    4  C8  UNL     1      18.133   1.252  51.038  1.00  0.00     0.131 C 
HETATM    5  C9  UNL     1      19.558   0.832  50.936  1.00  0.00     0.068 A 
HETATM    6  N1  UNL     1      19.852   1.484  49.798  1.00  0.00    -0.242 NA
HETATM    7  C10 UNL     1      21.053   1.520  49.228  1.00  0.00     0.236 A 
HETATM    8  N2  UNL     1      21.803   0.785  50.048  1.00  0.00    -0.217 NA
HETATM    9  C11 UNL     1      21.314   0.230  51.115  1.00  0.00     0.185 A 
HETATM   10  C12 UNL     1      20.253   0.016  51.896  1.00  0.00     0.020 A 
HETATM   11  C13 UNL     1      19.095  -0.216  52.743  1.00  0.00     0.055 C 
HETATM   12  O3  UNL     1      21.824  -0.578  52.168  1.00  0.00    -0.275 OA
HETATM   13  S1  UNL     1      22.623   0.303  53.510  1.00  0.00    -0.089 SA
HETATM   14  C14 UNL     1      23.171   1.834  52.851  1.00  0.00     0.192 C 
HETATM   15  C15 UNL     1      23.446   2.822  52.059  1.00  0.00     0.051 C 
HETATM   16  C16 UNL     1      24.038   4.134  52.071  1.00  0.00    -0.021 C 
HETATM   17  C17 UNL     1      23.986   4.592  50.806  1.00  0.00    -0.030 C 
HETATM   18  C18 UNL     1      24.441   5.846  50.236  1.00  0.00     0.027 C 
HETATM   19  C19 UNL     1      23.551   6.785  49.551  1.00  0.00     0.004 C 
HETATM   20  C20 UNL     1      22.428   7.415  50.258  1.00  0.00     0.002 C 
HETATM   21  C21 UNL     1      21.180   6.617  50.501  1.00  0.00     0.020 C 
HETATM   22  C22 UNL     1      20.506   6.290  49.145  1.00  0.00     0.124 C 
HETATM   23  N3  UNL     1      19.207   5.788  49.356  1.00  0.00    -0.343 N 
HETATM   24  C23 UNL     1      18.039   5.196  49.631  1.00  0.00     0.320 C 
HETATM   25  O4  UNL     1      18.825   4.415  50.108  1.00  0.00    -0.247 OA
HETATM   26  N4  UNL     1      16.766   4.765  49.813  1.00  0.00    -0.307 N 
HETATM   27  H29 UNL     1      18.521   6.482  48.886  1.00  0.00     0.164 HD
HETATM   28  H30 UNL     1      16.529   5.644  49.344  1.00  0.00     0.170 HD
ENDROOT
BRANCH   1  29
HETATM   29  C2  UNL     1      14.694   4.175  50.393  1.00  0.00     0.022 C 
HETATM   30  C1  UNL     1      14.033   4.958  49.519  1.00  0.00     0.013 C 
ENDBRANCH   1  29
BRANCH   2  31
HETATM   31  O1  UNL     1      14.566   2.208  51.330  1.00  0.00    -0.355 OA
HETATM   32  C5  UNL     1      14.170   2.249  52.696  1.00  0.00     0.209 C 
ENDBRANCH   2  31
BRANCH   3  33
HETATM   33  O2  UNL     1      16.255   0.376  51.821  1.00  0.00    -0.379 OA
HETATM   34  C7  UNL     1      16.082  -0.712  50.896  1.00  0.00     0.202 C 
ENDBRANCH   3  33
TORSDOF 3
ENDMDL
MODEL 7
REMARK VINA RESULT:      -6.7      8.004     11.877
REMARK  3 active torsions:
REMARK  status: ('A' for Active; 'I' for Inactive)
REMARK    1  A    between atoms: C2_2  and  C3_3 
REMARK    2  A    between atoms: C4_4  and  O1_5 
REMARK    3  A    between atoms: C6_7  and  O2_8 
ROOT
HETATM    1  C3  UNL     1      34.569   7.848  43.524  1.00  0.00     0.067 C 
HETATM    2  C4  UNL     1      34.538   6.579  43.656  1.00  0.00     0.106 C 
HETATM    3  C6  UNL     1      33.873   5.883  44.804  1.00  0.00     0.115 C 
HETATM    4  C8  UNL     1      33.194   6.138  45.921  1.00  0.00     0.131 C 
HETATM    5  C9  UNL     1      32.425   6.277  47.190  1.00  0.00     0.068 A 
HETATM    6  N1  UNL     1      32.956   7.444  47.590  1.00  0.00    -0.242 NA
HETATM    7  C10 UNL     1      32.594   8.111  48.682  1.00  0.00     0.236 A 
HETATM    8  N2  UNL     1      31.640   7.346  49.206  1.00  0.00    -0.217 NA
HETATM    9  C11 UNL     1      31.269   6.232  48.652  1.00  0.00     0.185 A 
HETATM   10  C12 UNL     1      31.417   5.360  47.652  1.00  0.00     0.020 A 
HETATM   11  C13 UNL     1      31.582   4.413  46.562  1.00  0.00     0.055 C 
HETATM   12  O3  UNL     1      30.310   5.222  48.936  1.00  0.00    -0.275 OA
HETATM   13  S1  UNL     1      28.637   5.557  48.385  1.00  0.00    -0.089 SA
HETATM   14  C14 UNL     1      28.486   7.301  48.265  1.00  0.00     0.192 C 
HETATM   15  C15 UNL     1      28.712   8.576  48.309  1.00  0.00     0.051 C 
HETATM   16  C16 UNL     1      28.076   9.835  48.017  1.00  0.00    -0.021 C 
HETATM   17  C17 UNL     1      28.962  10.797  48.340  1.00  0.00    -0.030 C 
HETATM   18  C18 UNL     1      28.857  12.242  48.261  1.00  0.00     0.027 C 
HETATM   19  C19 UNL     1      29.765  13.069  47.465  1.00  0.00     0.004 C 
HETATM   20  C20 UNL     1      29.852  12.910  46.008  1.00  0.00     0.002 C 
HETATM   21  C21 UNL     1      30.627  11.755  45.446  1.00  0.00     0.020 C 
HETATM   22  C22 UNL     1      32.126  11.921  45.796  1.00  0.00     0.124 C 
HETATM   23  N3  UNL     1      32.903  11.010  45.055  1.00  0.00    -0.343 N 
HETATM   24  C23 UNL     1      33.565  10.033  44.424  1.00  0.00     0.320 C 
HETATM   25  O4  UNL     1      32.848   9.402  45.162  1.00  0.00    -0.247 OA
HETATM   26  N4  UNL     1      34.333   9.201  43.678  1.00  0.00    -0.307 N 
HETATM   27  H29 UNL     1      33.566  11.595  44.430  1.00  0.00     0.164 HD
HETATM   28  H30 UNL     1      34.671  10.077  43.267  1.00  0.00     0.170 HD
ENDROOT
BRANCH   1  29
HETATM   29  C2  UNL     1      35.354   7.805  42.268  1.00  0.00     0.022 C 
HETATM   30  C1  UNL     1      35.958   8.805  41.598  1.00  0.00     0.013 C 
ENDBRANCH   1  29
BRANCH   2  31
HETATM   31  O1  UNL     1      35.108   5.697  42.780  1.00  0.00    -0.355 OA
HETATM   32  C5  UNL     1      34.359   5.028  41.773  1.00  0.00     0.209 C 
ENDBRANCH   2  31
BRANCH   3  33
HETATM   33  O2  UNL     1      33.992   4.469  44.703  1.00  0.00    -0.379 OA
HETATM   34  C7  UNL     1      34.995   3.958  45.598  1.00  0.00     0.202 C 
ENDBRANCH   3  33
TORSDOF 3
ENDMDL
MODEL 8
REMARK VINA RESULT:      -6.6      1.819      2.477
REMARK  3 active torsions:
REMARK  status: ('A' for Active; 'I' for Inactive)
REMARK    1  A    between atoms: C2_2  and  C3_3 
REMARK    2  A    between atoms: C4_4  and  O1_5 
REMARK    3  A    between atoms: C6_7  and  O2_8 
ROOT
HETATM    1  C3  UNL     1      27.146   6.377  48.350  1.00  0.00     0.067 C 
HETATM    2  C4  UNL     1      26.643   7.369  47.725  1.00  0.00     0.106 C 
HETATM    3  C6  UNL     1      25.193   7.471  47.367  1.00  0.00     0.115 C 
HETATM    4  C8  UNL     1      24.046   6.801  47.474  1.00  0.00     0.131 C 
HETATM    5  C9  UNL     1      22.700   6.165  47.523  1.00  0.00     0.068 A 
HETATM    6  N1  UNL     1      23.108   4.886  47.476  1.00  0.00    -0.242 NA
HETATM    7  C10 UNL     1      22.306   3.827  47.546  1.00  0.00     0.236 A 
HETATM    8  N2  UNL     1      21.096   4.367  47.666  1.00  0.00    -0.217 NA
HETATM    9  C11 UNL     1      20.915   5.652  47.689  1.00  0.00     0.185 A 
HETATM   10  C12 UNL     1      21.452   6.873  47.642  1.00  0.00     0.020 A 
HETATM   11  C13 UNL     1      22.042   8.200  47.590  1.00  0.00     0.055 C 
HETATM   12  O3  UNL     1      19.797   6.523  47.812  1.00  0.00    -0.275 OA
HETATM   13  S1  UNL     1      19.237   6.843  49.484  1.00  0.00    -0.089 SA
HETATM   14  C14 UNL     1      19.762   5.482  50.460  1.00  0.00     0.192 C 
HETATM   15  C15 UNL     1      20.265   4.357  50.860  1.00  0.00     0.051 C 
HETATM   16  C16 UNL     1      20.458   3.581  52.057  1.00  0.00    -0.021 C 
HETATM   17  C17 UNL     1      21.082   2.447  51.684  1.00  0.00    -0.030 C 
HETATM   18  C18 UNL     1      21.515   1.305  52.468  1.00  0.00     0.027 C 
HETATM   19  C19 UNL     1      22.909   0.865  52.539  1.00  0.00     0.004 C 
HETATM   20  C20 UNL     1      23.953   1.743  53.082  1.00  0.00     0.002 C 
HETATM   21  C21 UNL     1      24.488   2.855  52.227  1.00  0.00     0.020 C 
HETATM   22  C22 UNL     1      25.237   2.254  51.011  1.00  0.00     0.124 C 
HETATM   23  N3  UNL     1      25.974   3.255  50.351  1.00  0.00    -0.343 N 
HETATM   24  C23 UNL     1      26.542   4.275  49.696  1.00  0.00     0.320 C 
HETATM   25  O4  UNL     1      25.370   4.547  49.599  1.00  0.00    -0.247 OA
HETATM   26  N4  UNL     1      27.303   5.215  49.082  1.00  0.00    -0.307 N 
HETATM   27  H29 UNL     1      27.018   2.972  50.415  1.00  0.00     0.164 HD
HETATM   28  H30 UNL     1      28.077   4.638  49.425  1.00  0.00     0.170 HD
ENDROOT
BRANCH   1  29
HETATM   29  C2  UNL     1      28.523   6.924  48.328  1.00  0.00     0.022 C 
HETATM   30  C1  UNL     1      29.704   6.277  48.338  1.00  0.00     0.013 C 
ENDBRANCH   1  29
BRANCH   2  31
HETATM   31  O1  UNL     1      27.356   8.454  47.298  1.00  0.00    -0.355 OA
HETATM   32  C5  UNL     1      27.933   8.527  46.000  1.00  0.00     0.209 C 
ENDBRANCH   2  31
BRANCH   3  33
HETATM   33  O2  UNL     1      24.905   8.678  46.671  1.00  0.00    -0.379 OA
HETATM   34  C7  UNL     1      24.586   8.429  45.291  1.00  0.00     0.202 C 
ENDBRANCH   3  33
TORSDOF 3
ENDMDL
MODEL 9
REMARK VINA RESULT:      -6.4      8.855     12.602
REMARK  3 active torsions:
REMARK  status: ('A' for Active; 'I' for Inactive)
REMARK    1  A    between atoms: C2_2  and  C3_3 
REMARK    2  A    between atoms: C4_4  and  O1_5 
REMARK    3  A    between atoms: C6_7  and  O2_8 
ROOT
HETATM    1  C3  UNL     1      33.631   5.786  45.982  1.00  0.00     0.067 C 
HETATM    2  C4  UNL     1      32.857   5.402  46.921  1.00  0.00     0.106 C 
HETATM    3  C6  UNL     1      31.958   6.326  47.682  1.00  0.00     0.115 C 
HETATM    4  C8  UNL     1      31.611   7.611  47.757  1.00  0.00     0.131 C 
HETATM    5  C9  UNL     1      31.130   9.007  47.949  1.00  0.00     0.068 A 
HETATM    6  N1  UNL     1      32.267   9.634  47.604  1.00  0.00    -0.242 NA
HETATM    7  C10 UNL     1      32.420  10.953  47.534  1.00  0.00     0.236 A 
HETATM    8  N2  UNL     1      31.220  11.418  47.875  1.00  0.00    -0.217 NA
HETATM    9  C11 UNL     1      30.237  10.627  48.180  1.00  0.00     0.185 A 
HETATM   10  C12 UNL     1      29.794   9.378  48.337  1.00  0.00     0.020 A 
HETATM   11  C13 UNL     1      29.318   8.016  48.507  1.00  0.00     0.055 C 
HETATM   12  O3  UNL     1      28.877  10.792  48.564  1.00  0.00    -0.275 OA
HETATM   13  S1  UNL     1      27.710  11.027  47.223  1.00  0.00    -0.089 SA
HETATM   14  C14 UNL     1      28.622  11.674  45.870  1.00  0.00     0.192 C 
HETATM   15  C15 UNL     1      29.563  12.145  45.115  1.00  0.00     0.051 C 
HETATM   16  C16 UNL     1      29.790  12.616  43.773  1.00  0.00    -0.021 C 
HETATM   17  C17 UNL     1      31.087  12.974  43.705  1.00  0.00    -0.030 C 
HETATM   18  C18 UNL     1      31.858  13.521  42.604  1.00  0.00     0.027 C 
HETATM   19  C19 UNL     1      33.046  12.865  42.055  1.00  0.00     0.004 C 
HETATM   20  C20 UNL     1      32.960  11.532  41.445  1.00  0.00     0.002 C 
HETATM   21  C21 UNL     1      32.871  10.327  42.335  1.00  0.00     0.020 C 
HETATM   22  C22 UNL     1      34.189  10.180  43.136  1.00  0.00     0.124 C 
HETATM   23  N3  UNL     1      34.239   8.921  43.764  1.00  0.00    -0.343 N 
HETATM   24  C23 UNL     1      34.162   7.768  44.438  1.00  0.00     0.320 C 
HETATM   25  O4  UNL     1      33.243   8.388  44.914  1.00  0.00    -0.247 OA
HETATM   26  N4  UNL     1      34.253   6.538  45.004  1.00  0.00    -0.307 N 
HETATM   27  H29 UNL     1      35.093   8.397  43.353  1.00  0.00     0.164 HD
HETATM   28  H30 UNL     1      35.028   6.424  44.343  1.00  0.00     0.170 HD
ENDROOT
BRANCH   1  29
HETATM   29  C2  UNL     1      34.183   4.433  45.738  1.00  0.00     0.022 C 
HETATM   30  C1  UNL     1      35.138   4.038  44.875  1.00  0.00     0.013 C 
ENDBRANCH   1  29
BRANCH   2  31
HETATM   31  O1  UNL     1      32.754   4.110  47.356  1.00  0.00    -0.355 OA
HETATM   32  C5  UNL     1      31.828   3.186  46.795  1.00  0.00     0.209 C 
ENDBRANCH   2  31
BRANCH   3  33
HETATM   33  O2  UNL     1      31.208   5.634  48.673  1.00  0.00    -0.379 OA
HETATM   34  C7  UNL     1      31.728   5.874  49.992  1.00  0.00     0.202 C 
ENDBRANCH   3  33
TORSDOF 3
ENDMDL
