MODEL 1
REMARK VINA RESULT:      -8.1      0.000      0.000
REMARK  9 active torsions:
REMARK  status: ('A' for Active; 'I' for Inactive)
REMARK    1  A    between atoms: C2_2  and  C3_3 
REMARK    2  A    between atoms: C3_3  and  C4_4 
REMARK    3  A    between atoms: C4_4  and  C5_5 
REMARK    4  A    between atoms: C9_11  and  C10_12 
REMARK    5  A    between atoms: C9_11  and  C21_27 
REMARK    6  A    between atoms: N4_15  and  C12_16 
REMARK    7  A    between atoms: N5_19  and  C15_20 
REMARK    8  A    between atoms: N6_26  and  C21_27 
REMARK    9  A    between atoms: C21_27  and  N7_28 
ROOT
HETATM    1  C5  UNL     1      25.374  -0.148  53.568  1.00  0.00    -0.015 C 
HETATM    2  C6  UNL     1      26.067  -0.727  54.719  1.00  0.00     0.185 C 
HETATM    3  N1  UNL     1      25.155  -1.212  55.773  1.00  0.00    -0.300 NA
HETATM    4  C7  UNL     1      23.800  -1.303  55.690  1.00  0.00     0.100 C 
HETATM    5  C8  UNL     1      22.440  -1.203  54.895  1.00  0.00     0.087 A 
HETATM    6  N2  UNL     1      23.001  -0.397  53.851  1.00  0.00     0.000 N 
HETATM    7  C9  UNL     1      22.595   0.261  52.781  1.00  0.00     0.291 A 
HETATM    8  C20 UNL     1      23.969   0.262  53.101  1.00  0.00     0.277 A 
HETATM    9  N6  UNL     1      22.614  -0.204  53.445  1.00  0.00     0.164 N 
HETATM   10  C21 UNL     1      21.956  -0.703  54.030  1.00  0.00     0.288 A 
ENDROOT
BRANCH   7  11
HETATM   11  C10 UNL     1      22.079   1.068  51.461  1.00  0.00     0.025 A 
HETATM   12  C11 UNL     1      21.258   0.669  50.412  1.00  0.00     0.150 A 
HETATM   13  N3  UNL     1      21.330   1.767  49.727  1.00  0.00    -0.184 NA
HETATM   14  N4  UNL     1      22.020   2.740  50.141  1.00  0.00    -0.276 N 
HETATM   15  C19 UNL     1      22.566   2.426  51.276  1.00  0.00     0.124 A 
BRANCH  14  16
HETATM   16  C12 UNL     1      22.402   4.066  49.787  1.00  0.00     0.112 C 
HETATM   17  C13 UNL     1      22.702   4.880  51.030  1.00  0.00     0.047 C 
HETATM   18  C14 UNL     1      23.337   6.197  50.778  1.00  0.00     0.119 C 
HETATM   19  N5  UNL     1      24.185   6.334  49.630  1.00  0.00    -0.413 N 
HETATM   20  C17 UNL     1      23.905   5.482  48.547  1.00  0.00     0.119 C 
HETATM   21  C18 UNL     1      23.706   4.026  48.987  1.00  0.00     0.047 C 
BRANCH  19  22
HETATM   22  C15 UNL     1      25.558   6.524  49.971  1.00  0.00     0.112 C 
HETATM   23  C16 UNL     1      26.553   6.376  48.875  1.00  0.00     0.026 C 
ENDBRANCH  19  22
ENDBRANCH  14  16
ENDBRANCH   7  11
BRANCH  10  24
HETATM   24  N7  UNL     1      20.440  -1.223  54.241  1.00  0.00    -0.394 N 
HETATM   25  H24 UNL     1      19.738  -1.747  53.676  1.00  0.00     0.152 HD
HETATM   26  H25 UNL     1      19.635  -1.553  54.249  1.00  0.00     0.152 HD
ENDBRANCH  10  24
BRANCH   1  27
HETATM   27  C4  UNL     1      26.274  -0.050  52.528  1.00  0.00     0.015 C 
BRANCH  27  28
HETATM   28  C3  UNL     1      26.558   1.200  51.898  1.00  0.00     0.051 C 
BRANCH  28  29
HETATM   29  C2  UNL     1      27.430   1.979  52.568  1.00  0.00    -0.155 C 
HETATM   30  C1  UNL     1      28.364   2.357  53.440  1.00  0.00     0.096 C 
ENDBRANCH  28  29
ENDBRANCH  27  28
ENDBRANCH   1  27
TORSDOF 9
ENDMDL
MODEL 2
REMARK VINA RESULT:      -8.0      1.688      3.984
REMARK  9 active torsions:
REMARK  status: ('A' for Active; 'I' for Inactive)
REMARK    1  A    between atoms: C2_2  and  C3_3 
REMARK    2  A    between atoms: C3_3  and  C4_4 
REMARK    3  A    between atoms: C4_4  and  C5_5 
REMARK    4  A    between atoms: C9_11  and  C10_12 
REMARK    5  A    between atoms: C9_11  and  C21_27 
REMARK    6  A    between atoms: N4_15  and  C12_16 
REMARK    7  A    between atoms: N5_19  and  C15_20 
REMARK    8  A    between atoms: N6_26  and  C21_27 
REMARK    9  A    between atoms: C21_27  and  N7_28 
ROOT
HETATM    1  C5  UNL     1      21.948  -0.125  53.268  1.00  0.00    -0.015 C 
HETATM    2  C6  UNL     1      21.106  -0.988  54.097  1.00  0.00     0.185 C 
HETATM    3  N1  UNL     1      21.866  -1.795  55.069  1.00  0.00    -0.300 NA
HETATM    4  C7  UNL     1      23.193  -1.686  55.348  1.00  0.00     0.100 C 
HETATM    5  C8  UNL     1      24.599  -0.983  55.197  1.00  0.00     0.087 A 
HETATM    6  N2  UNL     1      24.233  -0.301  53.991  1.00  0.00     0.000 N 
HETATM    7  C9  UNL     1      24.801   0.458  53.071  1.00  0.00     0.291 A 
HETATM    8  C20 UNL     1      23.426   0.161  52.957  1.00  0.00     0.277 A 
HETATM    9  N6  UNL     1      24.669   0.007  53.733  1.00  0.00     0.164 N 
HETATM   10  C21 UNL     1      25.206  -0.359  54.510  1.00  0.00     0.288 A 
ENDROOT
BRANCH   7  11
HETATM   11  C10 UNL     1      25.514   1.395  51.944  1.00  0.00     0.025 A 
HETATM   12  C11 UNL     1      26.847   1.510  51.565  1.00  0.00     0.150 A 
HETATM   13  N3  UNL     1      26.683   2.450  50.688  1.00  0.00    -0.184 NA
HETATM   14  N4  UNL     1      25.535   2.925  50.460  1.00  0.00    -0.276 N 
HETATM   15  C19 UNL     1      24.665   2.321  51.211  1.00  0.00     0.124 A 
BRANCH  14  16
HETATM   16  C12 UNL     1      24.870   3.898  49.659  1.00  0.00     0.112 C 
HETATM   17  C13 UNL     1      23.413   4.010  50.065  1.00  0.00     0.047 C 
HETATM   18  C14 UNL     1      22.684   5.155  49.466  1.00  0.00     0.119 C 
HETATM   19  N5  UNL     1      23.420   6.346  49.162  1.00  0.00    -0.413 N 
HETATM   20  C17 UNL     1      24.789   6.177  48.885  1.00  0.00     0.119 C 
HETATM   21  C18 UNL     1      25.484   5.276  49.913  1.00  0.00     0.047 C 
BRANCH  19  22
HETATM   22  C15 UNL     1      23.055   7.453  49.988  1.00  0.00     0.112 C 
HETATM   23  C16 UNL     1      21.742   7.373  50.681  1.00  0.00     0.026 C 
ENDBRANCH  19  22
ENDBRANCH  14  16
ENDBRANCH   7  11
BRANCH  10  24
HETATM   24  N7  UNL     1      26.608  -0.368  55.314  1.00  0.00    -0.394 N 
HETATM   25  H24 UNL     1      27.418  -1.015  55.409  1.00  0.00     0.152 HD
HETATM   26  H25 UNL     1      27.384  -0.473  55.692  1.00  0.00     0.152 HD
ENDBRANCH  10  24
BRANCH   1  27
HETATM   27  C4  UNL     1      21.140   0.810  52.657  1.00  0.00     0.015 C 
BRANCH  27  28
HETATM   28  C3  UNL     1      20.409   0.507  51.468  1.00  0.00     0.051 C 
BRANCH  28  29
HETATM   29  C2  UNL     1      20.976   0.959  50.333  1.00  0.00    -0.155 C 
HETATM   30  C1  UNL     1      21.428   0.990  49.080  1.00  0.00     0.096 C 
ENDBRANCH  28  29
ENDBRANCH  27  28
ENDBRANCH   1  27
TORSDOF 9
ENDMDL
MODEL 3
REMARK VINA RESULT:      -7.9      1.626      6.913
REMARK  9 active torsions:
REMARK  status: ('A' for Active; 'I' for Inactive)
REMARK    1  A    between atoms: C2_2  and  C3_3 
REMARK    2  A    between atoms: C3_3  and  C4_4 
REMARK    3  A    between atoms: C4_4  and  C5_5 
REMARK    4  A    between atoms: C9_11  and  C10_12 
REMARK    5  A    between atoms: C9_11  and  C21_27 
REMARK    6  A    between atoms: N4_15  and  C12_16 
REMARK    7  A    between atoms: N5_19  and  C15_20 
REMARK    8  A    between atoms: N6_26  and  C21_27 
REMARK    9  A    between atoms: C21_27  and  N7_28 
ROOT
HETATM    1  C5  UNL     1      26.313   4.003  49.565  1.00  0.00    -0.015 C 
HETATM    2  C6  UNL     1      27.490   4.492  48.845  1.00  0.00     0.185 C 
HETATM    3  N1  UNL     1      27.487   5.952  48.636  1.00  0.00    -0.300 NA
HETATM    4  C7  UNL     1      26.610   6.844  49.170  1.00  0.00     0.100 C 
HETATM    5  C8  UNL     1      25.405   7.221  50.119  1.00  0.00     0.087 A 
HETATM    6  N2  UNL     1      24.952   5.866  50.237  1.00  0.00     0.000 N 
HETATM    7  C9  UNL     1      23.938   5.203  50.761  1.00  0.00     0.291 A 
HETATM    8  C20 UNL     1      24.955   4.482  50.100  1.00  0.00     0.277 A 
HETATM    9  N6  UNL     1      24.449   5.793  50.541  1.00  0.00     0.164 N 
HETATM   10  C21 UNL     1      24.502   6.802  50.609  1.00  0.00     0.288 A 
ENDROOT
BRANCH   7  11
HETATM   11  C10 UNL     1      22.681   4.397  51.416  1.00  0.00     0.025 A 
HETATM   12  C11 UNL     1      21.479   4.857  51.943  1.00  0.00     0.150 A 
HETATM   13  N3  UNL     1      21.017   3.705  52.315  1.00  0.00    -0.184 NA
HETATM   14  N4  UNL     1      21.686   2.651  52.124  1.00  0.00    -0.276 N 
HETATM   15  C19 UNL     1      22.802   2.953  51.534  1.00  0.00     0.124 A 
BRANCH  14  16
HETATM   16  C12 UNL     1      21.632   1.243  52.335  1.00  0.00     0.112 C 
HETATM   17  C13 UNL     1      23.024   0.689  52.570  1.00  0.00     0.047 C 
HETATM   18  C14 UNL     1      23.067  -0.718  53.036  1.00  0.00     0.119 C 
HETATM   19  N5  UNL     1      21.977  -1.206  53.828  1.00  0.00    -0.413 N 
HETATM   20  C17 UNL     1      20.732  -0.583  53.622  1.00  0.00     0.119 C 
HETATM   21  C18 UNL     1      20.841   0.946  53.610  1.00  0.00     0.047 C 
BRANCH  19  22
HETATM   22  C15 UNL     1      22.350  -1.485  55.178  1.00  0.00     0.112 C 
HETATM   23  C16 UNL     1      23.790  -1.344  55.523  1.00  0.00     0.026 C 
ENDBRANCH  19  22
ENDBRANCH  14  16
ENDBRANCH   7  11
BRANCH  10  24
HETATM   24  N7  UNL     1      23.889   8.162  51.233  1.00  0.00    -0.394 N 
HETATM   25  H24 UNL     1      23.031   8.736  51.090  1.00  0.00     0.152 HD
HETATM   26  H25 UNL     1      23.465   8.873  51.501  1.00  0.00     0.152 HD
ENDBRANCH  10  24
BRANCH   1  27
HETATM   27  C4  UNL     1      26.575   2.721  49.998  1.00  0.00     0.015 C 
BRANCH  27  28
HETATM   28  C3  UNL     1      26.427   2.348  51.369  1.00  0.00     0.051 C 
BRANCH  28  29
HETATM   29  C2  UNL     1      26.770   1.074  51.642  1.00  0.00    -0.155 C 
HETATM   30  C1  UNL     1      26.674  -0.198  52.028  1.00  0.00     0.096 C 
ENDBRANCH  28  29
ENDBRANCH  27  28
ENDBRANCH   1  27
TORSDOF 9
ENDMDL
MODEL 4
REMARK VINA RESULT:      -7.7      1.825      2.526
REMARK  9 active torsions:
REMARK  status: ('A' for Active; 'I' for Inactive)
REMARK    1  A    between atoms: C2_2  and  C3_3 
REMARK    2  A    between atoms: C3_3  and  C4_4 
REMARK    3  A    between atoms: C4_4  and  C5_5 
REMARK    4  A    between atoms: C9_11  and  C10_12 
REMARK    5  A    between atoms: C9_11  and  C21_27 
REMARK    6  A    between atoms: N4_15  and  C12_16 
REMARK    7  A    between atoms: N5_19  and  C15_20 
REMARK    8  A    between atoms: N6_26  and  C21_27 
REMARK    9  A    between atoms: C21_27  and  N7_28 
ROOT
HETATM    1  C5  UNL     1      24.966  -0.179  53.833  1.00  0.00    -0.015 C 
HETATM    2  C6  UNL     1      24.907  -1.033  55.019  1.00  0.00     0.185 C 
HETATM    3  N1  UNL     1      23.532  -1.332  55.461  1.00  0.00    -0.300 NA
HETATM    4  C7  UNL     1      22.385  -1.026  54.798  1.00  0.00     0.100 C 
HETATM    5  C8  UNL     1      21.602  -0.471  53.543  1.00  0.00     0.087 A 
HETATM    6  N2  UNL     1      22.740   0.233  53.028  1.00  0.00     0.000 N 
HETATM    7  C9  UNL     1      23.024   1.074  52.051  1.00  0.00     0.291 A 
HETATM    8  C20 UNL     1      24.060   0.655  52.913  1.00  0.00     0.277 A 
HETATM    9  N6  UNL     1      22.635   0.564  52.548  1.00  0.00     0.164 N 
HETATM   10  C21 UNL     1      21.692   0.222  52.682  1.00  0.00     0.288 A 
ENDROOT
BRANCH   7  11
HETATM   11  C10 UNL     1      23.362   2.110  50.839  1.00  0.00     0.025 A 
HETATM   12  C11 UNL     1      22.801   2.246  49.573  1.00  0.00     0.150 A 
HETATM   13  N3  UNL     1      23.577   3.197  49.157  1.00  0.00    -0.184 NA
HETATM   14  N4  UNL     1      24.484   3.661  49.902  1.00  0.00    -0.276 N 
HETATM   15  C19 UNL     1      24.457   3.045  51.045  1.00  0.00     0.124 A 
BRANCH  14  16
HETATM   16  C12 UNL     1      25.527   4.632  49.917  1.00  0.00     0.112 C 
HETATM   17  C13 UNL     1      26.657   4.209  48.998  1.00  0.00     0.047 C 
HETATM   18  C14 UNL     1      27.684   5.250  48.750  1.00  0.00     0.119 C 
HETATM   19  N5  UNL     1      27.279   6.625  48.775  1.00  0.00    -0.413 N 
HETATM   20  C17 UNL     1      26.165   6.929  49.578  1.00  0.00     0.119 C 
HETATM   21  C18 UNL     1      25.002   5.955  49.356  1.00  0.00     0.047 C 
BRANCH  19  22
HETATM   22  C15 UNL     1      27.346   7.248  47.492  1.00  0.00     0.112 C 
HETATM   23  C16 UNL     1      28.675   7.758  47.059  1.00  0.00     0.026 C 
ENDBRANCH  19  22
ENDBRANCH  14  16
ENDBRANCH   7  11
BRANCH  10  24
HETATM   24  N7  UNL     1      20.179   0.137  52.119  1.00  0.00    -0.394 N 
HETATM   25  H24 UNL     1      19.305   0.696  52.219  1.00  0.00     0.152 HD
HETATM   26  H25 UNL     1      19.346   0.193  51.871  1.00  0.00     0.152 HD
ENDBRANCH  10  24
BRANCH   1  27
HETATM   27  C4  UNL     1      26.242  -0.247  53.315  1.00  0.00     0.015 C 
BRANCH  27  28
HETATM   28  C3  UNL     1      27.395  -0.029  54.130  1.00  0.00     0.051 C 
BRANCH  28  29
HETATM   29  C2  UNL     1      28.548  -0.481  53.600  1.00  0.00    -0.155 C 
HETATM   30  C1  UNL     1      29.748  -1.052  53.503  1.00  0.00     0.096 C 
ENDBRANCH  28  29
ENDBRANCH  27  28
ENDBRANCH   1  27
TORSDOF 9
ENDMDL
MODEL 5
REMARK VINA RESULT:      -7.6      2.668      6.527
REMARK  9 active torsions:
REMARK  status: ('A' for Active; 'I' for Inactive)
REMARK    1  A    between atoms: C2_2  and  C3_3 
REMARK    2  A    between atoms: C3_3  and  C4_4 
REMARK    3  A    between atoms: C4_4  and  C5_5 
REMARK    4  A    between atoms: C9_11  and  C10_12 
REMARK    5  A    between atoms: C9_11  and  C21_27 
REMARK    6  A    between atoms: N4_15  and  C12_16 
REMARK    7  A    between atoms: N5_19  and  C15_20 
REMARK    8  A    between atoms: N6_26  and  C21_27 
REMARK    9  A    between atoms: C21_27  and  N7_28 
ROOT
HETATM    1  C5  UNL     1      24.357   2.327  51.290  1.00  0.00    -0.015 C 
HETATM    2  C6  UNL     1      25.450   3.087  50.683  1.00  0.00     0.185 C 
HETATM    3  N1  UNL     1      26.788   2.631  51.103  1.00  0.00    -0.300 NA
HETATM    4  C7  UNL     1      27.071   1.522  51.838  1.00  0.00     0.100 C 
HETATM    5  C8  UNL     1      26.652   0.183  52.564  1.00  0.00     0.087 A 
HETATM    6  N2  UNL     1      25.262   0.531  52.605  1.00  0.00     0.000 N 
HETATM    7  C9  UNL     1      24.139   0.061  53.115  1.00  0.00     0.291 A 
HETATM    8  C20 UNL     1      24.097   1.247  52.352  1.00  0.00     0.277 A 
HETATM    9  N6  UNL     1      24.915   0.149  52.896  1.00  0.00     0.164 N 
HETATM   10  C21 UNL     1      25.795  -0.329  53.046  1.00  0.00     0.288 A 
ENDROOT
BRANCH   7  11
HETATM   11  C10 UNL     1      22.758  -0.532  53.749  1.00  0.00     0.025 A 
HETATM   12  C11 UNL     1      22.544  -1.541  54.683  1.00  0.00     0.150 A 
HETATM   13  N3  UNL     1      21.249  -1.504  54.661  1.00  0.00    -0.184 NA
HETATM   14  N4  UNL     1      20.640  -0.690  53.913  1.00  0.00    -0.276 N 
HETATM   15  C19 UNL     1      21.506   0.021  53.258  1.00  0.00     0.124 A 
BRANCH  14  16
HETATM   16  C12 UNL     1      19.324  -0.284  53.544  1.00  0.00     0.112 C 
HETATM   17  C13 UNL     1      19.353   0.473  52.230  1.00  0.00     0.047 C 
HETATM   18  C14 UNL     1      18.023   0.735  51.630  1.00  0.00     0.119 C 
HETATM   19  N5  UNL     1      16.970  -0.208  51.871  1.00  0.00    -0.413 N 
HETATM   20  C17 UNL     1      17.057  -0.941  53.068  1.00  0.00     0.119 C 
HETATM   21  C18 UNL     1      18.458  -1.521  53.296  1.00  0.00     0.047 C 
BRANCH  19  22
HETATM   22  C15 UNL     1      16.580  -0.920  50.697  1.00  0.00     0.112 C 
HETATM   23  C16 UNL     1      16.763  -0.226  49.394  1.00  0.00     0.026 C 
ENDBRANCH  19  22
ENDBRANCH  14  16
ENDBRANCH   7  11
BRANCH  10  24
HETATM   24  N7  UNL     1      26.557  -1.635  53.617  1.00  0.00    -0.394 N 
HETATM   25  H24 UNL     1      27.078  -1.885  54.484  1.00  0.00     0.152 HD
HETATM   26  H25 UNL     1      26.984  -2.277  54.022  1.00  0.00     0.152 HD
ENDBRANCH  10  24
BRANCH   1  27
HETATM   27  C4  UNL     1      23.202   2.596  50.586  1.00  0.00     0.015 C 
BRANCH  27  28
HETATM   28  C3  UNL     1      22.399   1.551  50.035  1.00  0.00     0.051 C 
BRANCH  28  29
HETATM   29  C2  UNL     1      21.248   1.968  49.473  1.00  0.00    -0.155 C 
HETATM   30  C1  UNL     1      20.211   2.042  48.640  1.00  0.00     0.096 C 
ENDBRANCH  28  29
ENDBRANCH  27  28
ENDBRANCH   1  27
TORSDOF 9
ENDMDL
MODEL 6
REMARK VINA RESULT:      -7.6      1.887      3.794
REMARK  9 active torsions:
REMARK  status: ('A' for Active; 'I' for Inactive)
REMARK    1  A    between atoms: C2_2  and  C3_3 
REMARK    2  A    between atoms: C3_3  and  C4_4 
REMARK    3  A    between atoms: C4_4  and  C5_5 
REMARK    4  A    between atoms: C9_11  and  C10_12 
REMARK    5  A    between atoms: C9_11  and  C21_27 
REMARK    6  A    between atoms: N4_15  and  C12_16 
REMARK    7  A    between atoms: N5_19  and  C15_20 
REMARK    8  A    between atoms: N6_26  and  C21_27 
REMARK    9  A    between atoms: C21_27  and  N7_28 
ROOT
HETATM    1  C5  UNL     1      23.126  -0.562  54.184  1.00  0.00    -0.015 C 
HETATM    2  C6  UNL     1      23.517  -1.411  55.309  1.00  0.00     0.185 C 
HETATM    3  N1  UNL     1      24.947  -1.305  55.657  1.00  0.00    -0.300 NA
HETATM    4  C7  UNL     1      25.839  -0.413  55.148  1.00  0.00     0.100 C 
HETATM    5  C8  UNL     1      26.210   0.840  54.262  1.00  0.00     0.087 A 
HETATM    6  N2  UNL     1      25.001   0.773  53.495  1.00  0.00     0.000 N 
HETATM    7  C9  UNL     1      24.461   1.363  52.445  1.00  0.00     0.291 A 
HETATM    8  C20 UNL     1      23.732   0.353  53.109  1.00  0.00     0.277 A 
HETATM    9  N6  UNL     1      24.963   1.161  53.048  1.00  0.00     0.164 N 
HETATM   10  C21 UNL     1      25.884   1.424  53.377  1.00  0.00     0.288 A 
ENDROOT
BRANCH   7  11
HETATM   11  C10 UNL     1      23.805   2.101  51.147  1.00  0.00     0.025 A 
HETATM   12  C11 UNL     1      22.774   1.709  50.299  1.00  0.00     0.150 A 
HETATM   13  N3  UNL     1      22.835   2.723  49.495  1.00  0.00    -0.184 NA
HETATM   14  N4  UNL     1      23.683   3.640  49.678  1.00  0.00    -0.276 N 
HETATM   15  C19 UNL     1      24.387   3.369  50.735  1.00  0.00     0.124 A 
BRANCH  14  16
HETATM   16  C12 UNL     1      24.130   4.874  49.121  1.00  0.00     0.112 C 
HETATM   17  C13 UNL     1      23.540   6.043  49.884  1.00  0.00     0.047 C 
HETATM   18  C14 UNL     1      24.120   7.366  49.547  1.00  0.00     0.119 C 
HETATM   19  N5  UNL     1      25.491   7.422  49.131  1.00  0.00    -0.413 N 
HETATM   20  C17 UNL     1      25.999   6.266  48.512  1.00  0.00     0.119 C 
HETATM   21  C18 UNL     1      25.647   4.989  49.285  1.00  0.00     0.047 C 
BRANCH  19  22
HETATM   22  C15 UNL     1      26.334   8.077  50.079  1.00  0.00     0.112 C 
HETATM   23  C16 UNL     1      26.772   9.460  49.749  1.00  0.00     0.026 C 
ENDBRANCH  19  22
ENDBRANCH  14  16
ENDBRANCH   7  11
BRANCH  10  24
HETATM   24  N7  UNL     1      27.137   2.439  53.256  1.00  0.00    -0.394 N 
HETATM   25  H24 UNL     1      27.267   3.457  53.077  1.00  0.00     0.152 HD
HETATM   26  H25 UNL     1      27.731   3.070  53.180  1.00  0.00     0.152 HD
ENDBRANCH  10  24
BRANCH   1  27
HETATM   27  C4  UNL     1      21.750  -0.476  54.167  1.00  0.00     0.015 C 
BRANCH  27  28
HETATM   28  C3  UNL     1      21.072   0.556  53.449  1.00  0.00     0.051 C 
BRANCH  28  29
HETATM   29  C2  UNL     1      20.077   0.121  52.651  1.00  0.00    -0.155 C 
HETATM   30  C1  UNL     1      18.854  -0.191  52.224  1.00  0.00     0.096 C 
ENDBRANCH  28  29
ENDBRANCH  27  28
ENDBRANCH   1  27
TORSDOF 9
ENDMDL
MODEL 7
REMARK VINA RESULT:      -7.6      1.543      2.219
REMARK  9 active torsions:
REMARK  status: ('A' for Active; 'I' for Inactive)
REMARK    1  A    between atoms: C2_2  and  C3_3 
REMARK    2  A    between atoms: C3_3  and  C4_4 
REMARK    3  A    between atoms: C4_4  and  C5_5 
REMARK    4  A    between atoms: C9_11  and  C10_12 
REMARK    5  A    between atoms: C9_11  and  C21_27 
REMARK    6  A    between atoms: N4_15  and  C12_16 
REMARK    7  A    between atoms: N5_19  and  C15_20 
REMARK    8  A    between atoms: N6_26  and  C21_27 
REMARK    9  A    between atoms: C21_27  and  N7_28 
ROOT
HETATM    1  C5  UNL     1      26.475   1.886  52.736  1.00  0.00    -0.015 C 
HETATM    2  C6  UNL     1      27.538   1.551  53.683  1.00  0.00     0.185 C 
HETATM    3  N1  UNL     1      27.118   0.598  54.727  1.00  0.00    -0.300 NA
HETATM    4  C7  UNL     1      25.938  -0.077  54.778  1.00  0.00     0.100 C 
HETATM    5  C8  UNL     1      24.546  -0.505  54.167  1.00  0.00     0.087 A 
HETATM    6  N2  UNL     1      24.521   0.578  53.227  1.00  0.00     0.000 N 
HETATM    7  C9  UNL     1      23.693   1.100  52.342  1.00  0.00     0.291 A 
HETATM    8  C20 UNL     1      24.970   1.677  52.504  1.00  0.00     0.277 A 
HETATM    9  N6  UNL     1      24.024   0.622  52.907  1.00  0.00     0.164 N 
HETATM   10  C21 UNL     1      23.753  -0.180  53.463  1.00  0.00     0.288 A 
ENDROOT
BRANCH   7  11
HETATM   11  C10 UNL     1      22.661   1.735  51.250  1.00  0.00     0.025 A 
HETATM   12  C11 UNL     1      21.713   1.129  50.432  1.00  0.00     0.150 A 
HETATM   13  N3  UNL     1      21.327   2.201  49.815  1.00  0.00    -0.184 NA
HETATM   14  N4  UNL     1      21.842   3.321  50.087  1.00  0.00    -0.276 N 
HETATM   15  C19 UNL     1      22.732   3.169  51.020  1.00  0.00     0.124 A 
BRANCH  14  16
HETATM   16  C12 UNL     1      21.777   4.696  49.719  1.00  0.00     0.112 C 
HETATM   17  C13 UNL     1      21.453   5.553  50.927  1.00  0.00     0.047 C 
HETATM   18  C14 UNL     1      21.596   7.014  50.715  1.00  0.00     0.119 C 
HETATM   19  N5  UNL     1      22.577   7.472  49.776  1.00  0.00    -0.413 N 
HETATM   20  C17 UNL     1      22.896   6.587  48.730  1.00  0.00     0.119 C 
HETATM   21  C18 UNL     1      23.152   5.160  49.233  1.00  0.00     0.047 C 
BRANCH  19  22
HETATM   22  C15 UNL     1      23.660   8.166  50.395  1.00  0.00     0.112 C 
HETATM   23  C16 UNL     1      24.812   8.530  49.528  1.00  0.00     0.026 C 
ENDBRANCH  19  22
ENDBRANCH  14  16
ENDBRANCH   7  11
BRANCH  10  24
HETATM   24  N7  UNL     1      22.663  -1.340  53.741  1.00  0.00    -0.394 N 
HETATM   25  H24 UNL     1      22.684  -2.338  54.040  1.00  0.00     0.152 HD
HETATM   26  H25 UNL     1      22.166  -2.031  53.925  1.00  0.00     0.152 HD
ENDBRANCH  10  24
BRANCH   1  27
HETATM   27  C4  UNL     1      27.050   2.489  51.638  1.00  0.00     0.015 C 
BRANCH  27  28
HETATM   28  C3  UNL     1      26.392   2.524  50.370  1.00  0.00     0.051 C 
BRANCH  28  29
HETATM   29  C2  UNL     1      26.607   3.648  49.659  1.00  0.00    -0.155 C 
HETATM   30  C1  UNL     1      27.235   4.585  48.951  1.00  0.00     0.096 C 
ENDBRANCH  28  29
ENDBRANCH  27  28
ENDBRANCH   1  27
TORSDOF 9
ENDMDL
MODEL 8
REMARK VINA RESULT:      -7.5      2.305      7.803
REMARK  9 active torsions:
REMARK  status: ('A' for Active; 'I' for Inactive)
REMARK    1  A    between atoms: C2_2  and  C3_3 
REMARK    2  A    between atoms: C3_3  and  C4_4 
REMARK    3  A    between atoms: C4_4  and  C5_5 
REMARK    4  A    between atoms: C9_11  and  C10_12 
REMARK    5  A    between atoms: C9_11  and  C21_27 
REMARK    6  A    between atoms: N4_15  and  C12_16 
REMARK    7  A    between atoms: N5_19  and  C15_20 
REMARK    8  A    between atoms: N6_26  and  C21_27 
REMARK    9  A    between atoms: C21_27  and  N7_28 
ROOT
HETATM    1  C5  UNL     1      22.865   5.879  48.267  1.00  0.00    -0.015 C 
HETATM    2  C6  UNL     1      23.013   7.141  47.541  1.00  0.00     0.185 C 
HETATM    3  N1  UNL     1      24.373   7.706  47.615  1.00  0.00    -0.300 NA
HETATM    4  C7  UNL     1      25.474   7.101  48.137  1.00  0.00     0.100 C 
HETATM    5  C8  UNL     1      26.216   5.859  48.770  1.00  0.00     0.087 A 
HETATM    6  N2  UNL     1      24.998   5.201  49.141  1.00  0.00     0.000 N 
HETATM    7  C9  UNL     1      24.616   4.132  49.815  1.00  0.00     0.291 A 
HETATM    8  C20 UNL     1      23.632   4.953  49.224  1.00  0.00     0.277 A 
HETATM    9  N6  UNL     1      25.066   4.700  49.451  1.00  0.00     0.164 N 
HETATM   10  C21 UNL     1      26.047   4.932  49.356  1.00  0.00     0.288 A 
ENDROOT
BRANCH   7  11
HETATM   11  C10 UNL     1      24.158   2.807  50.648  1.00  0.00     0.025 A 
HETATM   12  C11 UNL     1      22.926   2.169  50.739  1.00  0.00     0.150 A 
HETATM   13  N3  UNL     1      23.281   1.258  51.590  1.00  0.00    -0.184 NA
HETATM   14  N4  UNL     1      24.464   1.214  52.030  1.00  0.00    -0.276 N 
HETATM   15  C19 UNL     1      25.157   2.170  51.492  1.00  0.00     0.124 A 
BRANCH  14  16
HETATM   16  C12 UNL     1      25.297   0.471  52.916  1.00  0.00     0.112 C 
HETATM   17  C13 UNL     1      26.405  -0.218  52.145  1.00  0.00     0.047 C 
HETATM   18  C14 UNL     1      27.469  -0.822  52.985  1.00  0.00     0.119 C 
HETATM   19  N5  UNL     1      27.769  -0.210  54.246  1.00  0.00    -0.413 N 
HETATM   20  C17 UNL     1      26.716   0.492  54.862  1.00  0.00     0.119 C 
HETATM   21  C18 UNL     1      25.992   1.428  53.886  1.00  0.00     0.047 C 
BRANCH  19  22
HETATM   22  C15 UNL     1      29.062   0.394  54.279  1.00  0.00     0.112 C 
HETATM   23  C16 UNL     1      30.142  -0.281  53.512  1.00  0.00     0.026 C 
ENDBRANCH  19  22
ENDBRANCH  14  16
ENDBRANCH   7  11
BRANCH  10  24
HETATM   24  N7  UNL     1      27.583   4.489  49.596  1.00  0.00    -0.394 N 
HETATM   25  H24 UNL     1      28.127   4.041  50.363  1.00  0.00     0.152 HD
HETATM   26  H25 UNL     1      28.373   4.206  49.827  1.00  0.00     0.152 HD
ENDBRANCH  10  24
BRANCH   1  27
HETATM   27  C4  UNL     1      21.693   5.281  47.857  1.00  0.00     0.015 C 
BRANCH  27  28
HETATM   28  C3  UNL     1      21.620   4.522  46.649  1.00  0.00     0.051 C 
BRANCH  28  29
HETATM   29  C2  UNL     1      21.912   3.215  46.792  1.00  0.00    -0.155 C 
HETATM   30  C1  UNL     1      22.389   2.083  47.308  1.00  0.00     0.096 C 
ENDBRANCH  28  29
ENDBRANCH  27  28
ENDBRANCH   1  27
TORSDOF 9
ENDMDL
MODEL 9
REMARK VINA RESULT:      -7.4      2.265      4.467
REMARK  9 active torsions:
REMARK  status: ('A' for Active; 'I' for Inactive)
REMARK    1  A    between atoms: C2_2  and  C3_3 
REMARK    2  A    between atoms: C3_3  and  C4_4 
REMARK    3  A    between atoms: C4_4  and  C5_5 
REMARK    4  A    between atoms: C9_11  and  C10_12 
REMARK    5  A    between atoms: C9_11  and  C21_27 
REMARK    6  A    between atoms: N4_15  and  C12_16 
REMARK    7  A    between atoms: N5_19  and  C15_20 
REMARK    8  A    between atoms: N6_26  and  C21_27 
REMARK    9  A    between atoms: C21_27  and  N7_28 
ROOT
HETATM    1  C5  UNL     1      23.974   0.181  53.166  1.00  0.00    -0.015 C 
HETATM    2  C6  UNL     1      23.941  -0.842  54.211  1.00  0.00     0.185 C 
HETATM    3  N1  UNL     1      25.214  -0.976  54.944  1.00  0.00    -0.300 NA
HETATM    4  C7  UNL     1      26.298  -0.161  54.838  1.00  0.00     0.100 C 
HETATM    5  C8  UNL     1      27.028   1.127  54.289  1.00  0.00     0.087 A 
HETATM    6  N2  UNL     1      26.089   1.319  53.222  1.00  0.00     0.000 N 
HETATM    7  C9  UNL     1      25.934   2.099  52.169  1.00  0.00     0.291 A 
HETATM    8  C20 UNL     1      24.950   1.127  52.449  1.00  0.00     0.277 A 
HETATM    9  N6  UNL     1      26.220   1.759  52.847  1.00  0.00     0.164 N 
HETATM   10  C21 UNL     1      27.029   1.852  53.449  1.00  0.00     0.288 A 
ENDROOT
BRANCH   7  11
HETATM   11  C10 UNL     1      25.753   3.071  50.872  1.00  0.00     0.025 A 
HETATM   12  C11 UNL     1      26.495   3.174  49.700  1.00  0.00     0.150 A 
HETATM   13  N3  UNL     1      25.830   4.156  49.177  1.00  0.00    -0.184 NA
HETATM   14  N4  UNL     1      24.848   4.665  49.786  1.00  0.00    -0.276 N 
HETATM   15  C19 UNL     1      24.675   4.047  50.914  1.00  0.00     0.124 A 
BRANCH  14  16
HETATM   16  C12 UNL     1      23.864   5.687  49.655  1.00  0.00     0.112 C 
HETATM   17  C13 UNL     1      23.028   5.461  48.411  1.00  0.00     0.047 C 
HETATM   18  C14 UNL     1      21.825   6.321  48.301  1.00  0.00     0.119 C 
HETATM   19  N5  UNL     1      21.181   6.748  49.508  1.00  0.00    -0.413 N 
HETATM   20  C17 UNL     1      22.001   6.848  50.647  1.00  0.00     0.119 C 
HETATM   21  C18 UNL     1      22.891   5.613  50.834  1.00  0.00     0.047 C 
BRANCH  19  22
HETATM   22  C15 UNL     1      19.888   6.168  49.686  1.00  0.00     0.112 C 
HETATM   23  C16 UNL     1      19.366   5.331  48.573  1.00  0.00     0.026 C 
ENDBRANCH  19  22
ENDBRANCH  14  16
ENDBRANCH   7  11
BRANCH  10  24
HETATM   24  N7  UNL     1      28.357   2.692  53.829  1.00  0.00    -0.394 N 
HETATM   25  H24 UNL     1      28.920   3.451  53.390  1.00  0.00     0.152 HD
HETATM   26  H25 UNL     1      29.052   3.205  53.935  1.00  0.00     0.152 HD
ENDBRANCH  10  24
BRANCH   1  27
HETATM   27  C4  UNL     1      22.676   0.457  52.791  1.00  0.00     0.015 C 
BRANCH  27  28
HETATM   28  C3  UNL     1      22.332   1.668  52.116  1.00  0.00     0.051 C 
BRANCH  28  29
HETATM   29  C2  UNL     1      21.820   1.493  50.882  1.00  0.00    -0.155 C 
HETATM   30  C1  UNL     1      21.480   0.908  49.733  1.00  0.00     0.096 C 
ENDBRANCH  28  29
ENDBRANCH  27  28
ENDBRANCH   1  27
TORSDOF 9
ENDMDL
