MODEL 1
REMARK VINA RESULT:      -9.0      0.000      0.000
REMARK  4 active torsions:
REMARK  status: ('A' for Active; 'I' for Inactive)
REMARK    1  A    between atoms: C2_2  and  C3_3 
REMARK    2  A    between atoms: C4_4  and  O1_5 
REMARK    3  A    between atoms: C9_12  and  N3_13 
REMARK    4  A    between atoms: C12_16  and  O2_17 
ROOT
HETATM    1  C3  UNL     1      18.647  -0.402  52.689  1.00  0.00     0.061 A 
HETATM    2  C4  UNL     1      19.264  -1.266  53.470  1.00  0.00     0.092 A 
HETATM    3  C5  UNL     1      20.664  -1.121  53.826  1.00  0.00     0.050 A 
HETATM    4  C6  UNL     1      21.395  -0.132  53.400  1.00  0.00     0.002 A 
HETATM    5  C7  UNL     1      22.696  -0.434  54.023  1.00  0.00     0.097 A 
HETATM    6  N1  UNL     1      22.442  -1.200  55.125  1.00  0.00    -0.239 NA
HETATM    7  C8  UNL     1      23.500  -1.591  55.855  1.00  0.00     0.236 A 
HETATM    8  N2  UNL     1      24.805  -1.288  55.590  1.00  0.00    -0.222 NA
HETATM    9  C9  UNL     1      25.063  -0.522  54.488  1.00  0.00     0.160 A 
HETATM   10  C15 UNL     1      24.011  -0.076  53.676  1.00  0.00     0.104 A 
HETATM   11  N4  UNL     1      24.637   0.657  52.624  1.00  0.00    -0.382 N 
HETATM   12  C16 UNL     1      24.177   1.720  51.758  1.00  0.00     0.147 C 
HETATM   13  C17 UNL     1      22.938   1.339  51.029  1.00  0.00    -0.009 C 
HETATM   14  C18 UNL     1      21.663   1.033  51.270  1.00  0.00     0.000 C 
HETATM   15  C19 UNL     1      20.860   0.936  52.517  1.00  0.00     0.140 A 
HETATM   16  N5  UNL     1      19.491   0.643  52.256  1.00  0.00    -0.376 N 
HETATM   17  H13 UNL     1      25.598   0.247  52.563  1.00  0.00     0.160 HD
HETATM   18  H19 UNL     1      19.210   1.415  51.632  1.00  0.00     0.160 HD
ENDROOT
BRANCH   9  19
HETATM   19  N3  UNL     1      26.418  -0.182  54.240  1.00  0.00    -0.336 N 
HETATM   20  C10 UNL     1      27.080  -1.236  53.510  1.00  0.00     0.096 A 
HETATM   21  C11 UNL     1      28.358  -1.136  53.148  1.00  0.00     0.053 A 
HETATM   22  C12 UNL     1      29.157   0.038  53.469  1.00  0.00     0.064 A 
HETATM   23  C13 UNL     1      28.528   1.005  54.150  1.00  0.00     0.029 A 
HETATM   24  C14 UNL     1      27.118   1.030  54.619  1.00  0.00     0.160 A 
BRANCH  22  25
HETATM   25  O2  UNL     1      30.476   0.247  53.147  1.00  0.00    -0.361 OA
HETATM   26  H9  UNL     1      30.750   0.857  52.390  1.00  0.00     0.217 HD
ENDBRANCH  22  25
ENDBRANCH   9  19
BRANCH   2  27
HETATM   27  O1  UNL     1      18.529  -2.357  53.963  1.00  0.00    -0.358 OA
HETATM   28  H4  UNL     1      18.847  -3.310  53.766  1.00  0.00     0.217 HD
ENDBRANCH   2  27
BRANCH   1  29
HETATM   29  C2  UNL     1      17.252  -0.516  52.314  1.00  0.00     0.022 C 
HETATM   30  C1  UNL     1      16.627  -0.363  51.164  1.00  0.00     0.013 C 
ENDBRANCH   1  29
TORSDOF 4
ENDMDL
MODEL 2
REMARK VINA RESULT:      -8.0      2.339      7.687
REMARK  4 active torsions:
REMARK  status: ('A' for Active; 'I' for Inactive)
REMARK    1  A    between atoms: C2_2  and  C3_3 
REMARK    2  A    between atoms: C4_4  and  O1_5 
REMARK    3  A    between atoms: C9_12  and  N3_13 
REMARK    4  A    between atoms: C12_16  and  O2_17 
ROOT
HETATM    1  C3  UNL     1      27.490   0.327  53.589  1.00  0.00     0.061 A 
HETATM    2  C4  UNL     1      26.506  -0.011  54.397  1.00  0.00     0.092 A 
HETATM    3  C5  UNL     1      25.114   0.072  53.993  1.00  0.00     0.050 A 
HETATM    4  C6  UNL     1      24.751   0.482  52.812  1.00  0.00     0.002 A 
HETATM    5  C7  UNL     1      23.283   0.385  52.900  1.00  0.00     0.097 A 
HETATM    6  N1  UNL     1      23.002  -0.547  53.859  1.00  0.00    -0.239 NA
HETATM    7  C8  UNL     1      21.706  -0.801  54.104  1.00  0.00     0.236 A 
HETATM    8  N2  UNL     1      20.647  -0.208  53.478  1.00  0.00    -0.222 NA
HETATM    9  C9  UNL     1      20.924   0.724  52.519  1.00  0.00     0.160 A 
HETATM   10  C15 UNL     1      22.253   1.045  52.207  1.00  0.00     0.104 A 
HETATM   11  N4  UNL     1      22.168   2.055  51.204  1.00  0.00    -0.382 N 
HETATM   12  C16 UNL     1      23.070   2.479  50.156  1.00  0.00     0.147 C 
HETATM   13  C17 UNL     1      24.408   2.842  50.695  1.00  0.00    -0.009 C 
HETATM   14  C18 UNL     1      25.447   2.282  51.314  1.00  0.00     0.000 C 
HETATM   15  C19 UNL     1      25.730   0.897  51.775  1.00  0.00     0.140 A 
HETATM   16  N5  UNL     1      27.035   0.767  52.328  1.00  0.00    -0.376 N 
HETATM   17  H13 UNL     1      21.238   2.505  51.372  1.00  0.00     0.160 HD
HETATM   18  H19 UNL     1      27.640   1.088  51.556  1.00  0.00     0.160 HD
ENDROOT
BRANCH   9  19
HETATM   19  N3  UNL     1      19.819   1.309  51.847  1.00  0.00    -0.336 N 
HETATM   20  C10 UNL     1      19.214   0.360  50.944  1.00  0.00     0.096 A 
HETATM   21  C11 UNL     1      18.147   0.677  50.213  1.00  0.00     0.053 A 
HETATM   22  C12 UNL     1      17.534   1.995  50.281  1.00  0.00     0.064 A 
HETATM   23  C13 UNL     1      18.110   2.865  51.122  1.00  0.00     0.029 A 
HETATM   24  C14 UNL     1      19.296   2.653  51.993  1.00  0.00     0.160 A 
BRANCH  22  25
HETATM   25  O2  UNL     1      16.438   2.430  49.577  1.00  0.00    -0.361 OA
HETATM   26  H9  UNL     1      16.529   2.929  48.703  1.00  0.00     0.217 HD
ENDBRANCH  22  25
ENDBRANCH   9  19
BRANCH   2  27
HETATM   27  O1  UNL     1      26.831  -0.463  55.687  1.00  0.00    -0.358 OA
HETATM   28  H4  UNL     1      27.466  -1.259  55.797  1.00  0.00     0.217 HD
ENDBRANCH   2  27
BRANCH   1  29
HETATM   29  C2  UNL     1      28.889   0.256  53.959  1.00  0.00     0.022 C 
HETATM   30  C1  UNL     1      29.818  -0.655  53.749  1.00  0.00     0.013 C 
ENDBRANCH   1  29
TORSDOF 4
ENDMDL
MODEL 3
REMARK VINA RESULT:      -7.9      2.001      2.833
REMARK  4 active torsions:
REMARK  status: ('A' for Active; 'I' for Inactive)
REMARK    1  A    between atoms: C2_2  and  C3_3 
REMARK    2  A    between atoms: C4_4  and  O1_5 
REMARK    3  A    between atoms: C9_12  and  N3_13 
REMARK    4  A    between atoms: C12_16  and  O2_17 
ROOT
HETATM    1  C3  UNL     1      16.577  -1.382  52.497  1.00  0.00     0.061 A 
HETATM    2  C4  UNL     1      17.465  -2.044  53.210  1.00  0.00     0.092 A 
HETATM    3  C5  UNL     1      18.837  -1.589  53.349  1.00  0.00     0.050 A 
HETATM    4  C6  UNL     1      19.274  -0.502  52.783  1.00  0.00     0.002 A 
HETATM    5  C7  UNL     1      20.681  -0.484  53.217  1.00  0.00     0.097 A 
HETATM    6  N1  UNL     1      20.751  -1.209  54.374  1.00  0.00    -0.239 NA
HETATM    7  C8  UNL     1      21.957  -1.321  54.953  1.00  0.00     0.236 A 
HETATM    8  N2  UNL     1      23.119  -0.774  54.487  1.00  0.00    -0.222 NA
HETATM    9  C9  UNL     1      23.053  -0.049  53.331  1.00  0.00     0.160 A 
HETATM   10  C15 UNL     1      21.829   0.113  52.666  1.00  0.00     0.104 A 
HETATM   11  N4  UNL     1      22.134   0.885  51.507  1.00  0.00    -0.382 N 
HETATM   12  C16 UNL     1      21.343   1.769  50.678  1.00  0.00     0.147 C 
HETATM   13  C17 UNL     1      20.127   1.090  50.155  1.00  0.00    -0.009 C 
HETATM   14  C18 UNL     1      18.993   0.545  50.593  1.00  0.00     0.000 C 
HETATM   15  C19 UNL     1      18.406   0.369  51.948  1.00  0.00     0.140 A 
HETATM   16  N5  UNL     1      17.110  -0.218  51.904  1.00  0.00    -0.376 N 
HETATM   17  H13 UNL     1      23.143   0.680  51.320  1.00  0.00     0.160 HD
HETATM   18  H19 UNL     1      16.588   0.435  51.299  1.00  0.00     0.160 HD
ENDROOT
BRANCH   9  19
HETATM   19  N3  UNL     1      24.257   0.546  52.872  1.00  0.00    -0.336 N 
HETATM   20  C10 UNL     1      24.214   1.977  53.050  1.00  0.00     0.096 A 
HETATM   21  C11 UNL     1      25.241   2.753  52.705  1.00  0.00     0.053 A 
HETATM   22  C12 UNL     1      26.460   2.203  52.130  1.00  0.00     0.064 A 
HETATM   23  C13 UNL     1      26.481   0.872  51.969  1.00  0.00     0.029 A 
HETATM   24  C14 UNL     1      25.417  -0.111  52.303  1.00  0.00     0.160 A 
BRANCH  22  25
HETATM   25  O2  UNL     1      27.574   2.903  51.740  1.00  0.00    -0.361 OA
HETATM   26  H9  UNL     1      27.563   3.908  51.633  1.00  0.00     0.217 HD
ENDBRANCH  22  25
ENDBRANCH   9  19
BRANCH   2  27
HETATM   27  O1  UNL     1      17.056  -3.227  53.848  1.00  0.00    -0.358 OA
HETATM   28  H4  UNL     1      17.371  -3.420  54.803  1.00  0.00     0.217 HD
ENDBRANCH   2  27
BRANCH   1  29
HETATM   29  C2  UNL     1      15.201  -1.808  52.337  1.00  0.00     0.022 C 
HETATM   30  C1  UNL     1      14.482  -2.106  51.273  1.00  0.00     0.013 C 
ENDBRANCH   1  29
TORSDOF 4
ENDMDL
MODEL 4
REMARK VINA RESULT:      -7.9      1.612      2.980
REMARK  4 active torsions:
REMARK  status: ('A' for Active; 'I' for Inactive)
REMARK    1  A    between atoms: C2_2  and  C3_3 
REMARK    2  A    between atoms: C4_4  and  O1_5 
REMARK    3  A    between atoms: C9_12  and  N3_13 
REMARK    4  A    between atoms: C12_16  and  O2_17 
ROOT
HETATM    1  C3  UNL     1      18.463  -0.784  53.026  1.00  0.00     0.061 A 
HETATM    2  C4  UNL     1      18.912   0.237  52.325  1.00  0.00     0.092 A 
HETATM    3  C5  UNL     1      20.330   0.517  52.192  1.00  0.00     0.050 A 
HETATM    4  C6  UNL     1      21.244  -0.220  52.753  1.00  0.00     0.002 A 
HETATM    5  C7  UNL     1      22.479   0.462  52.329  1.00  0.00     0.097 A 
HETATM    6  N1  UNL     1      22.186   1.139  51.179  1.00  0.00    -0.239 NA
HETATM    7  C8  UNL     1      23.183   1.837  50.610  1.00  0.00     0.236 A 
HETATM    8  N2  UNL     1      24.461   1.928  51.080  1.00  0.00    -0.222 NA
HETATM    9  C9  UNL     1      24.758   1.252  52.229  1.00  0.00     0.160 A 
HETATM   10  C15 UNL     1      23.771   0.501  52.884  1.00  0.00     0.104 A 
HETATM   11  N4  UNL     1      24.413  -0.034  54.039  1.00  0.00    -0.382 N 
HETATM   12  C16 UNL     1      24.158  -1.201  54.855  1.00  0.00     0.147 C 
HETATM   13  C17 UNL     1      22.763  -1.215  55.374  1.00  0.00    -0.009 C 
HETATM   14  C18 UNL     1      21.509  -1.293  54.931  1.00  0.00     0.000 C 
HETATM   15  C19 UNL     1      20.915  -1.414  53.574  1.00  0.00     0.140 A 
HETATM   16  N5  UNL     1      19.498  -1.542  53.613  1.00  0.00    -0.376 N 
HETATM   17  H13 UNL     1      25.190   0.639  54.235  1.00  0.00     0.160 HD
HETATM   18  H19 UNL     1      19.363  -2.373  54.209  1.00  0.00     0.160 HD
ENDROOT
BRANCH   9  19
HETATM   19  N3  UNL     1      26.098   1.321  52.692  1.00  0.00    -0.336 N 
HETATM   20  C10 UNL     1      26.786   0.078  52.441  1.00  0.00     0.096 A 
HETATM   21  C11 UNL     1      28.064  -0.091  52.776  1.00  0.00     0.053 A 
HETATM   22  C12 UNL     1      28.837   0.965  53.414  1.00  0.00     0.064 A 
HETATM   23  C13 UNL     1      28.181   2.111  53.643  1.00  0.00     0.029 A 
HETATM   24  C14 UNL     1      26.766   2.439  53.328  1.00  0.00     0.160 A 
BRANCH  22  25
HETATM   25  O2  UNL     1      30.153   0.903  53.800  1.00  0.00    -0.361 OA
HETATM   26  H9  UNL     1      30.902   1.197  53.190  1.00  0.00     0.217 HD
ENDBRANCH  22  25
ENDBRANCH   9  19
BRANCH   2  27
HETATM   27  O1  UNL     1      17.975   1.073  51.693  1.00  0.00    -0.358 OA
HETATM   28  H4  UNL     1      18.027   1.214  50.680  1.00  0.00     0.217 HD
ENDBRANCH   2  27
BRANCH   1  29
HETATM   29  C2  UNL     1      17.055  -1.092  53.179  1.00  0.00     0.022 C 
HETATM   30  C1  UNL     1      16.209  -1.773  52.433  1.00  0.00     0.013 C 
ENDBRANCH   1  29
TORSDOF 4
ENDMDL
MODEL 5
REMARK VINA RESULT:      -7.7      2.556      3.985
REMARK  4 active torsions:
REMARK  status: ('A' for Active; 'I' for Inactive)
REMARK    1  A    between atoms: C2_2  and  C3_3 
REMARK    2  A    between atoms: C4_4  and  O1_5 
REMARK    3  A    between atoms: C9_12  and  N3_13 
REMARK    4  A    between atoms: C12_16  and  O2_17 
ROOT
HETATM    1  C3  UNL     1      19.489   3.158  51.616  1.00  0.00     0.061 A 
HETATM    2  C4  UNL     1      20.543   3.873  51.280  1.00  0.00     0.092 A 
HETATM    3  C5  UNL     1      21.888   3.330  51.323  1.00  0.00     0.050 A 
HETATM    4  C6  UNL     1      22.138   2.107  51.693  1.00  0.00     0.002 A 
HETATM    5  C7  UNL     1      23.605   2.051  51.567  1.00  0.00     0.097 A 
HETATM    6  N1  UNL     1      23.964   3.003  50.656  1.00  0.00    -0.239 NA
HETATM    7  C8  UNL     1      25.273   3.125  50.381  1.00  0.00     0.236 A 
HETATM    8  N2  UNL     1      26.275   2.379  50.934  1.00  0.00    -0.222 NA
HETATM    9  C9  UNL     1      25.920   1.426  51.845  1.00  0.00     0.160 A 
HETATM   10  C15 UNL     1      24.572   1.239  52.186  1.00  0.00     0.104 A 
HETATM   11  N4  UNL     1      24.575   0.203  53.166  1.00  0.00    -0.382 N 
HETATM   12  C16 UNL     1      23.580  -0.762  53.580  1.00  0.00     0.147 C 
HETATM   13  C17 UNL     1      22.309  -0.102  53.986  1.00  0.00    -0.009 C 
HETATM   14  C18 UNL     1      21.328   0.634  53.465  1.00  0.00     0.000 C 
HETATM   15  C19 UNL     1      21.067   1.161  52.099  1.00  0.00     0.140 A 
HETATM   16  N5  UNL     1      19.822   1.845  52.012  1.00  0.00    -0.376 N 
HETATM   17  H13 UNL     1      25.525   0.264  53.600  1.00  0.00     0.160 HD
HETATM   18  H19 UNL     1      19.149   1.129  52.324  1.00  0.00     0.160 HD
ENDROOT
BRANCH   9  19
HETATM   19  N3  UNL     1      26.962   0.630  52.388  1.00  0.00    -0.336 N 
HETATM   20  C10 UNL     1      27.950   1.461  53.033  1.00  0.00     0.096 A 
HETATM   21  C11 UNL     1      29.019   0.935  53.631  1.00  0.00     0.053 A 
HETATM   22  C12 UNL     1      29.250  -0.501  53.666  1.00  0.00     0.064 A 
HETATM   23  C13 UNL     1      28.325  -1.257  53.059  1.00  0.00     0.029 A 
HETATM   24  C14 UNL     1      27.093  -0.813  52.356  1.00  0.00     0.160 A 
BRANCH  22  25
HETATM   25  O2  UNL     1      30.310  -1.149  54.250  1.00  0.00    -0.361 OA
HETATM   26  H9  UNL     1      30.401  -2.155  54.224  1.00  0.00     0.217 HD
ENDBRANCH  22  25
ENDBRANCH   9  19
BRANCH   2  27
HETATM   27  O1  UNL     1      20.341   5.202  50.870  1.00  0.00    -0.358 OA
HETATM   28  H4  UNL     1      20.008   5.893  51.548  1.00  0.00     0.217 HD
ENDBRANCH   2  27
BRANCH   1  29
HETATM   29  C2  UNL     1      18.133   3.668  51.585  1.00  0.00     0.022 C 
HETATM   30  C1  UNL     1      17.114   3.434  50.782  1.00  0.00     0.013 C 
ENDBRANCH   1  29
TORSDOF 4
ENDMDL
MODEL 6
REMARK VINA RESULT:      -7.7      2.590      8.212
REMARK  4 active torsions:
REMARK  status: ('A' for Active; 'I' for Inactive)
REMARK    1  A    between atoms: C2_2  and  C3_3 
REMARK    2  A    between atoms: C4_4  and  O1_5 
REMARK    3  A    between atoms: C9_12  and  N3_13 
REMARK    4  A    between atoms: C12_16  and  O2_17 
ROOT
HETATM    1  C3  UNL     1      27.487   0.634  53.930  1.00  0.00     0.061 A 
HETATM    2  C4  UNL     1      27.320   1.654  53.113  1.00  0.00     0.092 A 
HETATM    3  C5  UNL     1      26.003   2.112  52.710  1.00  0.00     0.050 A 
HETATM    4  C6  UNL     1      24.907   1.549  53.129  1.00  0.00     0.002 A 
HETATM    5  C7  UNL     1      23.878   2.358  52.454  1.00  0.00     0.097 A 
HETATM    6  N1  UNL     1      24.439   3.575  52.188  1.00  0.00    -0.239 NA
HETATM    7  C8  UNL     1      23.665   4.483  51.570  1.00  0.00     0.236 A 
HETATM    8  N2  UNL     1      22.368   4.294  51.187  1.00  0.00    -0.222 NA
HETATM    9  C9  UNL     1      21.804   3.078  51.452  1.00  0.00     0.160 A 
HETATM   10  C15 UNL     1      22.548   2.078  52.093  1.00  0.00     0.104 A 
HETATM   11  N4  UNL     1      21.671   0.957  52.179  1.00  0.00    -0.382 N 
HETATM   12  C16 UNL     1      21.607  -0.176  53.076  1.00  0.00     0.147 C 
HETATM   13  C17 UNL     1      22.893  -0.923  53.110  1.00  0.00    -0.009 C 
HETATM   14  C18 UNL     1      24.165  -0.753  53.471  1.00  0.00     0.000 C 
HETATM   15  C19 UNL     1      24.911   0.390  54.060  1.00  0.00     0.140 A 
HETATM   16  N5  UNL     1      26.266   0.062  54.346  1.00  0.00    -0.376 N 
HETATM   17  H13 UNL     1      21.001   1.094  51.387  1.00  0.00     0.160 HD
HETATM   18  H19 UNL     1      26.173  -0.751  54.975  1.00  0.00     0.160 HD
ENDROOT
BRANCH   9  19
HETATM   19  N3  UNL     1      20.445   2.902  51.083  1.00  0.00    -0.336 N 
HETATM   20  C10 UNL     1      20.339   2.559  49.685  1.00  0.00     0.096 A 
HETATM   21  C11 UNL     1      19.159   2.330  49.112  1.00  0.00     0.053 A 
HETATM   22  C12 UNL     1      17.913   2.413  49.859  1.00  0.00     0.064 A 
HETATM   23  C13 UNL     1      18.029   2.736  51.155  1.00  0.00     0.029 A 
HETATM   24  C14 UNL     1      19.270   3.020  51.923  1.00  0.00     0.160 A 
BRANCH  22  25
HETATM   25  O2  UNL     1      16.646   2.198  49.374  1.00  0.00    -0.361 OA
HETATM   26  H9  UNL     1      15.942   1.716  49.916  1.00  0.00     0.217 HD
ENDBRANCH  22  25
ENDBRANCH   9  19
BRANCH   2  27
HETATM   27  O1  UNL     1      28.465   2.307  52.624  1.00  0.00    -0.358 OA
HETATM   28  H4  UNL     1      29.227   1.755  52.221  1.00  0.00     0.217 HD
ENDBRANCH   2  27
BRANCH   1  29
HETATM   29  C2  UNL     1      28.786   0.151  54.352  1.00  0.00     0.022 C 
HETATM   30  C1  UNL     1      29.630  -0.708  53.818  1.00  0.00     0.013 C 
ENDBRANCH   1  29
TORSDOF 4
ENDMDL
MODEL 7
REMARK VINA RESULT:      -7.5      3.451      7.850
REMARK  4 active torsions:
REMARK  status: ('A' for Active; 'I' for Inactive)
REMARK    1  A    between atoms: C2_2  and  C3_3 
REMARK    2  A    between atoms: C4_4  and  O1_5 
REMARK    3  A    between atoms: C9_12  and  N3_13 
REMARK    4  A    between atoms: C12_16  and  O2_17 
ROOT
HETATM    1  C3  UNL     1      27.310  -0.121  53.261  1.00  0.00     0.061 A 
HETATM    2  C4  UNL     1      26.205  -0.060  53.976  1.00  0.00     0.092 A 
HETATM    3  C5  UNL     1      24.995   0.565  53.472  1.00  0.00     0.050 A 
HETATM    4  C6  UNL     1      24.924   1.100  52.288  1.00  0.00     0.002 A 
HETATM    5  C7  UNL     1      23.532   1.582  52.260  1.00  0.00     0.097 A 
HETATM    6  N1  UNL     1      22.830   0.820  53.150  1.00  0.00    -0.239 NA
HETATM    7  C8  UNL     1      21.520   1.088  53.285  1.00  0.00     0.236 A 
HETATM    8  N2  UNL     1      20.833   2.055  52.609  1.00  0.00    -0.222 NA
HETATM    9  C9  UNL     1      21.532   2.818  51.718  1.00  0.00     0.160 A 
HETATM   10  C15 UNL     1      22.903   2.600  51.523  1.00  0.00     0.104 A 
HETATM   11  N4  UNL     1      23.304   3.577  50.564  1.00  0.00    -0.382 N 
HETATM   12  C16 UNL     1      24.388   3.630  49.608  1.00  0.00     0.147 C 
HETATM   13  C17 UNL     1      25.710   3.435  50.263  1.00  0.00    -0.009 C 
HETATM   14  C18 UNL     1      26.392   2.506  50.932  1.00  0.00     0.000 C 
HETATM   15  C19 UNL     1      26.075   1.114  51.348  1.00  0.00     0.140 A 
HETATM   16  N5  UNL     1      27.174   0.478  51.991  1.00  0.00    -0.376 N 
HETATM   17  H13 UNL     1      22.610   4.351  50.682  1.00  0.00     0.160 HD
HETATM   18  H19 UNL     1      27.921   0.548  51.283  1.00  0.00     0.160 HD
ENDROOT
BRANCH   9  19
HETATM   19  N3  UNL     1      20.803   3.797  50.993  1.00  0.00    -0.336 N 
HETATM   20  C10 UNL     1      19.701   3.188  50.287  1.00  0.00     0.096 A 
HETATM   21  C11 UNL     1      18.863   3.913  49.548  1.00  0.00     0.053 A 
HETATM   22  C12 UNL     1      19.011   5.354  49.408  1.00  0.00     0.064 A 
HETATM   23  C13 UNL     1      20.041   5.902  50.067  1.00  0.00     0.029 A 
HETATM   24  C14 UNL     1      21.051   5.223  50.921  1.00  0.00     0.160 A 
BRANCH  22  25
HETATM   25  O2  UNL     1      18.211   6.196  48.676  1.00  0.00    -0.361 OA
HETATM   26  H9  UNL     1      18.232   7.198  48.805  1.00  0.00     0.217 HD
ENDBRANCH  22  25
ENDBRANCH   9  19
BRANCH   2  27
HETATM   27  O1  UNL     1      26.215  -0.620  55.264  1.00  0.00    -0.358 OA
HETATM   28  H4  UNL     1      27.007  -0.437  55.888  1.00  0.00     0.217 HD
ENDBRANCH   2  27
BRANCH   1  29
HETATM   29  C2  UNL     1      28.534  -0.737  53.732  1.00  0.00     0.022 C 
HETATM   30  C1  UNL     1      29.726  -0.246  54.007  1.00  0.00     0.013 C 
ENDBRANCH   1  29
TORSDOF 4
ENDMDL
MODEL 8
REMARK VINA RESULT:      -7.5      1.908      2.803
REMARK  4 active torsions:
REMARK  status: ('A' for Active; 'I' for Inactive)
REMARK    1  A    between atoms: C2_2  and  C3_3 
REMARK    2  A    between atoms: C4_4  and  O1_5 
REMARK    3  A    between atoms: C9_12  and  N3_13 
REMARK    4  A    between atoms: C12_16  and  O2_17 
ROOT
HETATM    1  C3  UNL     1      17.229   0.580  49.787  1.00  0.00     0.061 A 
HETATM    2  C4  UNL     1      17.544  -0.142  50.843  1.00  0.00     0.092 A 
HETATM    3  C5  UNL     1      18.818   0.003  51.524  1.00  0.00     0.050 A 
HETATM    4  C6  UNL     1      19.725   0.853  51.138  1.00  0.00     0.002 A 
HETATM    5  C7  UNL     1      20.794   0.618  52.125  1.00  0.00     0.097 A 
HETATM    6  N1  UNL     1      20.199   0.097  53.239  1.00  0.00    -0.239 NA
HETATM    7  C8  UNL     1      20.998  -0.193  54.280  1.00  0.00     0.236 A 
HETATM    8  N2  UNL     1      22.351  -0.012  54.319  1.00  0.00    -0.222 NA
HETATM    9  C9  UNL     1      22.949   0.510  53.207  1.00  0.00     0.160 A 
HETATM   10  C15 UNL     1      22.182   0.837  52.079  1.00  0.00     0.104 A 
HETATM   11  N4  UNL     1      23.118   1.318  51.118  1.00  0.00    -0.382 N 
HETATM   12  C16 UNL     1      22.996   2.211  49.986  1.00  0.00     0.147 C 
HETATM   13  C17 UNL     1      21.947   1.754  49.036  1.00  0.00    -0.009 C 
HETATM   14  C18 UNL     1      20.629   1.563  48.983  1.00  0.00     0.000 C 
HETATM   15  C19 UNL     1      19.534   1.751  49.970  1.00  0.00     0.140 A 
HETATM   16  N5  UNL     1      18.252   1.478  49.414  1.00  0.00    -0.376 N 
HETATM   17  H13 UNL     1      24.020   0.859  51.386  1.00  0.00     0.160 HD
HETATM   18  H19 UNL     1      18.212   2.124  48.611  1.00  0.00     0.160 HD
ENDROOT
BRANCH   9  19
HETATM   19  N3  UNL     1      24.350   0.730  53.268  1.00  0.00    -0.336 N 
HETATM   20  C10 UNL     1      25.065  -0.512  53.103  1.00  0.00     0.096 A 
HETATM   21  C11 UNL     1      26.397  -0.555  53.109  1.00  0.00     0.053 A 
HETATM   22  C12 UNL     1      27.202   0.645  53.285  1.00  0.00     0.064 A 
HETATM   23  C13 UNL     1      26.522   1.788  53.441  1.00  0.00     0.029 A 
HETATM   24  C14 UNL     1      25.048   1.986  53.458  1.00  0.00     0.160 A 
BRANCH  22  25
HETATM   25  O2  UNL     1      28.573   0.718  53.308  1.00  0.00    -0.361 OA
HETATM   26  H9  UNL     1      29.121   0.743  52.459  1.00  0.00     0.217 HD
ENDBRANCH  22  25
ENDBRANCH   9  19
BRANCH   2  27
HETATM   27  O1  UNL     1      16.607  -1.079  51.311  1.00  0.00    -0.358 OA
HETATM   28  H4  UNL     1      15.745  -1.237  50.781  1.00  0.00     0.217 HD
ENDBRANCH   2  27
BRANCH   1  29
HETATM   29  C2  UNL     1      15.968   0.461  49.084  1.00  0.00     0.022 C 
HETATM   30  C1  UNL     1      14.857   1.170  49.127  1.00  0.00     0.013 C 
ENDBRANCH   1  29
TORSDOF 4
ENDMDL
MODEL 9
REMARK VINA RESULT:      -7.3      4.291      7.824
REMARK  4 active torsions:
REMARK  status: ('A' for Active; 'I' for Inactive)
REMARK    1  A    between atoms: C2_2  and  C3_3 
REMARK    2  A    between atoms: C4_4  and  O1_5 
REMARK    3  A    between atoms: C9_12  and  N3_13 
REMARK    4  A    between atoms: C12_16  and  O2_17 
ROOT
HETATM    1  C3  UNL     1      25.655   6.932  48.199  1.00  0.00     0.061 A 
HETATM    2  C4  UNL     1      26.460   6.234  48.974  1.00  0.00     0.092 A 
HETATM    3  C5  UNL     1      26.027   5.018  49.639  1.00  0.00     0.050 A 
HETATM    4  C6  UNL     1      24.823   4.541  49.512  1.00  0.00     0.002 A 
HETATM    5  C7  UNL     1      24.888   3.336  50.357  1.00  0.00     0.097 A 
HETATM    6  N1  UNL     1      26.201   2.964  50.420  1.00  0.00    -0.239 NA
HETATM    7  C8  UNL     1      26.493   1.872  51.146  1.00  0.00     0.236 A 
HETATM    8  N2  UNL     1      25.591   1.102  51.824  1.00  0.00    -0.222 NA
HETATM    9  C9  UNL     1      24.277   1.471  51.763  1.00  0.00     0.160 A 
HETATM   10  C15 UNL     1      23.893   2.601  51.026  1.00  0.00     0.104 A 
HETATM   11  N4  UNL     1      22.482   2.701  51.205  1.00  0.00    -0.382 N 
HETATM   12  C16 UNL     1      21.430   3.296  50.410  1.00  0.00     0.147 C 
HETATM   13  C17 UNL     1      21.700   4.732  50.127  1.00  0.00    -0.009 C 
HETATM   14  C18 UNL     1      22.576   5.498  49.478  1.00  0.00     0.000 C 
HETATM   15  C19 UNL     1      23.788   5.198  48.672  1.00  0.00     0.140 A 
HETATM   16  N5  UNL     1      24.364   6.369  48.104  1.00  0.00    -0.376 N 
HETATM   17  H13 UNL     1      22.305   2.224  52.119  1.00  0.00     0.160 HD
HETATM   18  H19 UNL     1      23.582   6.764  47.560  1.00  0.00     0.160 HD
ENDROOT
BRANCH   9  19
HETATM   19  N3  UNL     1      23.342   0.646  52.440  1.00  0.00    -0.336 N 
HETATM   20  C10 UNL     1      23.912   0.130  53.661  1.00  0.00     0.096 A 
HETATM   21  C11 UNL     1      23.215  -0.660  54.476  1.00  0.00     0.053 A 
HETATM   22  C12 UNL     1      21.843  -1.047  54.181  1.00  0.00     0.064 A 
HETATM   23  C13 UNL     1      21.331  -0.562  53.042  1.00  0.00     0.029 A 
HETATM   24  C14 UNL     1      21.987   0.321  52.042  1.00  0.00     0.160 A 
BRANCH  22  25
HETATM   25  O2  UNL     1      21.033  -1.851  54.945  1.00  0.00    -0.361 OA
HETATM   26  H9  UNL     1      20.864  -1.662  55.923  1.00  0.00     0.217 HD
ENDBRANCH  22  25
ENDBRANCH   9  19
BRANCH   2  27
HETATM   27  O1  UNL     1      27.775   6.695  49.152  1.00  0.00    -0.358 OA
HETATM   28  H4  UNL     1      27.945   7.520  49.735  1.00  0.00     0.217 HD
ENDBRANCH   2  27
BRANCH   1  29
HETATM   29  C2  UNL     1      26.053   8.149  47.521  1.00  0.00     0.022 C 
HETATM   30  C1  UNL     1      26.333   8.411  46.260  1.00  0.00     0.013 C 
ENDBRANCH   1  29
TORSDOF 4
ENDMDL
