MODEL 1
REMARK VINA RESULT:      -8.6      0.000      0.000
REMARK  8 active torsions:
REMARK  status: ('A' for Active; 'I' for Inactive)
REMARK    1  A    between atoms: C2_4  and  C3_5 
REMARK       I    between atoms: C3_5  and  N3_6 
REMARK    2  A    between atoms: C4_8  and  C5_9 
REMARK    3  A    between atoms: C5_9  and  C6_10 
REMARK    4  A    between atoms: C6_10  and  C7_11 
REMARK    5  A    between atoms: C7_11  and  N4_12 
REMARK    6  A    between atoms: N5_15  and  C10_16 
REMARK    7  A    between atoms: C10_16  and  N6_17 
REMARK    8  A    between atoms: N6_17  and  C11_18 
ROOT
HETATM    1  C1  UNL     1      24.083   6.483  51.213  1.00  0.00     0.182 C 
HETATM    2  N1  UNL     1      25.275   6.576  50.386  1.00  0.00    -0.256 N 
HETATM    3  N2  UNL     1      25.999   7.652  50.016  1.00  0.00    -0.165 NA
HETATM    4  C2  UNL     1      27.024   7.474  49.179  1.00  0.00     0.151 A 
HETATM    5  C4  UNL     1      27.522   6.356  48.587  1.00  0.00    -0.015 A 
HETATM    6  C8  UNL     1      26.809   5.239  48.947  1.00  0.00     0.061 A 
HETATM    7  C9  UNL     1      25.763   5.373  49.787  1.00  0.00     0.142 A 
HETATM    8  N5  UNL     1      25.143   4.386  50.201  1.00  0.00    -0.252 NA
ENDROOT
BRANCH   8   9
HETATM    9  C10 UNL     1      25.169   2.980  49.999  1.00  0.00     0.268 C 
BRANCH   9  10
HETATM   10  N6  UNL     1      26.135   2.504  50.987  1.00  0.00    -0.398 N 
HETATM   11  H13 UNL     1      26.975   2.081  50.574  1.00  0.00     0.155 HD
BRANCH  10  12
HETATM   12  C11 UNL     1      25.605   1.881  52.169  1.00  0.00     0.101 C 
HETATM   13  C12 UNL     1      26.267   2.510  53.368  1.00  0.00     0.152 C 
HETATM   14  N7  UNL     1      27.592   1.942  53.755  1.00  0.00    -0.340 N 
HETATM   15  C13 UNL     1      28.978   1.550  54.258  1.00  0.00     0.233 A 
HETATM   16  C19 UNL     1      27.737   0.525  53.192  1.00  0.00     0.045 A 
HETATM   17  O2  UNL     1      29.664   2.325  54.941  1.00  0.00    -0.272 OA
HETATM   18  C14 UNL     1      29.134   0.087  53.682  1.00  0.00     0.091 A 
HETATM   19  C15 UNL     1      28.106  -0.042  53.125  1.00  0.00     0.042 A 
HETATM   20  C16 UNL     1      26.651   0.186  52.516  1.00  0.00     0.064 A 
HETATM   21  C18 UNL     1      26.877  -0.460  52.325  1.00  0.00     0.029 A 
HETATM   22  C17 UNL     1      25.555   0.341  52.049  1.00  0.00    -0.015 A 
ENDBRANCH  10  12
ENDBRANCH   9  10
ENDBRANCH   8   9
BRANCH   5  23
HETATM   23  C5  UNL     1      28.726   6.608  47.767  1.00  0.00     0.071 C 
BRANCH  23  24
HETATM   24  C6  UNL     1      29.795   5.622  48.115  1.00  0.00     0.011 C 
BRANCH  24  25
HETATM   25  C7  UNL     1      30.746   6.314  48.745  1.00  0.00     0.072 C 
BRANCH  25  26
HETATM   26  N4  UNL     1      30.990   7.347  49.591  1.00  0.00    -0.298 NA
HETATM   27  H9  UNL     1      32.065   7.319  49.853  1.00  0.00     0.187 HD
ENDBRANCH  25  26
ENDBRANCH  24  25
ENDBRANCH  23  24
ENDBRANCH   5  23
BRANCH   4  28
HETATM   28  C3  UNL     1      27.778   8.748  48.893  1.00  0.00     0.270 C 
HETATM   29  N3  UNL     1      28.571   9.338  49.966  1.00  0.00    -0.365 N 
HETATM   30  H4  UNL     1      29.069   8.604  50.622  1.00  0.00     0.159 HD
HETATM   31  H5  UNL     1      29.118   9.810  50.715  1.00  0.00     0.159 HD
HETATM   32  O1  UNL     1      28.281   9.745  48.415  1.00  0.00    -0.266 OA
ENDBRANCH   4  28
TORSDOF 8
ENDMDL
MODEL 2
REMARK VINA RESULT:      -8.3      1.514      1.956
REMARK  8 active torsions:
REMARK  status: ('A' for Active; 'I' for Inactive)
REMARK    1  A    between atoms: C2_4  and  C3_5 
REMARK       I    between atoms: C3_5  and  N3_6 
REMARK    2  A    between atoms: C4_8  and  C5_9 
REMARK    3  A    between atoms: C5_9  and  C6_10 
REMARK    4  A    between atoms: C6_10  and  C7_11 
REMARK    5  A    between atoms: C7_11  and  N4_12 
REMARK    6  A    between atoms: N5_15  and  C10_16 
REMARK    7  A    between atoms: C10_16  and  N6_17 
REMARK    8  A    between atoms: N6_17  and  C11_18 
ROOT
HETATM    1  C1  UNL     1      24.269   6.760  51.176  1.00  0.00     0.182 C 
HETATM    2  N1  UNL     1      25.462   6.776  50.347  1.00  0.00    -0.256 N 
HETATM    3  N2  UNL     1      26.299   7.790  50.040  1.00  0.00    -0.165 NA
HETATM    4  C2  UNL     1      27.297   7.556  49.185  1.00  0.00     0.151 A 
HETATM    5  C4  UNL     1      27.669   6.431  48.519  1.00  0.00    -0.015 A 
HETATM    6  C8  UNL     1      26.840   5.376  48.813  1.00  0.00     0.061 A 
HETATM    7  C9  UNL     1      25.816   5.569  49.669  1.00  0.00     0.142 A 
HETATM    8  N5  UNL     1      25.093   4.630  50.024  1.00  0.00    -0.252 NA
ENDROOT
BRANCH   8   9
HETATM    9  C10 UNL     1      24.966   3.246  49.733  1.00  0.00     0.268 C 
BRANCH   9  10
HETATM   10  N6  UNL     1      25.433   2.589  50.953  1.00  0.00    -0.398 N 
HETATM   11  H13 UNL     1      25.759   1.626  50.806  1.00  0.00     0.155 HD
BRANCH  10  12
HETATM   12  C11 UNL     1      24.692   2.850  52.157  1.00  0.00     0.101 C 
HETATM   13  C12 UNL     1      25.632   2.702  53.327  1.00  0.00     0.152 C 
HETATM   14  N7  UNL     1      25.824   1.311  53.836  1.00  0.00    -0.340 N 
HETATM   15  C13 UNL     1      26.206  -0.032  54.449  1.00  0.00     0.233 A 
HETATM   16  C19 UNL     1      24.643   0.433  53.417  1.00  0.00     0.045 A 
HETATM   17  O2  UNL     1      27.256  -0.177  55.092  1.00  0.00    -0.272 OA
HETATM   18  C14 UNL     1      24.989  -0.945  54.020  1.00  0.00     0.091 A 
HETATM   19  C15 UNL     1      24.333  -0.173  53.423  1.00  0.00     0.042 A 
HETATM   20  C16 UNL     1      23.770   1.140  52.717  1.00  0.00     0.064 A 
HETATM   21  C18 UNL     1      23.315   0.607  52.600  1.00  0.00     0.029 A 
HETATM   22  C17 UNL     1      23.330   2.120  52.178  1.00  0.00    -0.015 A 
ENDBRANCH  10  12
ENDBRANCH   9  10
ENDBRANCH   8   9
BRANCH   5  23
HETATM   23  C5  UNL     1      28.893   6.603  47.706  1.00  0.00     0.071 C 
BRANCH  23  24
HETATM   24  C6  UNL     1      29.844   5.479  47.972  1.00  0.00     0.011 C 
BRANCH  24  25
HETATM   25  C7  UNL     1      30.685   5.919  48.908  1.00  0.00     0.072 C 
BRANCH  25  26
HETATM   26  N4  UNL     1      31.302   5.612  50.077  1.00  0.00    -0.298 NA
HETATM   27  H9  UNL     1      32.099   6.363  50.244  1.00  0.00     0.187 HD
ENDBRANCH  25  26
ENDBRANCH  24  25
ENDBRANCH  23  24
ENDBRANCH   5  23
BRANCH   4  28
HETATM   28  C3  UNL     1      28.185   8.756  48.974  1.00  0.00     0.270 C 
HETATM   29  N3  UNL     1      28.690   9.457  50.149  1.00  0.00    -0.365 N 
HETATM   30  H4  UNL     1      28.938   8.801  51.000  1.00  0.00     0.159 HD
HETATM   31  H5  UNL     1      29.040  10.007  50.960  1.00  0.00     0.159 HD
HETATM   32  O1  UNL     1      28.865   9.665  48.543  1.00  0.00    -0.266 OA
ENDBRANCH   4  28
TORSDOF 8
ENDMDL
MODEL 3
REMARK VINA RESULT:      -8.3      5.638      8.610
REMARK  8 active torsions:
REMARK  status: ('A' for Active; 'I' for Inactive)
REMARK    1  A    between atoms: C2_4  and  C3_5 
REMARK       I    between atoms: C3_5  and  N3_6 
REMARK    2  A    between atoms: C4_8  and  C5_9 
REMARK    3  A    between atoms: C5_9  and  C6_10 
REMARK    4  A    between atoms: C6_10  and  C7_11 
REMARK    5  A    between atoms: C7_11  and  N4_12 
REMARK    6  A    between atoms: N5_15  and  C10_16 
REMARK    7  A    between atoms: C10_16  and  N6_17 
REMARK    8  A    between atoms: N6_17  and  C11_18 
ROOT
HETATM    1  C1  UNL     1      22.650  -1.195  54.973  1.00  0.00     0.182 C 
HETATM    2  N1  UNL     1      21.624  -0.747  54.047  1.00  0.00    -0.256 N 
HETATM    3  N2  UNL     1      20.318  -1.079  53.963  1.00  0.00    -0.165 NA
HETATM    4  C2  UNL     1      19.595  -0.576  52.961  1.00  0.00     0.151 A 
HETATM    5  C4  UNL     1      19.926   0.261  51.942  1.00  0.00    -0.015 A 
HETATM    6  C8  UNL     1      21.250   0.623  52.000  1.00  0.00     0.061 A 
HETATM    7  C9  UNL     1      22.018   0.134  52.994  1.00  0.00     0.142 A 
HETATM    8  N5  UNL     1      23.193   0.496  53.132  1.00  0.00    -0.252 NA
ENDROOT
BRANCH   8   9
HETATM    9  C10 UNL     1      24.110   1.339  52.449  1.00  0.00     0.268 C 
BRANCH   9  10
HETATM   10  N6  UNL     1      25.317   0.521  52.337  1.00  0.00    -0.398 N 
HETATM   11  H13 UNL     1      25.462   0.125  51.400  1.00  0.00     0.155 HD
BRANCH  10  12
HETATM   12  C11 UNL     1      25.641  -0.319  53.457  1.00  0.00     0.101 C 
HETATM   13  C12 UNL     1      26.264   0.544  54.525  1.00  0.00     0.152 C 
HETATM   14  N7  UNL     1      27.729   0.797  54.387  1.00  0.00    -0.340 N 
HETATM   15  C13 UNL     1      29.192   1.227  54.379  1.00  0.00     0.233 A 
HETATM   16  C19 UNL     1      28.366  -0.288  53.515  1.00  0.00     0.045 A 
HETATM   17  O2  UNL     1      29.576   2.237  54.988  1.00  0.00    -0.272 OA
HETATM   18  C14 UNL     1      29.858   0.110  53.480  1.00  0.00     0.091 A 
HETATM   19  C15 UNL     1      28.921  -0.555  53.225  1.00  0.00     0.042 A 
HETATM   20  C16 UNL     1      27.449  -1.157  53.119  1.00  0.00     0.064 A 
HETATM   21  C18 UNL     1      27.888  -1.565  52.738  1.00  0.00     0.029 A 
HETATM   22  C17 UNL     1      26.347  -1.625  53.028  1.00  0.00    -0.015 A 
ENDBRANCH  10  12
ENDBRANCH   9  10
ENDBRANCH   8   9
BRANCH   5  23
HETATM   23  C5  UNL     1      18.782   0.618  51.075  1.00  0.00     0.071 C 
BRANCH  23  24
HETATM   24  C6  UNL     1      19.074   1.890  50.344  1.00  0.00     0.011 C 
BRANCH  24  25
HETATM   25  C7  UNL     1      18.260   2.810  50.862  1.00  0.00     0.072 C 
BRANCH  25  26
HETATM   26  N4  UNL     1      18.058   3.649  51.910  1.00  0.00    -0.298 NA
HETATM   27  H9  UNL     1      17.809   4.646  51.499  1.00  0.00     0.187 HD
ENDBRANCH  25  26
ENDBRANCH  24  25
ENDBRANCH  23  24
ENDBRANCH   5  23
BRANCH   4  28
HETATM   28  C3  UNL     1      18.145  -0.983  53.018  1.00  0.00     0.270 C 
HETATM   29  N3  UNL     1      17.759  -2.035  53.953  1.00  0.00    -0.365 N 
HETATM   30  H4  UNL     1      18.308  -2.020  54.909  1.00  0.00     0.159 HD
HETATM   31  H5  UNL     1      17.450  -2.807  54.578  1.00  0.00     0.159 HD
HETATM   32  O1  UNL     1      16.946  -1.120  52.877  1.00  0.00    -0.266 OA
ENDBRANCH   4  28
TORSDOF 8
ENDMDL
MODEL 4
REMARK VINA RESULT:      -8.1      4.479      7.681
REMARK  8 active torsions:
REMARK  status: ('A' for Active; 'I' for Inactive)
REMARK    1  A    between atoms: C2_4  and  C3_5 
REMARK       I    between atoms: C3_5  and  N3_6 
REMARK    2  A    between atoms: C4_8  and  C5_9 
REMARK    3  A    between atoms: C5_9  and  C6_10 
REMARK    4  A    between atoms: C6_10  and  C7_11 
REMARK    5  A    between atoms: C7_11  and  N4_12 
REMARK    6  A    between atoms: N5_15  and  C10_16 
REMARK    7  A    between atoms: C10_16  and  N6_17 
REMARK    8  A    between atoms: N6_17  and  C11_18 
ROOT
HETATM    1  C1  UNL     1      21.936  -0.884  54.868  1.00  0.00     0.182 C 
HETATM    2  N1  UNL     1      23.105  -0.510  54.090  1.00  0.00    -0.256 N 
HETATM    3  N2  UNL     1      24.398  -0.870  54.229  1.00  0.00    -0.165 NA
HETATM    4  C2  UNL     1      25.304  -0.321  53.416  1.00  0.00     0.151 A 
HETATM    5  C4  UNL     1      25.181   0.581  52.407  1.00  0.00    -0.015 A 
HETATM    6  C8  UNL     1      23.874   0.966  52.235  1.00  0.00     0.061 A 
HETATM    7  C9  UNL     1      22.927   0.440  53.038  1.00  0.00     0.142 A 
HETATM    8  N5  UNL     1      21.728   0.695  52.866  1.00  0.00    -0.252 NA
ENDROOT
BRANCH   8   9
HETATM    9  C10 UNL     1      20.951   1.514  52.004  1.00  0.00     0.268 C 
BRANCH   9  10
HETATM   10  N6  UNL     1      21.005   2.832  52.634  1.00  0.00    -0.398 N 
HETATM   11  H13 UNL     1      20.532   2.875  53.545  1.00  0.00     0.155 HD
BRANCH  10  12
HETATM   12  C11 UNL     1      20.864   3.972  51.771  1.00  0.00     0.101 C 
HETATM   13  C12 UNL     1      20.574   3.473  50.378  1.00  0.00     0.152 C 
HETATM   14  N7  UNL     1      21.764   3.095  49.559  1.00  0.00    -0.340 N 
HETATM   15  C13 UNL     1      22.838   2.593  48.600  1.00  0.00     0.233 A 
HETATM   16  C19 UNL     1      23.015   3.787  50.106  1.00  0.00     0.045 A 
HETATM   17  O2  UNL     1      22.568   1.819  47.670  1.00  0.00    -0.272 OA
HETATM   18  C14 UNL     1      24.135   3.305  49.158  1.00  0.00     0.091 A 
HETATM   19  C15 UNL     1      23.684   3.906  50.063  1.00  0.00     0.042 A 
HETATM   20  C16 UNL     1      22.706   4.533  51.155  1.00  0.00     0.064 A 
HETATM   21  C18 UNL     1      23.366   4.762  51.284  1.00  0.00     0.029 A 
HETATM   22  C17 UNL     1      21.985   5.015  51.986  1.00  0.00    -0.015 A 
ENDBRANCH  10  12
ENDBRANCH   9  10
ENDBRANCH   8   9
BRANCH   5  23
HETATM   23  C5  UNL     1      26.456   0.873  51.716  1.00  0.00     0.071 C 
BRANCH  23  24
HETATM   24  C6  UNL     1      26.811   2.316  51.889  1.00  0.00     0.011 C 
BRANCH  24  25
HETATM   25  C7  UNL     1      27.789   2.350  52.794  1.00  0.00     0.072 C 
BRANCH  25  26
HETATM   26  N4  UNL     1      28.111   2.691  54.068  1.00  0.00    -0.298 NA
HETATM   27  H9  UNL     1      27.955   1.798  54.704  1.00  0.00     0.187 HD
ENDBRANCH  25  26
ENDBRANCH  24  25
ENDBRANCH  23  24
ENDBRANCH   5  23
BRANCH   4  28
HETATM   28  C3  UNL     1      26.697  -0.851  53.644  1.00  0.00     0.270 C 
HETATM   29  N3  UNL     1      27.420  -0.404  54.831  1.00  0.00    -0.365 N 
HETATM   30  H4  UNL     1      26.790  -0.268  55.725  1.00  0.00     0.159 HD
HETATM   31  H5  UNL     1      27.983  -0.083  55.644  1.00  0.00     0.159 HD
HETATM   32  O1  UNL     1      27.772  -1.413  53.600  1.00  0.00    -0.266 OA
ENDBRANCH   4  28
TORSDOF 8
ENDMDL
MODEL 5
REMARK VINA RESULT:      -8.0      5.171      8.336
REMARK  8 active torsions:
REMARK  status: ('A' for Active; 'I' for Inactive)
REMARK    1  A    between atoms: C2_4  and  C3_5 
REMARK       I    between atoms: C3_5  and  N3_6 
REMARK    2  A    between atoms: C4_8  and  C5_9 
REMARK    3  A    between atoms: C5_9  and  C6_10 
REMARK    4  A    between atoms: C6_10  and  C7_11 
REMARK    5  A    between atoms: C7_11  and  N4_12 
REMARK    6  A    between atoms: N5_15  and  C10_16 
REMARK    7  A    between atoms: C10_16  and  N6_17 
REMARK    8  A    between atoms: N6_17  and  C11_18 
ROOT
HETATM    1  C1  UNL     1      24.071   2.801  52.945  1.00  0.00     0.182 C 
HETATM    2  N1  UNL     1      25.226   2.027  53.368  1.00  0.00    -0.256 N 
HETATM    3  N2  UNL     1      26.478   2.423  53.674  1.00  0.00    -0.165 NA
HETATM    4  C2  UNL     1      27.389   1.492  53.968  1.00  0.00     0.151 A 
HETATM    5  C4  UNL     1      27.305   0.137  54.030  1.00  0.00    -0.015 A 
HETATM    6  C8  UNL     1      26.039  -0.302  53.728  1.00  0.00     0.061 A 
HETATM    7  C9  UNL     1      25.089   0.605  53.421  1.00  0.00     0.142 A 
HETATM    8  N5  UNL     1      23.917   0.262  53.221  1.00  0.00    -0.252 NA
ENDROOT
BRANCH   8   9
HETATM    9  C10 UNL     1      23.184  -0.953  53.161  1.00  0.00     0.268 C 
BRANCH   9  10
HETATM   10  N6  UNL     1      21.975  -0.593  52.422  1.00  0.00    -0.398 N 
HETATM   11  H13 UNL     1      22.100  -0.586  51.402  1.00  0.00     0.155 HD
BRANCH  10  12
HETATM   12  C11 UNL     1      21.151   0.441  52.984  1.00  0.00     0.101 C 
HETATM   13  C12 UNL     1      20.145  -0.208  53.901  1.00  0.00     0.152 C 
HETATM   14  N7  UNL     1      18.909  -0.732  53.246  1.00  0.00    -0.340 N 
HETATM   15  C13 UNL     1      17.623  -1.390  52.758  1.00  0.00     0.233 A 
HETATM   16  C19 UNL     1      18.695  -0.034  51.901  1.00  0.00     0.045 A 
HETATM   17  O2  UNL     1      17.042  -2.257  53.429  1.00  0.00    -0.272 OA
HETATM   18  C14 UNL     1      17.394  -0.673  51.368  1.00  0.00     0.091 A 
HETATM   19  C15 UNL     1      18.321   0.050  51.339  1.00  0.00     0.042 A 
HETATM   20  C16 UNL     1      19.660   0.844  51.680  1.00  0.00     0.064 A 
HETATM   21  C18 UNL     1      19.426   1.059  51.044  1.00  0.00     0.029 A 
HETATM   22  C17 UNL     1      20.668   1.452  51.920  1.00  0.00    -0.015 A 
ENDBRANCH  10  12
ENDBRANCH   9  10
ENDBRANCH   8   9
BRANCH   5  23
HETATM   23  C5  UNL     1      28.561  -0.514  54.462  1.00  0.00     0.071 C 
BRANCH  23  24
HETATM   24  C6  UNL     1      29.335  -0.971  53.266  1.00  0.00     0.011 C 
BRANCH  24  25
HETATM   25  C7  UNL     1      29.227  -2.300  53.241  1.00  0.00     0.072 C 
BRANCH  25  26
HETATM   26  N4  UNL     1      28.392  -3.341  52.996  1.00  0.00    -0.298 NA
HETATM   27  H9  UNL     1      28.544  -3.653  51.945  1.00  0.00     0.187 HD
ENDBRANCH  25  26
ENDBRANCH  24  25
ENDBRANCH  23  24
ENDBRANCH   5  23
BRANCH   4  28
HETATM   28  C3  UNL     1      28.728   2.075  54.343  1.00  0.00     0.270 C 
HETATM   29  N3  UNL     1      29.383   2.967  53.393  1.00  0.00    -0.365 N 
HETATM   30  H4  UNL     1      28.696   3.624  52.834  1.00  0.00     0.159 HD
HETATM   31  H5  UNL     1      29.900   3.578  52.728  1.00  0.00     0.159 HD
HETATM   32  O1  UNL     1      29.768   2.407  54.873  1.00  0.00    -0.266 OA
ENDBRANCH   4  28
TORSDOF 8
ENDMDL
MODEL 6
REMARK VINA RESULT:      -8.0      5.057      7.661
REMARK  8 active torsions:
REMARK  status: ('A' for Active; 'I' for Inactive)
REMARK    1  A    between atoms: C2_4  and  C3_5 
REMARK       I    between atoms: C3_5  and  N3_6 
REMARK    2  A    between atoms: C4_8  and  C5_9 
REMARK    3  A    between atoms: C5_9  and  C6_10 
REMARK    4  A    between atoms: C6_10  and  C7_11 
REMARK    5  A    between atoms: C7_11  and  N4_12 
REMARK    6  A    between atoms: N5_15  and  C10_16 
REMARK    7  A    between atoms: C10_16  and  N6_17 
REMARK    8  A    between atoms: N6_17  and  C11_18 
ROOT
HETATM    1  C1  UNL     1      22.818   2.450  49.410  1.00  0.00     0.182 C 
HETATM    2  N1  UNL     1      22.259   1.773  50.568  1.00  0.00    -0.256 N 
HETATM    3  N2  UNL     1      20.991   1.393  50.830  1.00  0.00    -0.165 NA
HETATM    4  C2  UNL     1      20.721   0.845  52.017  1.00  0.00     0.151 A 
HETATM    5  C4  UNL     1      21.516   0.570  53.085  1.00  0.00    -0.015 A 
HETATM    6  C8  UNL     1      22.818   0.941  52.850  1.00  0.00     0.061 A 
HETATM    7  C9  UNL     1      23.133   1.503  51.666  1.00  0.00     0.142 A 
HETATM    8  N5  UNL     1      24.306   1.778  51.380  1.00  0.00    -0.252 NA
ENDROOT
BRANCH   8   9
HETATM    9  C10 UNL     1      25.574   1.721  52.018  1.00  0.00     0.268 C 
BRANCH   9  10
HETATM   10  N6  UNL     1      25.973   0.322  51.873  1.00  0.00    -0.398 N 
HETATM   11  H13 UNL     1      25.555  -0.145  51.059  1.00  0.00     0.155 HD
BRANCH  10  12
HETATM   12  C11 UNL     1      26.089  -0.450  53.080  1.00  0.00     0.101 C 
HETATM   13  C12 UNL     1      26.494   0.481  54.195  1.00  0.00     0.152 C 
HETATM   14  N7  UNL     1      27.958   0.753  54.318  1.00  0.00    -0.340 N 
HETATM   15  C13 UNL     1      29.393   1.209  54.558  1.00  0.00     0.233 A 
HETATM   16  C19 UNL     1      28.755  -0.366  53.642  1.00  0.00     0.045 A 
HETATM   17  O2  UNL     1      29.647   2.257  55.170  1.00  0.00    -0.272 OA
HETATM   18  C14 UNL     1      30.223   0.058  53.863  1.00  0.00     0.091 A 
HETATM   19  C15 UNL     1      29.357  -0.637  53.476  1.00  0.00     0.042 A 
HETATM   20  C16 UNL     1      27.935  -1.271  53.132  1.00  0.00     0.064 A 
HETATM   21  C18 UNL     1      28.442  -1.690  52.862  1.00  0.00     0.029 A 
HETATM   22  C17 UNL     1      26.873  -1.764  52.863  1.00  0.00    -0.015 A 
ENDBRANCH  10  12
ENDBRANCH   9  10
ENDBRANCH   8   9
BRANCH   5  23
HETATM   23  C5  UNL     1      20.806  -0.107  54.192  1.00  0.00     0.071 C 
BRANCH  23  24
HETATM   24  C6  UNL     1      20.979  -1.588  54.078  1.00  0.00     0.011 C 
BRANCH  24  25
HETATM   25  C7  UNL     1      22.074  -1.887  54.777  1.00  0.00     0.072 C 
BRANCH  25  26
HETATM   26  N4  UNL     1      22.923  -1.460  55.746  1.00  0.00    -0.298 NA
HETATM   27  H9  UNL     1      22.599  -0.446  56.053  1.00  0.00     0.187 HD
ENDBRANCH  25  26
ENDBRANCH  24  25
ENDBRANCH  23  24
ENDBRANCH   5  23
BRANCH   4  28
HETATM   28  C3  UNL     1      19.282   0.418  52.155  1.00  0.00     0.270 C 
HETATM   29  N3  UNL     1      18.240   1.369  51.779  1.00  0.00    -0.365 N 
HETATM   30  H4  UNL     1      18.489   1.998  50.909  1.00  0.00     0.159 HD
HETATM   31  H5  UNL     1      17.468   2.029  51.558  1.00  0.00     0.159 HD
HETATM   32  O1  UNL     1      18.231  -0.158  52.350  1.00  0.00    -0.266 OA
ENDBRANCH   4  28
TORSDOF 8
ENDMDL
MODEL 7
REMARK VINA RESULT:      -7.9      2.416      3.314
REMARK  8 active torsions:
REMARK  status: ('A' for Active; 'I' for Inactive)
REMARK    1  A    between atoms: C2_4  and  C3_5 
REMARK       I    between atoms: C3_5  and  N3_6 
REMARK    2  A    between atoms: C4_8  and  C5_9 
REMARK    3  A    between atoms: C5_9  and  C6_10 
REMARK    4  A    between atoms: C6_10  and  C7_11 
REMARK    5  A    between atoms: C7_11  and  N4_12 
REMARK    6  A    between atoms: N5_15  and  C10_16 
REMARK    7  A    between atoms: C10_16  and  N6_17 
REMARK    8  A    between atoms: N6_17  and  C11_18 
ROOT
HETATM    1  C1  UNL     1      22.569   2.231  49.431  1.00  0.00     0.182 C 
HETATM    2  N1  UNL     1      23.254   3.505  49.280  1.00  0.00    -0.256 N 
HETATM    3  N2  UNL     1      22.994   4.544  48.460  1.00  0.00    -0.165 NA
HETATM    4  C2  UNL     1      23.831   5.584  48.464  1.00  0.00     0.151 A 
HETATM    5  C4  UNL     1      24.963   5.828  49.175  1.00  0.00    -0.015 A 
HETATM    6  C8  UNL     1      25.255   4.790  50.026  1.00  0.00     0.061 A 
HETATM    7  C9  UNL     1      24.439   3.717  50.051  1.00  0.00     0.142 A 
HETATM    8  N5  UNL     1      24.616   2.796  50.858  1.00  0.00    -0.252 NA
ENDROOT
BRANCH   8   9
HETATM    9  C10 UNL     1      25.565   2.457  51.859  1.00  0.00     0.268 C 
BRANCH   9  10
HETATM   10  N6  UNL     1      25.672   1.003  51.760  1.00  0.00    -0.398 N 
HETATM   11  H13 UNL     1      25.162   0.604  50.962  1.00  0.00     0.155 HD
BRANCH  10  12
HETATM   12  C11 UNL     1      25.640   0.262  52.990  1.00  0.00     0.101 C 
HETATM   13  C12 UNL     1      26.225   1.130  54.076  1.00  0.00     0.152 C 
HETATM   14  N7  UNL     1      27.713   1.113  54.193  1.00  0.00    -0.340 N 
HETATM   15  C13 UNL     1      29.211   1.287  54.421  1.00  0.00     0.233 A 
HETATM   16  C19 UNL     1      28.273  -0.161  53.555  1.00  0.00     0.045 A 
HETATM   17  O2  UNL     1      29.669   2.284  55.000  1.00  0.00    -0.272 OA
HETATM   18  C14 UNL     1      29.797  -0.027  53.765  1.00  0.00     0.091 A 
HETATM   19  C15 UNL     1      28.809  -0.550  53.399  1.00  0.00     0.042 A 
HETATM   20  C16 UNL     1      27.289  -0.904  53.073  1.00  0.00     0.064 A 
HETATM   21  C18 UNL     1      27.702  -1.423  52.817  1.00  0.00     0.029 A 
HETATM   22  C17 UNL     1      26.150  -1.187  52.818  1.00  0.00    -0.015 A 
ENDBRANCH  10  12
ENDBRANCH   9  10
ENDBRANCH   8   9
BRANCH   5  23
HETATM   23  C5  UNL     1      25.555   7.157  48.907  1.00  0.00     0.071 C 
BRANCH  23  24
HETATM   24  C6  UNL     1      25.515   7.993  50.146  1.00  0.00     0.011 C 
BRANCH  24  25
HETATM   25  C7  UNL     1      26.695   8.610  50.215  1.00  0.00     0.072 C 
BRANCH  25  26
HETATM   26  N4  UNL     1      27.507   9.367  50.996  1.00  0.00    -0.298 NA
HETATM   27  H9  UNL     1      28.023  10.093  50.339  1.00  0.00     0.187 HD
ENDBRANCH  25  26
ENDBRANCH  24  25
ENDBRANCH  23  24
ENDBRANCH   5  23
BRANCH   4  28
HETATM   28  C3  UNL     1      23.394   6.695  47.543  1.00  0.00     0.270 C 
HETATM   29  N3  UNL     1      22.030   7.200  47.668  1.00  0.00    -0.365 N 
HETATM   30  H4  UNL     1      21.650   7.235  48.703  1.00  0.00     0.159 HD
HETATM   31  H5  UNL     1      21.056   7.562  47.700  1.00  0.00     0.159 HD
HETATM   32  O1  UNL     1      23.294   7.571  46.708  1.00  0.00    -0.266 OA
ENDBRANCH   4  28
TORSDOF 8
ENDMDL
MODEL 8
REMARK VINA RESULT:      -7.8      3.359      7.971
REMARK  8 active torsions:
REMARK  status: ('A' for Active; 'I' for Inactive)
REMARK    1  A    between atoms: C2_4  and  C3_5 
REMARK       I    between atoms: C3_5  and  N3_6 
REMARK    2  A    between atoms: C4_8  and  C5_9 
REMARK    3  A    between atoms: C5_9  and  C6_10 
REMARK    4  A    between atoms: C6_10  and  C7_11 
REMARK    5  A    between atoms: C7_11  and  N4_12 
REMARK    6  A    between atoms: N5_15  and  C10_16 
REMARK    7  A    between atoms: C10_16  and  N6_17 
REMARK    8  A    between atoms: N6_17  and  C11_18 
ROOT
HETATM    1  C1  UNL     1      20.021   2.911  50.774  1.00  0.00     0.182 C 
HETATM    2  N1  UNL     1      20.972   2.042  51.446  1.00  0.00    -0.256 N 
HETATM    3  N2  UNL     1      20.821   1.261  52.536  1.00  0.00    -0.165 NA
HETATM    4  C2  UNL     1      21.887   0.606  53.004  1.00  0.00     0.151 A 
HETATM    5  C4  UNL     1      23.176   0.559  52.575  1.00  0.00    -0.015 A 
HETATM    6  C8  UNL     1      23.363   1.341  51.461  1.00  0.00     0.061 A 
HETATM    7  C9  UNL     1      22.315   2.024  50.959  1.00  0.00     0.142 A 
HETATM    8  N5  UNL     1      22.418   2.676  49.912  1.00  0.00    -0.252 NA
ENDROOT
BRANCH   8   9
HETATM    9  C10 UNL     1      23.444   3.006  48.988  1.00  0.00     0.268 C 
BRANCH   9  10
HETATM   10  N6  UNL     1      23.757   4.400  49.298  1.00  0.00    -0.398 N 
HETATM   11  H13 UNL     1      23.776   5.013  48.474  1.00  0.00     0.155 HD
BRANCH  10  12
HETATM   12  C11 UNL     1      24.752   4.634  50.308  1.00  0.00     0.101 C 
HETATM   13  C12 UNL     1      24.909   6.125  50.475  1.00  0.00     0.152 C 
HETATM   14  N7  UNL     1      25.835   6.794  49.515  1.00  0.00    -0.340 N 
HETATM   15  C13 UNL     1      26.677   7.665  48.587  1.00  0.00     0.233 A 
HETATM   16  C19 UNL     1      26.811   5.770  48.930  1.00  0.00     0.045 A 
HETATM   17  O2  UNL     1      26.467   8.881  48.471  1.00  0.00    -0.272 OA
HETATM   18  C14 UNL     1      27.689   6.613  47.980  1.00  0.00     0.091 A 
HETATM   19  C15 UNL     1      27.338   5.630  48.522  1.00  0.00     0.042 A 
HETATM   20  C16 UNL     1      26.573   4.569  49.433  1.00  0.00     0.064 A 
HETATM   21  C18 UNL     1      27.080   4.230  49.068  1.00  0.00     0.029 A 
HETATM   22  C17 UNL     1      26.008   3.755  50.112  1.00  0.00    -0.015 A 
ENDBRANCH  10  12
ENDBRANCH   9  10
ENDBRANCH   8   9
BRANCH   5  23
HETATM   23  C5  UNL     1      24.028  -0.357  53.364  1.00  0.00     0.071 C 
BRANCH  23  24
HETATM   24  C6  UNL     1      25.465  -0.157  53.000  1.00  0.00     0.011 C 
BRANCH  24  25
HETATM   25  C7  UNL     1      26.129  -0.063  54.152  1.00  0.00     0.072 C 
BRANCH  25  26
HETATM   26  N4  UNL     1      26.700   0.794  55.036  1.00  0.00    -0.298 NA
HETATM   27  H9  UNL     1      27.217   1.582  54.455  1.00  0.00     0.187 HD
ENDBRANCH  25  26
ENDBRANCH  24  25
ENDBRANCH  23  24
ENDBRANCH   5  23
BRANCH   4  28
HETATM   28  C3  UNL     1      21.567  -0.269  54.189  1.00  0.00     0.270 C 
HETATM   29  N3  UNL     1      20.612   0.225  55.175  1.00  0.00    -0.365 N 
HETATM   30  H4  UNL     1      19.778   0.809  54.751  1.00  0.00     0.159 HD
HETATM   31  H5  UNL     1      19.965   0.557  55.919  1.00  0.00     0.159 HD
HETATM   32  O1  UNL     1      21.480  -1.145  55.025  1.00  0.00    -0.266 OA
ENDBRANCH   4  28
TORSDOF 8
ENDMDL
MODEL 9
REMARK VINA RESULT:      -7.7      3.446      4.707
REMARK  8 active torsions:
REMARK  status: ('A' for Active; 'I' for Inactive)
REMARK    1  A    between atoms: C2_4  and  C3_5 
REMARK       I    between atoms: C3_5  and  N3_6 
REMARK    2  A    between atoms: C4_8  and  C5_9 
REMARK    3  A    between atoms: C5_9  and  C6_10 
REMARK    4  A    between atoms: C6_10  and  C7_11 
REMARK    5  A    between atoms: C7_11  and  N4_12 
REMARK    6  A    between atoms: N5_15  and  C10_16 
REMARK    7  A    between atoms: C10_16  and  N6_17 
REMARK    8  A    between atoms: N6_17  and  C11_18 
ROOT
HETATM    1  C1  UNL     1      26.623   2.385  50.360  1.00  0.00     0.182 C 
HETATM    2  N1  UNL     1      26.502   3.741  49.850  1.00  0.00    -0.256 N 
HETATM    3  N2  UNL     1      27.396   4.512  49.199  1.00  0.00    -0.165 NA
HETATM    4  C2  UNL     1      27.057   5.768  48.898  1.00  0.00     0.151 A 
HETATM    5  C4  UNL     1      25.918   6.474  49.127  1.00  0.00    -0.015 A 
HETATM    6  C8  UNL     1      24.982   5.715  49.787  1.00  0.00     0.061 A 
HETATM    7  C9  UNL     1      25.284   4.442  50.113  1.00  0.00     0.142 A 
HETATM    8  N5  UNL     1      24.445   3.698  50.634  1.00  0.00    -0.252 NA
ENDROOT
BRANCH   8   9
HETATM    9  C10 UNL     1      23.106   3.802  51.096  1.00  0.00     0.268 C 
BRANCH   9  10
HETATM   10  N6  UNL     1      22.978   2.695  52.044  1.00  0.00    -0.398 N 
HETATM   11  H13 UNL     1      23.355   2.904  52.977  1.00  0.00     0.155 HD
BRANCH  10  12
HETATM   12  C11 UNL     1      23.200   1.371  51.533  1.00  0.00     0.101 C 
HETATM   13  C12 UNL     1      21.857   0.743  51.258  1.00  0.00     0.152 C 
HETATM   14  N7  UNL     1      21.187   0.098  52.426  1.00  0.00    -0.340 N 
HETATM   15  C13 UNL     1      20.317  -0.542  53.503  1.00  0.00     0.233 A 
HETATM   16  C19 UNL     1      22.225  -0.248  53.497  1.00  0.00     0.045 A 
HETATM   17  O2  UNL     1      19.091  -0.662  53.361  1.00  0.00    -0.272 OA
HETATM   18  C14 UNL     1      21.383  -0.903  54.613  1.00  0.00     0.091 A 
HETATM   19  C15 UNL     1      22.371  -0.518  54.105  1.00  0.00     0.042 A 
HETATM   20  C16 UNL     1      23.434   0.117  53.101  1.00  0.00     0.064 A 
HETATM   21  C18 UNL     1      23.775  -0.095  53.687  1.00  0.00     0.029 A 
HETATM   22  C17 UNL     1      24.250   0.591  52.357  1.00  0.00    -0.015 A 
ENDBRANCH  10  12
ENDBRANCH   9  10
ENDBRANCH   8   9
BRANCH   5  23
HETATM   23  C5  UNL     1      25.946   7.841  48.563  1.00  0.00     0.071 C 
BRANCH  23  24
HETATM   24  C6  UNL     1      25.389   8.813  49.554  1.00  0.00     0.011 C 
BRANCH  24  25
HETATM   25  C7  UNL     1      26.438   9.453  50.073  1.00  0.00     0.072 C 
BRANCH  25  26
HETATM   26  N4  UNL     1      27.594   9.305  50.767  1.00  0.00    -0.298 NA
HETATM   27  H9  UNL     1      27.809   8.222  50.836  1.00  0.00     0.187 HD
ENDBRANCH  25  26
ENDBRANCH  24  25
ENDBRANCH  23  24
ENDBRANCH   5  23
BRANCH   4  28
HETATM   28  C3  UNL     1      28.126   6.498  48.125  1.00  0.00     0.270 C 
HETATM   29  N3  UNL     1      29.256   7.052  48.863  1.00  0.00    -0.365 N 
HETATM   30  H4  UNL     1      29.594   6.435  49.712  1.00  0.00     0.159 HD
HETATM   31  H5  UNL     1      30.059   7.494  49.355  1.00  0.00     0.159 HD
HETATM   32  O1  UNL     1      28.834   7.022  47.289  1.00  0.00    -0.266 OA
ENDBRANCH   4  28
TORSDOF 8
ENDMDL
