MODEL 1
REMARK VINA RESULT:      -7.5      0.000      0.000
REMARK  10 active torsions:
REMARK  status: ('A' for Active; 'I' for Inactive)
REMARK    1  A    between atoms: C2_2  and  C4_4 
REMARK    2  A    between atoms: C4_4  and  C6_7 
REMARK    3  A    between atoms: C6_7  and  N2_9 
REMARK    4  A    between atoms: N2_9  and  C8_10 
REMARK    5  A    between atoms: C12_16  and  C13_17 
REMARK    6  A    between atoms: C13_17  and  C14_18 
REMARK    7  A    between atoms: C13_17  and  O1_20 
REMARK    8  A    between atoms: O1_20  and  C16_21 
REMARK    9  A    between atoms: C19_24  and  C20_25 
REMARK   10  A    between atoms: C22_28  and  O2_29 
ROOT
HETATM    1  C4  UNL     1      28.085  -0.125  54.145  1.00  0.00     0.166 C 
HETATM    2  C5  UNL     1      28.525   1.256  54.181  1.00  0.00     0.074 C 
HETATM    3  N1  UNL     1      28.869   2.358  54.191  1.00  0.00    -0.196 NA
ENDROOT
BRANCH   1   4
HETATM    4  C2  UNL     1      29.098  -1.059  53.596  1.00  0.00    -0.070 C 
HETATM    5  C1  UNL     1      28.980  -2.274  53.092  1.00  0.00     0.015 C 
HETATM    6  C3  UNL     1      30.471  -0.476  53.643  1.00  0.00     0.044 C 
ENDBRANCH   1   4
BRANCH   1   7
HETATM    7  C6  UNL     1      26.767  -0.238  53.434  1.00  0.00     0.010 C 
HETATM    8  C7  UNL     1      25.739  -0.677  54.156  1.00  0.00     0.060 C 
BRANCH   7   9
HETATM    9  N2  UNL     1      26.403   0.081  52.097  1.00  0.00    -0.344 N 
HETATM   10  H9  UNL     1      26.687  -0.223  51.123  1.00  0.00     0.167 HD
BRANCH   9  11
HETATM   11  C8  UNL     1      25.387   1.088  51.940  1.00  0.00     0.163 C 
HETATM   12  N3  UNL     1      24.085   1.058  52.279  1.00  0.00    -0.222 NA
HETATM   13  C9  UNL     1      23.108   1.516  51.463  1.00  0.00     0.235 C 
HETATM   14  N4  UNL     1      23.082   2.456  52.424  1.00  0.00    -0.254 NA
HETATM   15  C10 UNL     1      22.540   3.662  52.274  1.00  0.00     0.118 C 
HETATM   16  C11 UNL     1      22.882   4.839  51.639  1.00  0.00     0.029 C 
HETATM   17  C12 UNL     1      23.309   4.945  50.351  1.00  0.00    -0.028 C 
HETATM   18  C18 UNL     1      24.483   4.249  50.397  1.00  0.00     0.021 C 
HETATM   19  C19 UNL     1      25.484   3.323  50.444  1.00  0.00    -0.007 C 
HETATM   20  C22 UNL     1      25.614   2.326  51.390  1.00  0.00     0.119 C 
BRANCH  17  21
HETATM   21  C13 UNL     1      22.650   5.647  49.259  1.00  0.00     0.154 C 
BRANCH  21  22
HETATM   22  C14 UNL     1      23.570   5.696  48.016  1.00  0.00     0.032 C 
HETATM   23  C15 UNL     1      24.106   7.064  47.771  1.00  0.00     0.008 C 
ENDBRANCH  21  22
BRANCH  21  24
HETATM   24  O1  UNL     1      21.466   5.011  48.893  1.00  0.00    -0.382 OA
BRANCH  24  25
HETATM   25  C16 UNL     1      21.540   4.281  47.743  1.00  0.00     0.164 C 
HETATM   26  C17 UNL     1      20.747   3.020  47.685  1.00  0.00     0.033 C 
ENDBRANCH  24  25
ENDBRANCH  21  24
ENDBRANCH  17  21
BRANCH  19  27
HETATM   27  C20 UNL     1      26.590   3.274  49.465  1.00  0.00     0.165 C 
HETATM   28  C21 UNL     1      27.007   4.566  48.981  1.00  0.00     0.063 C 
HETATM   29  N5  UNL     1      27.333   5.572  48.585  1.00  0.00    -0.197 NA
ENDBRANCH  19  27
BRANCH  20  30
HETATM   30  O2  UNL     1      26.463   2.908  52.332  1.00  0.00    -0.357 OA
HETATM   31  H27 UNL     1      27.314   3.333  52.013  1.00  0.00     0.218 HD
ENDBRANCH  20  30
ENDBRANCH   9  11
ENDBRANCH   7   9
ENDBRANCH   1   7
TORSDOF 10
ENDMDL
MODEL 2
REMARK VINA RESULT:      -7.5      3.026      5.213
REMARK  10 active torsions:
REMARK  status: ('A' for Active; 'I' for Inactive)
REMARK    1  A    between atoms: C2_2  and  C4_4 
REMARK    2  A    between atoms: C4_4  and  C6_7 
REMARK    3  A    between atoms: C6_7  and  N2_9 
REMARK    4  A    between atoms: N2_9  and  C8_10 
REMARK    5  A    between atoms: C12_16  and  C13_17 
REMARK    6  A    between atoms: C13_17  and  C14_18 
REMARK    7  A    between atoms: C13_17  and  O1_20 
REMARK    8  A    between atoms: O1_20  and  C16_21 
REMARK    9  A    between atoms: C19_24  and  C20_25 
REMARK   10  A    between atoms: C22_28  and  O2_29 
ROOT
HETATM    1  C4  UNL     1      27.213   0.240  53.065  1.00  0.00     0.166 C 
HETATM    2  C5  UNL     1      27.166  -1.190  52.838  1.00  0.00     0.074 C 
HETATM    3  N1  UNL     1      27.127  -2.333  52.678  1.00  0.00    -0.196 NA
ENDROOT
BRANCH   1   4
HETATM    4  C2  UNL     1      28.565   0.746  53.407  1.00  0.00    -0.070 C 
HETATM    5  C1  UNL     1      29.703   0.113  53.625  1.00  0.00     0.015 C 
HETATM    6  C3  UNL     1      28.588   2.235  53.509  1.00  0.00     0.044 C 
ENDBRANCH   1   4
BRANCH   1   7
HETATM    7  C6  UNL     1      26.183   0.645  54.081  1.00  0.00     0.010 C 
HETATM    8  C7  UNL     1      26.130  -0.081  55.194  1.00  0.00     0.060 C 
BRANCH   7   9
HETATM    9  N2  UNL     1      25.250   1.719  54.080  1.00  0.00    -0.344 N 
HETATM   10  H9  UNL     1      25.041   2.564  54.682  1.00  0.00     0.167 HD
BRANCH   9  11
HETATM   11  C8  UNL     1      24.289   1.722  53.009  1.00  0.00     0.163 C 
HETATM   12  N3  UNL     1      24.269   2.441  51.871  1.00  0.00    -0.222 NA
HETATM   13  C9  UNL     1      23.146   3.033  51.403  1.00  0.00     0.235 C 
HETATM   14  N4  UNL     1      23.304   2.058  50.492  1.00  0.00    -0.254 NA
HETATM   15  C10 UNL     1      22.337   1.622  49.689  1.00  0.00     0.118 C 
HETATM   16  C11 UNL     1      21.219   0.823  49.815  1.00  0.00     0.029 C 
HETATM   17  C12 UNL     1      20.269   0.942  50.783  1.00  0.00    -0.028 C 
HETATM   18  C18 UNL     1      20.993   0.665  51.907  1.00  0.00     0.021 C 
HETATM   19  C19 UNL     1      21.818   0.655  52.994  1.00  0.00    -0.007 C 
HETATM   20  C22 UNL     1      23.172   0.922  52.979  1.00  0.00     0.119 C 
BRANCH  17  21
HETATM   21  C13 UNL     1      18.861   1.264  50.602  1.00  0.00     0.154 C 
BRANCH  21  22
HETATM   22  C14 UNL     1      18.017  -0.029  50.518  1.00  0.00     0.032 C 
HETATM   23  C15 UNL     1      17.535  -0.471  51.856  1.00  0.00     0.008 C 
ENDBRANCH  21  22
BRANCH  21  24
HETATM   24  O1  UNL     1      18.378   2.025  51.665  1.00  0.00    -0.382 OA
BRANCH  24  25
HETATM   25  C16 UNL     1      17.938   3.271  51.324  1.00  0.00     0.164 C 
HETATM   26  C17 UNL     1      18.938   4.210  50.741  1.00  0.00     0.033 C 
ENDBRANCH  24  25
ENDBRANCH  21  24
ENDBRANCH  17  21
BRANCH  19  27
HETATM   27  C20 UNL     1      21.353   0.343  54.363  1.00  0.00     0.165 C 
HETATM   28  C21 UNL     1      21.933  -0.852  54.923  1.00  0.00     0.063 C 
HETATM   29  N5  UNL     1      22.370  -1.793  55.368  1.00  0.00    -0.197 NA
ENDBRANCH  19  27
BRANCH  20  30
HETATM   30  O2  UNL     1      23.733  -0.352  52.870  1.00  0.00    -0.357 OA
HETATM   31  H27 UNL     1      24.292  -0.696  53.628  1.00  0.00     0.218 HD
ENDBRANCH  20  30
ENDBRANCH   9  11
ENDBRANCH   7   9
ENDBRANCH   1   7
TORSDOF 10
ENDMDL
MODEL 3
REMARK VINA RESULT:      -7.4      2.472      6.892
REMARK  10 active torsions:
REMARK  status: ('A' for Active; 'I' for Inactive)
REMARK    1  A    between atoms: C2_2  and  C4_4 
REMARK    2  A    between atoms: C4_4  and  C6_7 
REMARK    3  A    between atoms: C6_7  and  N2_9 
REMARK    4  A    between atoms: N2_9  and  C8_10 
REMARK    5  A    between atoms: C12_16  and  C13_17 
REMARK    6  A    between atoms: C13_17  and  C14_18 
REMARK    7  A    between atoms: C13_17  and  O1_20 
REMARK    8  A    between atoms: O1_20  and  C16_21 
REMARK    9  A    between atoms: C19_24  and  C20_25 
REMARK   10  A    between atoms: C22_28  and  O2_29 
ROOT
HETATM    1  C4  UNL     1      26.043   7.189  49.969  1.00  0.00     0.166 C 
HETATM    2  C5  UNL     1      26.395   8.589  50.092  1.00  0.00     0.074 C 
HETATM    3  N1  UNL     1      26.660   9.709  50.179  1.00  0.00    -0.196 NA
ENDROOT
BRANCH   1   4
HETATM    4  C2  UNL     1      26.601   6.538  48.759  1.00  0.00    -0.070 C 
HETATM    5  C1  UNL     1      27.196   5.370  48.593  1.00  0.00     0.015 C 
HETATM    6  C3  UNL     1      26.433   7.390  47.545  1.00  0.00     0.044 C 
ENDBRANCH   1   4
BRANCH   1   7
HETATM    7  C6  UNL     1      24.555   7.010  50.073  1.00  0.00     0.010 C 
HETATM    8  C7  UNL     1      23.934   7.734  51.000  1.00  0.00     0.060 C 
BRANCH   7   9
HETATM    9  N2  UNL     1      23.661   6.206  49.313  1.00  0.00    -0.344 N 
HETATM   10  H9  UNL     1      23.239   6.224  48.342  1.00  0.00     0.167 HD
BRANCH   9  11
HETATM   11  C8  UNL     1      23.137   5.042  49.975  1.00  0.00     0.163 C 
HETATM   12  N3  UNL     1      21.912   4.819  50.487  1.00  0.00    -0.222 NA
HETATM   13  C9  UNL     1      21.721   4.231  51.690  1.00  0.00     0.235 C 
HETATM   14  N4  UNL     1      21.285   3.258  50.873  1.00  0.00    -0.254 NA
HETATM   15  C10 UNL     1      21.160   1.982  51.232  1.00  0.00     0.118 C 
HETATM   16  C11 UNL     1      22.012   0.918  51.448  1.00  0.00     0.029 C 
HETATM   17  C12 UNL     1      23.138   0.953  52.212  1.00  0.00    -0.028 C 
HETATM   18  C18 UNL     1      23.906   1.846  51.521  1.00  0.00     0.021 C 
HETATM   19  C19 UNL     1      24.499   2.934  50.950  1.00  0.00    -0.007 C 
HETATM   20  C22 UNL     1      23.859   3.892  50.189  1.00  0.00     0.119 C 
BRANCH  17  21
HETATM   21  C13 UNL     1      23.403   0.197  53.428  1.00  0.00     0.154 C 
BRANCH  21  22
HETATM   22  C14 UNL     1      22.328  -0.896  53.629  1.00  0.00     0.032 C 
HETATM   23  C15 UNL     1      21.341  -0.523  54.681  1.00  0.00     0.008 C 
ENDBRANCH  21  22
BRANCH  21  24
HETATM   24  O1  UNL     1      24.648  -0.428  53.371  1.00  0.00    -0.382 OA
BRANCH  24  25
HETATM   25  C16 UNL     1      25.136  -0.840  54.577  1.00  0.00     0.164 C 
HETATM   26  C17 UNL     1      26.244  -0.040  55.171  1.00  0.00     0.033 C 
ENDBRANCH  24  25
ENDBRANCH  21  24
ENDBRANCH  17  21
BRANCH  19  27
HETATM   27  C20 UNL     1      25.943   3.230  51.071  1.00  0.00     0.165 C 
HETATM   28  C21 UNL     1      26.715   2.162  51.654  1.00  0.00     0.063 C 
HETATM   29  N5  UNL     1      27.329   1.337  52.121  1.00  0.00    -0.197 NA
ENDBRANCH  19  27
BRANCH  20  30
HETATM   30  O2  UNL     1      24.055   3.429  48.887  1.00  0.00    -0.357 OA
HETATM   31  H27 UNL     1      24.398   2.495  48.758  1.00  0.00     0.218 HD
ENDBRANCH  20  30
ENDBRANCH   9  11
ENDBRANCH   7   9
ENDBRANCH   1   7
TORSDOF 10
ENDMDL
MODEL 4
REMARK VINA RESULT:      -7.3      1.849      2.600
REMARK  10 active torsions:
REMARK  status: ('A' for Active; 'I' for Inactive)
REMARK    1  A    between atoms: C2_2  and  C4_4 
REMARK    2  A    between atoms: C4_4  and  C6_7 
REMARK    3  A    between atoms: C6_7  and  N2_9 
REMARK    4  A    between atoms: N2_9  and  C8_10 
REMARK    5  A    between atoms: C12_16  and  C13_17 
REMARK    6  A    between atoms: C13_17  and  C14_18 
REMARK    7  A    between atoms: C13_17  and  O1_20 
REMARK    8  A    between atoms: O1_20  and  C16_21 
REMARK    9  A    between atoms: C19_24  and  C20_25 
REMARK   10  A    between atoms: C22_28  and  O2_29 
ROOT
HETATM    1  C4  UNL     1      27.415   0.269  53.568  1.00  0.00     0.166 C 
HETATM    2  C5  UNL     1      26.617  -0.154  54.702  1.00  0.00     0.074 C 
HETATM    3  N1  UNL     1      25.978  -0.472  55.609  1.00  0.00    -0.196 NA
ENDROOT
BRANCH   1   4
HETATM    4  C2  UNL     1      28.820   0.591  53.915  1.00  0.00    -0.070 C 
HETATM    5  C1  UNL     1      29.361   1.674  54.446  1.00  0.00     0.015 C 
HETATM    6  C3  UNL     1      29.743  -0.536  53.591  1.00  0.00     0.044 C 
ENDBRANCH   1   4
BRANCH   1   7
HETATM    7  C6  UNL     1      26.739   1.395  52.841  1.00  0.00     0.010 C 
HETATM    8  C7  UNL     1      26.826   1.381  51.513  1.00  0.00     0.060 C 
BRANCH   7   9
HETATM    9  N2  UNL     1      25.971   2.488  53.330  1.00  0.00    -0.344 N 
HETATM   10  H9  UNL     1      26.128   3.324  53.962  1.00  0.00     0.167 HD
BRANCH   9  11
HETATM   11  C8  UNL     1      24.598   2.539  52.905  1.00  0.00     0.163 C 
HETATM   12  N3  UNL     1      23.659   1.574  52.907  1.00  0.00    -0.222 NA
HETATM   13  C9  UNL     1      22.823   1.369  51.863  1.00  0.00     0.235 C 
HETATM   14  N4  UNL     1      21.963   1.862  52.770  1.00  0.00    -0.254 NA
HETATM   15  C10 UNL     1      20.773   2.376  52.469  1.00  0.00     0.118 C 
HETATM   16  C11 UNL     1      20.304   3.553  51.922  1.00  0.00     0.029 C 
HETATM   17  C12 UNL     1      20.768   4.133  50.781  1.00  0.00    -0.028 C 
HETATM   18  C18 UNL     1      22.054   4.430  51.133  1.00  0.00     0.021 C 
HETATM   19  C19 UNL     1      23.382   4.446  51.446  1.00  0.00    -0.007 C 
HETATM   20  C22 UNL     1      23.989   3.667  52.410  1.00  0.00     0.119 C 
BRANCH  17  21
HETATM   21  C13 UNL     1      20.032   4.364  49.546  1.00  0.00     0.154 C 
BRANCH  21  22
HETATM   22  C14 UNL     1      19.322   5.738  49.590  1.00  0.00     0.032 C 
HETATM   23  C15 UNL     1      20.001   6.747  48.731  1.00  0.00     0.008 C 
ENDBRANCH  21  22
BRANCH  21  24
HETATM   24  O1  UNL     1      20.883   4.354  48.443  1.00  0.00    -0.382 OA
BRANCH  24  25
HETATM   25  C16 UNL     1      20.956   3.160  47.787  1.00  0.00     0.164 C 
HETATM   26  C17 UNL     1      22.248   2.421  47.861  1.00  0.00     0.033 C 
ENDBRANCH  24  25
ENDBRANCH  21  24
ENDBRANCH  17  21
BRANCH  19  27
HETATM   27  C20 UNL     1      24.363   5.326  50.777  1.00  0.00     0.165 C 
HETATM   28  C21 UNL     1      25.349   4.623  49.996  1.00  0.00     0.063 C 
HETATM   29  N5  UNL     1      26.134   4.082  49.391  1.00  0.00    -0.197 NA
ENDBRANCH  19  27
BRANCH  20  30
HETATM   30  O2  UNL     1      23.985   4.505  53.526  1.00  0.00    -0.357 OA
HETATM   31  H27 UNL     1      24.751   4.448  54.171  1.00  0.00     0.218 HD
ENDBRANCH  20  30
ENDBRANCH   9  11
ENDBRANCH   7   9
ENDBRANCH   1   7
TORSDOF 10
ENDMDL
MODEL 5
REMARK VINA RESULT:      -7.2      2.858      6.817
REMARK  10 active torsions:
REMARK  status: ('A' for Active; 'I' for Inactive)
REMARK    1  A    between atoms: C2_2  and  C4_4 
REMARK    2  A    between atoms: C4_4  and  C6_7 
REMARK    3  A    between atoms: C6_7  and  N2_9 
REMARK    4  A    between atoms: N2_9  and  C8_10 
REMARK    5  A    between atoms: C12_16  and  C13_17 
REMARK    6  A    between atoms: C13_17  and  C14_18 
REMARK    7  A    between atoms: C13_17  and  O1_20 
REMARK    8  A    between atoms: O1_20  and  C16_21 
REMARK    9  A    between atoms: C19_24  and  C20_25 
REMARK   10  A    between atoms: C22_28  and  O2_29 
ROOT
HETATM    1  C4  UNL     1      26.050   6.389  48.613  1.00  0.00     0.166 C 
HETATM    2  C5  UNL     1      26.904   5.227  48.760  1.00  0.00     0.074 C 
HETATM    3  N1  UNL     1      27.587   4.306  48.896  1.00  0.00    -0.196 NA
ENDROOT
BRANCH   1   4
HETATM    4  C2  UNL     1      26.788   7.634  48.287  1.00  0.00    -0.070 C 
HETATM    5  C1  UNL     1      27.662   8.337  48.984  1.00  0.00     0.015 C 
HETATM    6  C3  UNL     1      26.450   8.135  46.923  1.00  0.00     0.044 C 
ENDBRANCH   1   4
BRANCH   1   7
HETATM    7  C6  UNL     1      25.172   6.552  49.821  1.00  0.00     0.010 C 
HETATM    8  C7  UNL     1      24.352   7.599  49.821  1.00  0.00     0.060 C 
BRANCH   7   9
HETATM    9  N2  UNL     1      25.034   5.745  50.984  1.00  0.00    -0.344 N 
HETATM   10  H9  UNL     1      25.489   5.676  51.938  1.00  0.00     0.167 HD
BRANCH   9  11
HETATM   11  C8  UNL     1      24.033   4.713  50.924  1.00  0.00     0.163 C 
HETATM   12  N3  UNL     1      22.767   4.766  50.470  1.00  0.00    -0.222 NA
HETATM   13  C9  UNL     1      21.732   4.199  51.131  1.00  0.00     0.235 C 
HETATM   14  N4  UNL     1      21.816   3.383  50.067  1.00  0.00    -0.254 NA
HETATM   15  C10 UNL     1      21.292   2.161  50.020  1.00  0.00     0.118 C 
HETATM   16  C11 UNL     1      21.604   0.920  50.538  1.00  0.00     0.029 C 
HETATM   17  C12 UNL     1      21.915   0.663  51.838  1.00  0.00    -0.028 C 
HETATM   18  C18 UNL     1      23.071   1.376  51.985  1.00  0.00     0.021 C 
HETATM   19  C19 UNL     1      24.049   2.314  52.143  1.00  0.00    -0.007 C 
HETATM   20  C22 UNL     1      24.240   3.420  51.340  1.00  0.00     0.119 C 
BRANCH  17  21
HETATM   21  C13 UNL     1      21.177  -0.175  52.772  1.00  0.00     0.154 C 
BRANCH  21  22
HETATM   22  C14 UNL     1      21.918  -0.254  54.128  1.00  0.00     0.032 C 
HETATM   23  C15 UNL     1      21.910  -1.632  54.691  1.00  0.00     0.008 C 
ENDBRANCH  21  22
BRANCH  21  24
HETATM   24  O1  UNL     1      19.902   0.334  53.007  1.00  0.00    -0.382 OA
BRANCH  24  25
HETATM   25  C16 UNL     1      18.880  -0.516  52.697  1.00  0.00     0.164 C 
HETATM   26  C17 UNL     1      18.113  -0.232  51.451  1.00  0.00     0.033 C 
ENDBRANCH  24  25
ENDBRANCH  21  24
ENDBRANCH  17  21
BRANCH  19  27
HETATM   27  C20 UNL     1      25.060   2.259  53.220  1.00  0.00     0.165 C 
HETATM   28  C21 UNL     1      25.420   0.922  53.623  1.00  0.00     0.063 C 
HETATM   29  N5  UNL     1      25.699  -0.120  53.956  1.00  0.00    -0.197 NA
ENDBRANCH  19  27
BRANCH  20  30
HETATM   30  O2  UNL     1      25.185   2.969  50.418  1.00  0.00    -0.357 OA
HETATM   31  H27 UNL     1      25.561   2.045  50.530  1.00  0.00     0.218 HD
ENDBRANCH  20  30
ENDBRANCH   9  11
ENDBRANCH   7   9
ENDBRANCH   1   7
TORSDOF 10
ENDMDL
MODEL 6
REMARK VINA RESULT:      -7.2      2.494      7.007
REMARK  10 active torsions:
REMARK  status: ('A' for Active; 'I' for Inactive)
REMARK    1  A    between atoms: C2_2  and  C4_4 
REMARK    2  A    between atoms: C4_4  and  C6_7 
REMARK    3  A    between atoms: C6_7  and  N2_9 
REMARK    4  A    between atoms: N2_9  and  C8_10 
REMARK    5  A    between atoms: C12_16  and  C13_17 
REMARK    6  A    between atoms: C13_17  and  C14_18 
REMARK    7  A    between atoms: C13_17  and  O1_20 
REMARK    8  A    between atoms: O1_20  and  C16_21 
REMARK    9  A    between atoms: C19_24  and  C20_25 
REMARK   10  A    between atoms: C22_28  and  O2_29 
ROOT
HETATM    1  C4  UNL     1      27.010   6.612  47.923  1.00  0.00     0.166 C 
HETATM    2  C5  UNL     1      28.107   5.743  48.300  1.00  0.00     0.074 C 
HETATM    3  N1  UNL     1      28.978   5.056  48.619  1.00  0.00    -0.196 NA
ENDROOT
BRANCH   1   4
HETATM    4  C2  UNL     1      27.416   8.020  47.693  1.00  0.00    -0.070 C 
HETATM    5  C1  UNL     1      27.272   8.808  46.643  1.00  0.00     0.015 C 
HETATM    6  C3  UNL     1      28.100   8.600  48.886  1.00  0.00     0.044 C 
ENDBRANCH   1   4
BRANCH   1   7
HETATM    7  C6  UNL     1      25.888   6.502  48.916  1.00  0.00     0.010 C 
HETATM    8  C7  UNL     1      24.662   6.736  48.454  1.00  0.00     0.060 C 
BRANCH   7   9
HETATM    9  N2  UNL     1      25.898   6.150  50.294  1.00  0.00    -0.344 N 
HETATM   10  H9  UNL     1      26.442   6.426  51.159  1.00  0.00     0.167 HD
BRANCH   9  11
HETATM   11  C8  UNL     1      24.949   5.147  50.699  1.00  0.00     0.163 C 
HETATM   12  N3  UNL     1      23.666   5.280  51.082  1.00  0.00    -0.222 NA
HETATM   13  C9  UNL     1      23.150   4.619  52.144  1.00  0.00     0.235 C 
HETATM   14  N4  UNL     1      22.525   3.985  51.138  1.00  0.00    -0.254 NA
HETATM   15  C10 UNL     1      21.953   2.789  51.250  1.00  0.00     0.118 C 
HETATM   16  C11 UNL     1      22.382   1.480  51.324  1.00  0.00     0.029 C 
HETATM   17  C12 UNL     1      23.357   1.015  52.152  1.00  0.00    -0.028 C 
HETATM   18  C18 UNL     1      24.451   1.688  51.686  1.00  0.00     0.021 C 
HETATM   19  C19 UNL     1      25.428   2.583  51.360  1.00  0.00    -0.007 C 
HETATM   20  C22 UNL     1      25.229   3.803  50.746  1.00  0.00     0.119 C 
BRANCH  17  21
HETATM   21  C13 UNL     1      23.214   0.041  53.225  1.00  0.00     0.154 C 
BRANCH  21  22
HETATM   22  C14 UNL     1      21.936  -0.805  53.020  1.00  0.00     0.032 C 
HETATM   23  C15 UNL     1      21.365  -1.279  54.311  1.00  0.00     0.008 C 
ENDBRANCH  21  22
BRANCH  21  24
HETATM   24  O1  UNL     1      24.304  -0.826  53.266  1.00  0.00    -0.382 OA
BRANCH  24  25
HETATM   25  C16 UNL     1      25.157  -0.625  54.312  1.00  0.00     0.164 C 
HETATM   26  C17 UNL     1      24.739  -1.153  55.642  1.00  0.00     0.033 C 
ENDBRANCH  24  25
ENDBRANCH  21  24
ENDBRANCH  17  21
BRANCH  19  27
HETATM   27  C20 UNL     1      26.863   2.349  51.626  1.00  0.00     0.165 C 
HETATM   28  C21 UNL     1      27.197   2.264  53.025  1.00  0.00     0.063 C 
HETATM   29  N5  UNL     1      27.473   2.209  54.119  1.00  0.00    -0.197 NA
ENDBRANCH  19  27
BRANCH  20  30
HETATM   30  O2  UNL     1      25.421   3.501  49.398  1.00  0.00    -0.357 OA
HETATM   31  H27 UNL     1      24.791   3.896  48.724  1.00  0.00     0.218 HD
ENDBRANCH  20  30
ENDBRANCH   9  11
ENDBRANCH   7   9
ENDBRANCH   1   7
TORSDOF 10
ENDMDL
MODEL 7
REMARK VINA RESULT:      -7.1      3.063      7.089
REMARK  10 active torsions:
REMARK  status: ('A' for Active; 'I' for Inactive)
REMARK    1  A    between atoms: C2_2  and  C4_4 
REMARK    2  A    between atoms: C4_4  and  C6_7 
REMARK    3  A    between atoms: C6_7  and  N2_9 
REMARK    4  A    between atoms: N2_9  and  C8_10 
REMARK    5  A    between atoms: C12_16  and  C13_17 
REMARK    6  A    between atoms: C13_17  and  C14_18 
REMARK    7  A    between atoms: C13_17  and  O1_20 
REMARK    8  A    between atoms: O1_20  and  C16_21 
REMARK    9  A    between atoms: C19_24  and  C20_25 
REMARK   10  A    between atoms: C22_28  and  O2_29 
ROOT
HETATM    1  C4  UNL     1      26.643   6.929  48.008  1.00  0.00     0.166 C 
HETATM    2  C5  UNL     1      27.954   6.357  48.240  1.00  0.00     0.074 C 
HETATM    3  N1  UNL     1      29.003   5.916  48.438  1.00  0.00    -0.196 NA
ENDROOT
BRANCH   1   4
HETATM    4  C2  UNL     1      26.644   8.052  47.039  1.00  0.00    -0.070 C 
HETATM    5  C1  UNL     1      27.631   8.788  46.559  1.00  0.00     0.015 C 
HETATM    6  C3  UNL     1      25.269   8.363  46.551  1.00  0.00     0.044 C 
ENDBRANCH   1   4
BRANCH   1   7
HETATM    7  C6  UNL     1      25.997   7.306  49.311  1.00  0.00     0.010 C 
HETATM    8  C7  UNL     1      26.611   8.243  50.028  1.00  0.00     0.060 C 
BRANCH   7   9
HETATM    9  N2  UNL     1      24.793   6.851  49.916  1.00  0.00    -0.344 N 
HETATM   10  H9  UNL     1      23.827   7.240  50.106  1.00  0.00     0.167 HD
BRANCH   9  11
HETATM   11  C8  UNL     1      24.818   5.515  50.449  1.00  0.00     0.163 C 
HETATM   12  N3  UNL     1      25.723   4.534  50.274  1.00  0.00    -0.222 NA
HETATM   13  C9  UNL     1      25.369   3.250  50.038  1.00  0.00     0.235 C 
HETATM   14  N4  UNL     1      25.859   3.141  51.284  1.00  0.00    -0.254 NA
HETATM   15  C10 UNL     1      25.600   2.124  52.103  1.00  0.00     0.118 C 
HETATM   16  C11 UNL     1      24.534   1.712  52.877  1.00  0.00     0.029 C 
HETATM   17  C12 UNL     1      23.244   1.613  52.454  1.00  0.00    -0.028 C 
HETATM   18  C18 UNL     1      22.952   2.916  52.169  1.00  0.00     0.021 C 
HETATM   19  C19 UNL     1      22.818   4.171  51.648  1.00  0.00    -0.007 C 
HETATM   20  C22 UNL     1      23.855   5.006  51.288  1.00  0.00     0.119 C 
BRANCH  17  21
HETATM   21  C13 UNL     1      22.434   0.406  52.368  1.00  0.00     0.154 C 
BRANCH  21  22
HETATM   22  C14 UNL     1      22.441  -0.347  53.719  1.00  0.00     0.032 C 
HETATM   23  C15 UNL     1      21.266   0.008  54.563  1.00  0.00     0.008 C 
ENDBRANCH  21  22
BRANCH  21  24
HETATM   24  O1  UNL     1      21.111   0.709  52.050  1.00  0.00    -0.382 OA
BRANCH  24  25
HETATM   25  C16 UNL     1      20.695   0.249  50.835  1.00  0.00     0.164 C 
HETATM   26  C17 UNL     1      21.110   1.029  49.634  1.00  0.00     0.033 C 
ENDBRANCH  24  25
ENDBRANCH  21  24
ENDBRANCH  17  21
BRANCH  19  27
HETATM   27  C20 UNL     1      21.509   4.812  51.403  1.00  0.00     0.165 C 
HETATM   28  C21 UNL     1      20.380   4.043  51.865  1.00  0.00     0.063 C 
HETATM   29  N5  UNL     1      19.488   3.444  52.210  1.00  0.00    -0.197 NA
ENDBRANCH  19  27
BRANCH  20  30
HETATM   30  O2  UNL     1      24.032   5.784  52.433  1.00  0.00    -0.357 OA
HETATM   31  H27 UNL     1      24.813   6.414  52.469  1.00  0.00     0.218 HD
ENDBRANCH  20  30
ENDBRANCH   9  11
ENDBRANCH   7   9
ENDBRANCH   1   7
TORSDOF 10
ENDMDL
MODEL 8
REMARK VINA RESULT:      -7.0      3.246      6.984
REMARK  10 active torsions:
REMARK  status: ('A' for Active; 'I' for Inactive)
REMARK    1  A    between atoms: C2_2  and  C4_4 
REMARK    2  A    between atoms: C4_4  and  C6_7 
REMARK    3  A    between atoms: C6_7  and  N2_9 
REMARK    4  A    between atoms: N2_9  and  C8_10 
REMARK    5  A    between atoms: C12_16  and  C13_17 
REMARK    6  A    between atoms: C13_17  and  C14_18 
REMARK    7  A    between atoms: C13_17  and  O1_20 
REMARK    8  A    between atoms: O1_20  and  C16_21 
REMARK    9  A    between atoms: C19_24  and  C20_25 
REMARK   10  A    between atoms: C22_28  and  O2_29 
ROOT
HETATM    1  C4  UNL     1      27.294   7.747  49.076  1.00  0.00     0.166 C 
HETATM    2  C5  UNL     1      27.543   9.144  49.368  1.00  0.00     0.074 C 
HETATM    3  N1  UNL     1      27.730  10.262  49.585  1.00  0.00    -0.196 NA
ENDROOT
BRANCH   1   4
HETATM    4  C2  UNL     1      28.232   7.169  48.082  1.00  0.00    -0.070 C 
HETATM    5  C1  UNL     1      28.860   7.715  47.056  1.00  0.00     0.015 C 
HETATM    6  C3  UNL     1      28.475   5.718  48.330  1.00  0.00     0.044 C 
ENDBRANCH   1   4
BRANCH   1   7
HETATM    7  C6  UNL     1      25.858   7.539  48.686  1.00  0.00     0.010 C 
HETATM    8  C7  UNL     1      25.569   7.672  47.395  1.00  0.00     0.060 C 
BRANCH   7   9
HETATM    9  N2  UNL     1      24.726   7.182  49.470  1.00  0.00    -0.344 N 
HETATM   10  H9  UNL     1      23.809   7.628  49.753  1.00  0.00     0.167 HD
BRANCH   9  11
HETATM   11  C8  UNL     1      24.766   5.883  50.087  1.00  0.00     0.163 C 
HETATM   12  N3  UNL     1      25.562   4.829  49.826  1.00  0.00    -0.222 NA
HETATM   13  C9  UNL     1      25.093   3.563  49.753  1.00  0.00     0.235 C 
HETATM   14  N4  UNL     1      25.797   3.495  50.895  1.00  0.00    -0.254 NA
HETATM   15  C10 UNL     1      25.631   2.553  51.820  1.00  0.00     0.118 C 
HETATM   16  C11 UNL     1      24.703   2.269  52.802  1.00  0.00     0.029 C 
HETATM   17  C12 UNL     1      23.353   2.240  52.627  1.00  0.00    -0.028 C 
HETATM   18  C18 UNL     1      23.094   3.541  52.302  1.00  0.00     0.021 C 
HETATM   19  C19 UNL     1      22.944   4.767  51.723  1.00  0.00    -0.007 C 
HETATM   20  C22 UNL     1      23.946   5.500  51.121  1.00  0.00     0.119 C 
BRANCH  17  21
HETATM   21  C13 UNL     1      22.469   1.093  52.778  1.00  0.00     0.154 C 
BRANCH  21  22
HETATM   22  C14 UNL     1      21.942   0.632  51.399  1.00  0.00     0.032 C 
HETATM   23  C15 UNL     1      20.524   1.029  51.180  1.00  0.00     0.008 C 
ENDBRANCH  21  22
BRANCH  21  24
HETATM   24  O1  UNL     1      23.133   0.019  53.367  1.00  0.00    -0.382 OA
BRANCH  24  25
HETATM   25  C16 UNL     1      22.424  -1.147  53.393  1.00  0.00     0.164 C 
HETATM   26  C17 UNL     1      21.529  -1.373  54.563  1.00  0.00     0.033 C 
ENDBRANCH  24  25
ENDBRANCH  21  24
ENDBRANCH  17  21
BRANCH  19  27
HETATM   27  C20 UNL     1      21.654   5.488  51.671  1.00  0.00     0.165 C 
HETATM   28  C21 UNL     1      20.831   5.141  50.539  1.00  0.00     0.063 C 
HETATM   29  N5  UNL     1      20.184   4.888  49.649  1.00  0.00    -0.197 NA
ENDBRANCH  19  27
BRANCH  20  30
HETATM   30  O2  UNL     1      24.379   6.332  52.154  1.00  0.00    -0.357 OA
HETATM   31  H27 UNL     1      25.147   6.953  51.980  1.00  0.00     0.218 HD
ENDBRANCH  20  30
ENDBRANCH   9  11
ENDBRANCH   7   9
ENDBRANCH   1   7
TORSDOF 10
ENDMDL
MODEL 9
REMARK VINA RESULT:      -6.9      2.573      6.749
REMARK  10 active torsions:
REMARK  status: ('A' for Active; 'I' for Inactive)
REMARK    1  A    between atoms: C2_2  and  C4_4 
REMARK    2  A    between atoms: C4_4  and  C6_7 
REMARK    3  A    between atoms: C6_7  and  N2_9 
REMARK    4  A    between atoms: N2_9  and  C8_10 
REMARK    5  A    between atoms: C12_16  and  C13_17 
REMARK    6  A    between atoms: C13_17  and  C14_18 
REMARK    7  A    between atoms: C13_17  and  O1_20 
REMARK    8  A    between atoms: O1_20  and  C16_21 
REMARK    9  A    between atoms: C19_24  and  C20_25 
REMARK   10  A    between atoms: C22_28  and  O2_29 
ROOT
HETATM    1  C4  UNL     1      26.340   6.629  48.109  1.00  0.00     0.166 C 
HETATM    2  C5  UNL     1      27.324   5.641  48.506  1.00  0.00     0.074 C 
HETATM    3  N1  UNL     1      28.106   4.862  48.841  1.00  0.00    -0.196 NA
ENDROOT
BRANCH   1   4
HETATM    4  C2  UNL     1      26.919   7.960  47.807  1.00  0.00    -0.070 C 
HETATM    5  C1  UNL     1      28.115   8.466  48.049  1.00  0.00     0.015 C 
HETATM    6  C3  UNL     1      25.941   8.842  47.105  1.00  0.00     0.044 C 
ENDBRANCH   1   4
BRANCH   1   7
HETATM    7  C6  UNL     1      25.237   6.709  49.126  1.00  0.00     0.010 C 
HETATM    8  C7  UNL     1      25.598   7.010  50.371  1.00  0.00     0.060 C 
BRANCH   7   9
HETATM    9  N2  UNL     1      23.831   6.549  48.985  1.00  0.00    -0.344 N 
HETATM   10  H9  UNL     1      23.054   6.990  48.416  1.00  0.00     0.167 HD
BRANCH   9  11
HETATM   11  C8  UNL     1      23.222   5.543  49.813  1.00  0.00     0.163 C 
HETATM   12  N3  UNL     1      22.276   5.665  50.764  1.00  0.00    -0.222 NA
HETATM   13  C9  UNL     1      22.352   5.026  51.954  1.00  0.00     0.235 C 
HETATM   14  N4  UNL     1      21.339   4.354  51.382  1.00  0.00    -0.254 NA
HETATM   15  C10 UNL     1      20.924   3.152  51.777  1.00  0.00     0.118 C 
HETATM   16  C11 UNL     1      21.373   1.852  51.658  1.00  0.00     0.029 C 
HETATM   17  C12 UNL     1      22.639   1.428  51.923  1.00  0.00    -0.028 C 
HETATM   18  C18 UNL     1      23.355   2.105  50.977  1.00  0.00     0.021 C 
HETATM   19  C19 UNL     1      24.031   3.006  50.207  1.00  0.00    -0.007 C 
HETATM   20  C22 UNL     1      23.527   4.205  49.744  1.00  0.00     0.119 C 
BRANCH  17  21
HETATM   21  C13 UNL     1      23.056   0.483  52.950  1.00  0.00     0.154 C 
BRANCH  21  22
HETATM   22  C14 UNL     1      24.538   0.713  53.325  1.00  0.00     0.032 C 
HETATM   23  C15 UNL     1      25.395  -0.450  52.961  1.00  0.00     0.008 C 
ENDBRANCH  21  22
BRANCH  21  24
HETATM   24  O1  UNL     1      22.291   0.625  54.106  1.00  0.00    -0.382 OA
BRANCH  24  25
HETATM   25  C16 UNL     1      21.513  -0.453  54.413  1.00  0.00     0.164 C 
HETATM   26  C17 UNL     1      21.905  -1.765  53.825  1.00  0.00     0.033 C 
ENDBRANCH  24  25
ENDBRANCH  21  24
ENDBRANCH  17  21
BRANCH  19  27
HETATM   27  C20 UNL     1      25.424   2.804  49.754  1.00  0.00     0.165 C 
HETATM   28  C21 UNL     1      26.379   2.677  50.826  1.00  0.00     0.063 C 
HETATM   29  N5  UNL     1      27.138   2.590  51.657  1.00  0.00    -0.197 NA
ENDBRANCH  19  27
BRANCH  20  30
HETATM   30  O2  UNL     1      23.057   3.867  48.474  1.00  0.00    -0.357 OA
HETATM   31  H27 UNL     1      23.454   4.330  47.677  1.00  0.00     0.218 HD
ENDBRANCH  20  30
ENDBRANCH   9  11
ENDBRANCH   7   9
ENDBRANCH   1   7
TORSDOF 10
ENDMDL
