MODEL 1
REMARK VINA RESULT:      -8.3      0.000      0.000
REMARK  4 active torsions:
REMARK  status: ('A' for Active; 'I' for Inactive)
REMARK    1  A    between atoms: C2_2  and  S1_3 
REMARK    2  A    between atoms: S1_3  and  N1_6 
REMARK    3  A    between atoms: C11_19  and  C12_20 
REMARK    4  A    between atoms: C18_26  and  O3_27 
ROOT
HETATM    1  N1  UNL     1      26.384   0.390  52.443  1.00  0.00    -0.202 NA
HETATM    2  C3  UNL     1      25.740  -0.716  53.084  1.00  0.00     0.112 C 
HETATM    3  C4  UNL     1      24.250  -0.751  52.857  1.00  0.00     0.051 C 
HETATM    4  C5  UNL     1      23.651   0.624  53.009  1.00  0.00    -0.062 C 
HETATM    5  C6  UNL     1      24.331   1.538  52.318  1.00  0.00    -0.004 C 
HETATM    6  C7  UNL     1      25.527   1.105  51.532  1.00  0.00     0.153 C 
HETATM    7  S2  UNL     1      23.888   3.271  52.292  1.00  0.00    -0.108 SA
HETATM    8  C8  UNL     1      24.766   4.191  51.057  1.00  0.00     0.309 C 
HETATM    9  N2  UNL     1      24.408   3.667  49.913  1.00  0.00    -0.289 NA
HETATM   10  C9  UNL     1      23.472   2.568  49.910  1.00  0.00     0.164 C 
HETATM   11  N3  UNL     1      22.360   2.165  50.403  1.00  0.00    -0.272 NA
HETATM   12  C10 UNL     1      21.780   0.887  50.075  1.00  0.00     0.266 C 
HETATM   13  N4  UNL     1      21.644  -0.060  51.082  1.00  0.00    -0.394 N 
HETATM   14  C11 UNL     1      20.818   0.066  52.192  1.00  0.00     0.140 C 
HETATM   15  C18 UNL     1      21.185   1.146  53.135  1.00  0.00     0.149 C 
HETATM   16  C19 UNL     1      22.468   0.826  53.863  1.00  0.00     0.069 C 
HETATM   17  H14 UNL     1      21.768  -1.026  50.701  1.00  0.00     0.155 HD
ENDROOT
BRANCH  14  18
HETATM   18  C12 UNL     1      19.357   0.018  51.896  1.00  0.00    -0.033 A 
HETATM   19  C13 UNL     1      18.731  -0.741  52.898  1.00  0.00     0.009 A 
HETATM   20  C14 UNL     1      17.347  -0.951  52.873  1.00  0.00     0.001 A 
HETATM   21  C15 UNL     1      16.579  -0.415  51.861  1.00  0.00     0.000 A 
HETATM   22  C16 UNL     1      17.218   0.326  50.890  1.00  0.00     0.001 A 
HETATM   23  C17 UNL     1      18.576   0.547  50.893  1.00  0.00     0.009 A 
ENDBRANCH  14  18
BRANCH  15  24
HETATM   24  O3  UNL     1      21.224   2.428  52.687  1.00  0.00    -0.393 OA
HETATM   25  H22 UNL     1      21.968   2.726  52.154  1.00  0.00     0.210 HD
ENDBRANCH  15  24
BRANCH   1  26
HETATM   26  S1  UNL     1      27.258   1.397  53.499  1.00  0.00     0.233 S 
HETATM   27  O1  UNL     1      27.958   2.454  52.697  1.00  0.00    -0.207 OA
HETATM   28  O2  UNL     1      26.384   2.105  54.492  1.00  0.00    -0.207 OA
BRANCH  26  29
HETATM   29  C2  UNL     1      28.456   0.494  54.391  1.00  0.00     0.115 C 
HETATM   30  C1  UNL     1      29.397  -0.143  53.664  1.00  0.00     0.024 C 
ENDBRANCH  26  29
ENDBRANCH   1  26
TORSDOF 4
ENDMDL
MODEL 2
REMARK VINA RESULT:      -8.1      3.045      6.603
REMARK  4 active torsions:
REMARK  status: ('A' for Active; 'I' for Inactive)
REMARK    1  A    between atoms: C2_2  and  S1_3 
REMARK    2  A    between atoms: S1_3  and  N1_6 
REMARK    3  A    between atoms: C11_19  and  C12_20 
REMARK    4  A    between atoms: C18_26  and  O3_27 
ROOT
HETATM    1  N1  UNL     1      25.589   1.265  53.814  1.00  0.00    -0.202 NA
HETATM    2  C3  UNL     1      26.879   1.700  53.369  1.00  0.00     0.112 C 
HETATM    3  C4  UNL     1      26.814   2.784  52.323  1.00  0.00     0.051 C 
HETATM    4  C5  UNL     1      25.757   2.475  51.294  1.00  0.00    -0.062 C 
HETATM    5  C6  UNL     1      24.601   2.132  51.860  1.00  0.00    -0.004 C 
HETATM    6  C7  UNL     1      24.510   2.101  53.352  1.00  0.00     0.153 C 
HETATM    7  S2  UNL     1      23.144   1.694  50.918  1.00  0.00    -0.108 SA
HETATM    8  C8  UNL     1      21.681   1.590  51.915  1.00  0.00     0.309 C 
HETATM    9  N2  UNL     1      21.503   2.793  52.396  1.00  0.00    -0.289 NA
HETATM   10  C9  UNL     1      22.440   3.834  52.046  1.00  0.00     0.164 C 
HETATM   11  N3  UNL     1      23.069   4.360  51.062  1.00  0.00    -0.272 NA
HETATM   12  C10 UNL     1      23.972   5.472  51.218  1.00  0.00     0.266 C 
HETATM   13  N4  UNL     1      25.318   5.283  50.931  1.00  0.00    -0.394 N 
HETATM   14  C11 UNL     1      25.835   4.999  49.673  1.00  0.00     0.140 C 
HETATM   15  C18 UNL     1      25.438   3.691  49.105  1.00  0.00     0.149 C 
HETATM   16  C19 UNL     1      26.078   2.549  49.858  1.00  0.00     0.069 C 
HETATM   17  H14 UNL     1      25.916   5.865  51.560  1.00  0.00     0.155 HD
ENDROOT
BRANCH  14  18
HETATM   18  C12 UNL     1      25.743   6.116  48.690  1.00  0.00    -0.033 A 
HETATM   19  C13 UNL     1      27.046   6.532  48.374  1.00  0.00     0.009 A 
HETATM   20  C14 UNL     1      27.262   7.575  47.465  1.00  0.00     0.001 A 
HETATM   21  C15 UNL     1      26.193   8.209  46.868  1.00  0.00     0.000 A 
HETATM   22  C16 UNL     1      24.924   7.783  47.194  1.00  0.00     0.001 A 
HETATM   23  C17 UNL     1      24.687   6.760  48.084  1.00  0.00     0.009 A 
ENDBRANCH  14  18
BRANCH  15  24
HETATM   24  O3  UNL     1      24.119   3.427  48.915  1.00  0.00    -0.393 OA
HETATM   25  H22 UNL     1      23.739   2.613  49.261  1.00  0.00     0.210 HD
ENDBRANCH  15  24
BRANCH   1  26
HETATM   26  S1  UNL     1      25.305  -0.399  53.614  1.00  0.00     0.233 S 
HETATM   27  O1  UNL     1      25.690  -1.115  54.876  1.00  0.00    -0.207 OA
HETATM   28  O2  UNL     1      23.865  -0.721  53.347  1.00  0.00    -0.207 OA
BRANCH  26  29
HETATM   29  C2  UNL     1      26.250  -1.051  52.298  1.00  0.00     0.115 C 
HETATM   30  C1  UNL     1      27.092  -2.060  52.601  1.00  0.00     0.024 C 
ENDBRANCH  26  29
ENDBRANCH   1  26
TORSDOF 4
ENDMDL
MODEL 3
REMARK VINA RESULT:      -7.9      3.602      7.659
REMARK  4 active torsions:
REMARK  status: ('A' for Active; 'I' for Inactive)
REMARK    1  A    between atoms: C2_2  and  S1_3 
REMARK    2  A    between atoms: S1_3  and  N1_6 
REMARK    3  A    between atoms: C11_19  and  C12_20 
REMARK    4  A    between atoms: C18_26  and  O3_27 
ROOT
HETATM    1  N1  UNL     1      21.177   1.983  52.791  1.00  0.00    -0.202 NA
HETATM    2  C3  UNL     1      22.516   1.495  52.921  1.00  0.00     0.112 C 
HETATM    3  C4  UNL     1      23.532   2.343  52.199  1.00  0.00     0.051 C 
HETATM    4  C5  UNL     1      23.031   2.734  50.832  1.00  0.00    -0.062 C 
HETATM    5  C6  UNL     1      21.790   3.213  50.879  1.00  0.00    -0.004 C 
HETATM    6  C7  UNL     1      21.098   3.295  52.202  1.00  0.00     0.153 C 
HETATM    7  S2  UNL     1      20.898   3.760  49.427  1.00  0.00    -0.108 SA
HETATM    8  C8  UNL     1      19.405   4.631  49.819  1.00  0.00     0.309 C 
HETATM    9  N2  UNL     1      19.786   5.693  50.480  1.00  0.00    -0.289 NA
HETATM   10  C9  UNL     1      21.194   5.901  50.720  1.00  0.00     0.164 C 
HETATM   11  N3  UNL     1      22.345   5.882  50.157  1.00  0.00    -0.272 NA
HETATM   12  C10 UNL     1      23.564   6.183  50.865  1.00  0.00     0.266 C 
HETATM   13  N4  UNL     1      24.514   5.180  51.012  1.00  0.00    -0.394 N 
HETATM   14  C11 UNL     1      25.225   4.593  49.972  1.00  0.00     0.140 C 
HETATM   15  C18 UNL     1      24.414   3.809  49.014  1.00  0.00     0.149 C 
HETATM   16  C19 UNL     1      23.887   2.544  49.649  1.00  0.00     0.069 C 
HETATM   17  H14 UNL     1      25.016   5.277  51.923  1.00  0.00     0.155 HD
ENDROOT
BRANCH  14  18
HETATM   18  C12 UNL     1      26.216   5.487  49.306  1.00  0.00    -0.033 A 
HETATM   19  C13 UNL     1      27.336   4.717  48.956  1.00  0.00     0.009 A 
HETATM   20  C14 UNL     1      28.430   5.304  48.309  1.00  0.00     0.001 A 
HETATM   21  C15 UNL     1      28.421   6.649  48.008  1.00  0.00     0.000 A 
HETATM   22  C16 UNL     1      27.310   7.383  48.362  1.00  0.00     0.001 A 
HETATM   23  C17 UNL     1      26.223   6.829  48.998  1.00  0.00     0.009 A 
ENDBRANCH  14  18
BRANCH  15  24
HETATM   24  O3  UNL     1      23.413   4.427  48.335  1.00  0.00    -0.393 OA
HETATM   25  H22 UNL     1      22.573   3.975  48.204  1.00  0.00     0.210 HD
ENDBRANCH  15  24
BRANCH   1  26
HETATM   26  S1  UNL     1      20.086   0.862  52.123  1.00  0.00     0.233 S 
HETATM   27  O1  UNL     1      18.840   1.584  51.702  1.00  0.00    -0.207 OA
HETATM   28  O2  UNL     1      20.627   0.171  50.905  1.00  0.00    -0.207 OA
BRANCH  26  29
HETATM   29  C2  UNL     1      19.649  -0.367  53.282  1.00  0.00     0.115 C 
HETATM   30  C1  UNL     1      18.441  -0.945  53.124  1.00  0.00     0.024 C 
ENDBRANCH  26  29
ENDBRANCH   1  26
TORSDOF 4
ENDMDL
MODEL 4
REMARK VINA RESULT:      -7.7      3.299      4.842
REMARK  4 active torsions:
REMARK  status: ('A' for Active; 'I' for Inactive)
REMARK    1  A    between atoms: C2_2  and  S1_3 
REMARK    2  A    between atoms: S1_3  and  N1_6 
REMARK    3  A    between atoms: C11_19  and  C12_20 
REMARK    4  A    between atoms: C18_26  and  O3_27 
ROOT
HETATM    1  N1  UNL     1      25.565   5.232  48.919  1.00  0.00    -0.202 NA
HETATM    2  C3  UNL     1      26.330   4.376  49.775  1.00  0.00     0.112 C 
HETATM    3  C4  UNL     1      25.488   3.369  50.516  1.00  0.00     0.051 C 
HETATM    4  C5  UNL     1      24.236   4.010  51.059  1.00  0.00    -0.062 C 
HETATM    5  C6  UNL     1      23.611   4.734  50.134  1.00  0.00    -0.004 C 
HETATM    6  C7  UNL     1      24.196   4.812  48.761  1.00  0.00     0.153 C 
HETATM    7  S2  UNL     1      22.098   5.634  50.457  1.00  0.00    -0.108 SA
HETATM    8  C8  UNL     1      21.328   6.245  48.981  1.00  0.00     0.309 C 
HETATM    9  N2  UNL     1      21.023   5.183  48.283  1.00  0.00    -0.289 NA
HETATM   10  C9  UNL     1      21.347   3.880  48.813  1.00  0.00     0.164 C 
HETATM   11  N3  UNL     1      21.288   3.158  49.870  1.00  0.00    -0.272 NA
HETATM   12  C10 UNL     1      21.783   1.806  49.920  1.00  0.00     0.266 C 
HETATM   13  N4  UNL     1      22.853   1.518  50.757  1.00  0.00    -0.394 N 
HETATM   14  C11 UNL     1      22.827   1.593  52.144  1.00  0.00     0.140 C 
HETATM   15  C18 UNL     1      22.639   2.951  52.702  1.00  0.00     0.149 C 
HETATM   16  C19 UNL     1      23.857   3.813  52.469  1.00  0.00     0.069 C 
HETATM   17  H14 UNL     1      23.458   0.773  50.342  1.00  0.00     0.155 HD
ENDROOT
BRANCH  14  18
HETATM   18  C12 UNL     1      21.979   0.563  52.812  1.00  0.00    -0.033 A 
HETATM   19  C13 UNL     1      22.810  -0.245  53.602  1.00  0.00     0.009 A 
HETATM   20  C14 UNL     1      22.277  -1.302  54.350  1.00  0.00     0.001 A 
HETATM   21  C15 UNL     1      20.923  -1.563  54.318  1.00  0.00     0.000 A 
HETATM   22  C16 UNL     1      20.128  -0.755  53.534  1.00  0.00     0.001 A 
HETATM   23  C17 UNL     1      20.630   0.289  52.790  1.00  0.00     0.009 A 
ENDBRANCH  14  18
BRANCH  15  24
HETATM   24  O3  UNL     1      21.519   3.649  52.377  1.00  0.00    -0.393 OA
HETATM   25  H22 UNL     1      21.059   4.155  53.054  1.00  0.00     0.210 HD
ENDBRANCH  15  24
BRANCH   1  26
HETATM   26  S1  UNL     1      25.743   6.891  49.250  1.00  0.00     0.233 S 
HETATM   27  O1  UNL     1      24.716   7.657  48.469  1.00  0.00    -0.207 OA
HETATM   28  O2  UNL     1      25.535   7.226  50.697  1.00  0.00    -0.207 OA
BRANCH  26  29
HETATM   29  C2  UNL     1      27.327   7.464  48.792  1.00  0.00     0.115 C 
HETATM   30  C1  UNL     1      27.986   6.741  47.863  1.00  0.00     0.024 C 
ENDBRANCH  26  29
ENDBRANCH   1  26
TORSDOF 4
ENDMDL
MODEL 5
REMARK VINA RESULT:      -7.5      8.651     11.653
REMARK  4 active torsions:
REMARK  status: ('A' for Active; 'I' for Inactive)
REMARK    1  A    between atoms: C2_2  and  S1_3 
REMARK    2  A    between atoms: S1_3  and  N1_6 
REMARK    3  A    between atoms: C11_19  and  C12_20 
REMARK    4  A    between atoms: C18_26  and  O3_27 
ROOT
HETATM    1  N1  UNL     1      31.257  10.624  44.940  1.00  0.00    -0.202 NA
HETATM    2  C3  UNL     1      31.011   9.364  44.306  1.00  0.00     0.112 C 
HETATM    3  C4  UNL     1      30.042   8.494  45.066  1.00  0.00     0.051 C 
HETATM    4  C5  UNL     1      30.342   8.518  46.542  1.00  0.00    -0.062 C 
HETATM    5  C6  UNL     1      30.498   9.760  46.995  1.00  0.00    -0.004 C 
HETATM    6  C7  UNL     1      30.363  10.899  46.036  1.00  0.00     0.153 C 
HETATM    7  S2  UNL     1      30.873  10.137  48.704  1.00  0.00    -0.108 SA
HETATM    8  C8  UNL     1      30.716  11.863  49.082  1.00  0.00     0.309 C 
HETATM    9  N2  UNL     1      29.457  12.150  48.873  1.00  0.00    -0.289 NA
HETATM   10  C9  UNL     1      28.565  11.107  48.427  1.00  0.00     0.164 C 
HETATM   11  N3  UNL     1      28.215   9.894  48.643  1.00  0.00    -0.272 NA
HETATM   12  C10 UNL     1      27.195   9.227  47.873  1.00  0.00     0.266 C 
HETATM   13  N4  UNL     1      27.556   8.136  47.094  1.00  0.00    -0.394 N 
HETATM   14  C11 UNL     1      28.024   6.922  47.584  1.00  0.00     0.140 C 
HETATM   15  C18 UNL     1      29.334   6.979  48.271  1.00  0.00     0.149 C 
HETATM   16  C19 UNL     1      30.453   7.256  47.295  1.00  0.00     0.069 C 
HETATM   17  H14 UNL     1      26.979   8.094  46.223  1.00  0.00     0.155 HD
ENDROOT
BRANCH  14  18
HETATM   18  C12 UNL     1      27.011   6.111  48.320  1.00  0.00    -0.033 A 
HETATM   19  C13 UNL     1      27.594   4.877  48.651  1.00  0.00     0.009 A 
HETATM   20  C14 UNL     1      26.865   3.910  49.353  1.00  0.00     0.001 A 
HETATM   21  C15 UNL     1      25.562   4.158  49.729  1.00  0.00     0.000 A 
HETATM   22  C16 UNL     1      25.013   5.376  49.392  1.00  0.00     0.001 A 
HETATM   23  C17 UNL     1      25.709   6.342  48.702  1.00  0.00     0.009 A 
ENDBRANCH  14  18
BRANCH  15  24
HETATM   24  O3  UNL     1      29.473   7.777  49.361  1.00  0.00    -0.393 OA
HETATM   25  H22 UNL     1      29.978   8.594  49.294  1.00  0.00     0.210 HD
ENDBRANCH  15  24
BRANCH   1  26
HETATM   26  S1  UNL     1      32.893  10.921  45.293  1.00  0.00     0.233 S 
HETATM   27  O1  UNL     1      33.525  11.624  44.127  1.00  0.00    -0.207 OA
HETATM   28  O2  UNL     1      33.083  11.802  46.493  1.00  0.00    -0.207 OA
BRANCH  26  29
HETATM   29  C2  UNL     1      33.761   9.434  45.580  1.00  0.00     0.115 C 
HETATM   30  C1  UNL     1      34.263   9.257  46.819  1.00  0.00     0.024 C 
ENDBRANCH  26  29
ENDBRANCH   1  26
TORSDOF 4
ENDMDL
MODEL 6
REMARK VINA RESULT:      -7.4      3.852      5.869
REMARK  4 active torsions:
REMARK  status: ('A' for Active; 'I' for Inactive)
REMARK    1  A    between atoms: C2_2  and  S1_3 
REMARK    2  A    between atoms: S1_3  and  N1_6 
REMARK    3  A    between atoms: C11_19  and  C12_20 
REMARK    4  A    between atoms: C18_26  and  O3_27 
ROOT
HETATM    1  N1  UNL     1      23.696   5.491  48.192  1.00  0.00    -0.202 NA
HETATM    2  C3  UNL     1      24.577   5.267  49.299  1.00  0.00     0.112 C 
HETATM    3  C4  UNL     1      24.120   4.155  50.208  1.00  0.00     0.051 C 
HETATM    4  C5  UNL     1      22.638   4.246  50.467  1.00  0.00    -0.062 C 
HETATM    5  C6  UNL     1      21.949   4.405  49.339  1.00  0.00    -0.004 C 
HETATM    6  C7  UNL     1      22.691   4.469  48.042  1.00  0.00     0.153 C 
HETATM    7  S2  UNL     1      20.166   4.558  49.297  1.00  0.00    -0.108 SA
HETATM    8  C8  UNL     1      19.501   4.444  47.657  1.00  0.00     0.309 C 
HETATM    9  N2  UNL     1      19.812   3.245  47.238  1.00  0.00    -0.289 NA
HETATM   10  C9  UNL     1      20.553   2.368  48.113  1.00  0.00     0.164 C 
HETATM   11  N3  UNL     1      20.610   1.925  49.314  1.00  0.00    -0.272 NA
HETATM   12  C10 UNL     1      21.613   0.988  49.753  1.00  0.00     0.266 C 
HETATM   13  N4  UNL     1      22.527   1.394  50.716  1.00  0.00    -0.394 N 
HETATM   14  C11 UNL     1      22.213   1.720  52.030  1.00  0.00     0.140 C 
HETATM   15  C18 UNL     1      21.365   2.922  52.198  1.00  0.00     0.149 C 
HETATM   16  C19 UNL     1      22.122   4.180  51.845  1.00  0.00     0.069 C 
HETATM   17  H14 UNL     1      23.457   0.942  50.559  1.00  0.00     0.155 HD
ENDROOT
BRANCH  14  18
HETATM   18  C12 UNL     1      21.774   0.571  52.874  1.00  0.00    -0.033 A 
HETATM   19  C13 UNL     1      22.907   0.029  53.501  1.00  0.00     0.009 A 
HETATM   20  C14 UNL     1      22.789  -1.069  54.361  1.00  0.00     0.001 A 
HETATM   21  C15 UNL     1      21.555  -1.633  54.605  1.00  0.00     0.000 A 
HETATM   22  C16 UNL     1      20.458  -1.083  53.977  1.00  0.00     0.001 A 
HETATM   23  C17 UNL     1      20.549  -0.004  53.127  1.00  0.00     0.009 A 
ENDBRANCH  14  18
BRANCH  15  24
HETATM   24  O3  UNL     1      20.138   2.951  51.617  1.00  0.00    -0.393 OA
HETATM   25  H22 UNL     1      20.029   3.356  50.750  1.00  0.00     0.210 HD
ENDBRANCH  15  24
BRANCH   1  26
HETATM   26  S1  UNL     1      23.088   7.075  48.092  1.00  0.00     0.233 S 
HETATM   27  O1  UNL     1      24.036   7.912  47.284  1.00  0.00    -0.207 OA
HETATM   28  O2  UNL     1      21.750   7.149  47.417  1.00  0.00    -0.207 OA
BRANCH  26  29
HETATM   29  C2  UNL     1      22.926   7.794  49.675  1.00  0.00     0.115 C 
HETATM   30  C1  UNL     1      21.670   7.993  50.122  1.00  0.00     0.024 C 
ENDBRANCH  26  29
ENDBRANCH   1  26
TORSDOF 4
ENDMDL
MODEL 7
REMARK VINA RESULT:      -7.3     21.370     25.081
REMARK  4 active torsions:
REMARK  status: ('A' for Active; 'I' for Inactive)
REMARK    1  A    between atoms: C2_2  and  S1_3 
REMARK    2  A    between atoms: S1_3  and  N1_6 
REMARK    3  A    between atoms: C11_19  and  C12_20 
REMARK    4  A    between atoms: C18_26  and  O3_27 
ROOT
HETATM    1  N1  UNL     1      39.286  -3.741  70.010  1.00  0.00    -0.202 NA
HETATM    2  C3  UNL     1      40.595  -3.682  70.587  1.00  0.00     0.112 C 
HETATM    3  C4  UNL     1      41.297  -2.370  70.338  1.00  0.00     0.051 C 
HETATM    4  C5  UNL     1      41.111  -1.924  68.910  1.00  0.00    -0.062 C 
HETATM    5  C6  UNL     1      39.836  -1.990  68.534  1.00  0.00    -0.004 C 
HETATM    6  C7  UNL     1      38.817  -2.470  69.518  1.00  0.00     0.153 C 
HETATM    7  S2  UNL     1      39.277  -1.540  66.895  1.00  0.00    -0.108 SA
HETATM    8  C8  UNL     1      37.511  -1.427  66.773  1.00  0.00     0.309 C 
HETATM    9  N2  UNL     1      37.167  -0.468  67.593  1.00  0.00    -0.289 NA
HETATM   10  C9  UNL     1      38.194   0.216  68.340  1.00  0.00     0.164 C 
HETATM   11  N3  UNL     1      39.345   0.770  68.234  1.00  0.00    -0.272 NA
HETATM   12  C10 UNL     1      40.031   1.365  69.353  1.00  0.00     0.266 C 
HETATM   13  N4  UNL     1      41.232   0.807  69.770  1.00  0.00    -0.394 N 
HETATM   14  C11 UNL     1      42.405   0.782  69.025  1.00  0.00     0.140 C 
HETATM   15  C18 UNL     1      42.352  -0.033  67.790  1.00  0.00     0.149 C 
HETATM   16  C19 UNL     1      42.274  -1.507  68.109  1.00  0.00     0.069 C 
HETATM   17  H14 UNL     1      41.341   0.895  70.806  1.00  0.00     0.155 HD
ENDROOT
BRANCH  14  18
HETATM   18  C12 UNL     1      43.048   2.112  68.822  1.00  0.00    -0.033 A 
HETATM   19  C13 UNL     1      44.019   1.981  67.817  1.00  0.00     0.009 A 
HETATM   20  C14 UNL     1      44.784   3.083  67.416  1.00  0.00     0.001 A 
HETATM   21  C15 UNL     1      44.593   4.314  68.007  1.00  0.00     0.000 A 
HETATM   22  C16 UNL     1      43.634   4.417  68.991  1.00  0.00     0.001 A 
HETATM   23  C17 UNL     1      42.870   3.348  69.402  1.00  0.00     0.009 A 
ENDBRANCH  14  18
BRANCH  15  24
HETATM   24  O3  UNL     1      41.437   0.275  66.835  1.00  0.00    -0.393 OA
HETATM   25  H22 UNL     1      40.851  -0.409  66.496  1.00  0.00     0.210 HD
ENDBRANCH  15  24
BRANCH   1  26
HETATM   26  S1  UNL     1      39.059  -5.027  68.922  1.00  0.00     0.233 S 
HETATM   27  O1  UNL     1      38.643  -6.248  69.690  1.00  0.00    -0.207 OA
HETATM   28  O2  UNL     1      37.985  -4.757  67.910  1.00  0.00    -0.207 OA
BRANCH  26  29
HETATM   29  C2  UNL     1      40.529  -5.393  68.055  1.00  0.00     0.115 C 
HETATM   30  C1  UNL     1      40.763  -6.693  67.784  1.00  0.00     0.024 C 
ENDBRANCH  26  29
ENDBRANCH   1  26
TORSDOF 4
ENDMDL
MODEL 8
REMARK VINA RESULT:      -7.3      2.857      7.451
REMARK  4 active torsions:
REMARK  status: ('A' for Active; 'I' for Inactive)
REMARK    1  A    between atoms: C2_2  and  S1_3 
REMARK    2  A    between atoms: S1_3  and  N1_6 
REMARK    3  A    between atoms: C11_19  and  C12_20 
REMARK    4  A    between atoms: C18_26  and  O3_27 
ROOT
HETATM    1  N1  UNL     1      21.765   0.901  51.103  1.00  0.00    -0.202 NA
HETATM    2  C3  UNL     1      21.190   1.625  50.011  1.00  0.00     0.112 C 
HETATM    3  C4  UNL     1      22.099   2.695  49.461  1.00  0.00     0.051 C 
HETATM    4  C5  UNL     1      22.758   3.465  50.576  1.00  0.00    -0.062 C 
HETATM    5  C6  UNL     1      23.287   2.655  51.491  1.00  0.00    -0.004 C 
HETATM    6  C7  UNL     1      23.165   1.177  51.302  1.00  0.00     0.153 C 
HETATM    7  S2  UNL     1      24.135   3.252  52.950  1.00  0.00    -0.108 SA
HETATM    8  C8  UNL     1      25.001   1.971  53.818  1.00  0.00     0.309 C 
HETATM    9  N2  UNL     1      25.904   1.531  52.980  1.00  0.00    -0.289 NA
HETATM   10  C9  UNL     1      25.987   2.124  51.667  1.00  0.00     0.164 C 
HETATM   11  N3  UNL     1      26.008   3.245  51.046  1.00  0.00    -0.272 NA
HETATM   12  C10 UNL     1      26.109   3.341  49.612  1.00  0.00     0.266 C 
HETATM   13  N4  UNL     1      25.047   3.887  48.904  1.00  0.00    -0.394 N 
HETATM   14  C11 UNL     1      24.620   5.207  48.993  1.00  0.00     0.140 C 
HETATM   15  C18 UNL     1      24.068   5.606  50.307  1.00  0.00     0.149 C 
HETATM   16  C19 UNL     1      22.739   4.938  50.569  1.00  0.00     0.069 C 
HETATM   17  H14 UNL     1      24.949   3.429  47.970  1.00  0.00     0.155 HD
ENDROOT
BRANCH  14  18
HETATM   18  C12 UNL     1      25.565   6.211  48.426  1.00  0.00    -0.033 A 
HETATM   19  C13 UNL     1      24.816   7.178  47.736  1.00  0.00     0.009 A 
HETATM   20  C14 UNL     1      25.451   8.252  47.100  1.00  0.00     0.001 A 
HETATM   21  C15 UNL     1      26.823   8.373  47.142  1.00  0.00     0.000 A 
HETATM   22  C16 UNL     1      27.536   7.410  47.824  1.00  0.00     0.001 A 
HETATM   23  C17 UNL     1      26.935   6.346  48.457  1.00  0.00     0.009 A 
ENDBRANCH  14  18
BRANCH  15  24
HETATM   24  O3  UNL     1      24.853   5.506  51.411  1.00  0.00    -0.393 OA
HETATM   25  H22 UNL     1      25.549   6.153  51.563  1.00  0.00     0.210 HD
ENDBRANCH  15  24
BRANCH   1  26
HETATM   26  S1  UNL     1      20.845   0.944  52.533  1.00  0.00     0.233 S 
HETATM   27  O1  UNL     1      21.701   0.488  53.678  1.00  0.00    -0.207 OA
HETATM   28  O2  UNL     1      20.353   2.320  52.872  1.00  0.00    -0.207 OA
BRANCH  26  29
HETATM   29  C2  UNL     1      19.456  -0.108  52.426  1.00  0.00     0.115 C 
HETATM   30  C1  UNL     1      19.210  -0.894  53.494  1.00  0.00     0.024 C 
ENDBRANCH  26  29
ENDBRANCH   1  26
TORSDOF 4
ENDMDL
MODEL 9
REMARK VINA RESULT:      -7.3      9.589     13.400
REMARK  4 active torsions:
REMARK  status: ('A' for Active; 'I' for Inactive)
REMARK    1  A    between atoms: C2_2  and  S1_3 
REMARK    2  A    between atoms: S1_3  and  N1_6 
REMARK    3  A    between atoms: C11_19  and  C12_20 
REMARK    4  A    between atoms: C18_26  and  O3_27 
ROOT
HETATM    1  N1  UNL     1      27.481  11.644  46.809  1.00  0.00    -0.202 NA
HETATM    2  C3  UNL     1      28.757  12.023  46.282  1.00  0.00     0.112 C 
HETATM    3  C4  UNL     1      29.820  10.973  46.482  1.00  0.00     0.051 C 
HETATM    4  C5  UNL     1      29.751  10.398  47.874  1.00  0.00    -0.062 C 
HETATM    5  C6  UNL     1      28.509  10.049  48.204  1.00  0.00    -0.004 C 
HETATM    6  C7  UNL     1      27.412  10.262  47.211  1.00  0.00     0.153 C 
HETATM    7  S2  UNL     1      28.082   9.343  49.792  1.00  0.00    -0.108 SA
HETATM    8  C8  UNL     1      26.433   8.693  49.839  1.00  0.00     0.309 C 
HETATM    9  N2  UNL     1      26.413   7.732  48.953  1.00  0.00    -0.289 NA
HETATM   10  C9  UNL     1      27.615   7.441  48.208  1.00  0.00     0.164 C 
HETATM   11  N3  UNL     1      28.878   7.257  48.328  1.00  0.00    -0.272 NA
HETATM   12  C10 UNL     1      29.734   6.973  47.204  1.00  0.00     0.266 C 
HETATM   13  N4  UNL     1      30.716   7.895  46.865  1.00  0.00    -0.394 N 
HETATM   14  C11 UNL     1      31.810   8.225  47.656  1.00  0.00     0.140 C 
HETATM   15  C18 UNL     1      31.488   8.902  48.932  1.00  0.00     0.149 C 
HETATM   16  C19 UNL     1      30.970  10.301  48.695  1.00  0.00     0.069 C 
HETATM   17  H14 UNL     1      30.867   7.913  45.831  1.00  0.00     0.155 HD
ENDROOT
BRANCH  14  18
HETATM   18  C12 UNL     1      32.825   7.142  47.807  1.00  0.00    -0.033 A 
HETATM   19  C13 UNL     1      33.991   7.706  48.349  1.00  0.00     0.009 A 
HETATM   20  C14 UNL     1      35.116   6.912  48.602  1.00  0.00     0.001 A 
HETATM   21  C15 UNL     1      35.092   5.563  48.320  1.00  0.00     0.000 A 
HETATM   22  C16 UNL     1      33.936   5.033  47.789  1.00  0.00     0.001 A 
HETATM   23  C17 UNL     1      32.818   5.794  47.532  1.00  0.00     0.009 A 
ENDBRANCH  14  18
BRANCH  15  24
HETATM   24  O3  UNL     1      30.692   8.269  49.832  1.00  0.00    -0.393 OA
HETATM   25  H22 UNL     1      31.087   7.809  50.580  1.00  0.00     0.210 HD
ENDBRANCH  15  24
BRANCH   1  26
HETATM   26  S1  UNL     1      26.851  12.727  47.959  1.00  0.00     0.233 S 
HETATM   27  O1  UNL     1      25.687  12.081  48.652  1.00  0.00    -0.207 OA
HETATM   28  O2  UNL     1      27.843  13.098  49.021  1.00  0.00    -0.207 OA
BRANCH  26  29
HETATM   29  C2  UNL     1      26.298  14.202  47.207  1.00  0.00     0.115 C 
HETATM   30  C1  UNL     1      25.516  15.006  47.955  1.00  0.00     0.024 C 
ENDBRANCH  26  29
ENDBRANCH   1  26
TORSDOF 4
ENDMDL
