MODEL 1
REMARK VINA RESULT:      -8.3      0.000      0.000
REMARK  4 active torsions:
REMARK  status: ('A' for Active; 'I' for Inactive)
REMARK    1  A    between atoms: C2_2  and  C3_3 
REMARK    2  A    between atoms: C3_3  and  N1_4 
REMARK    3  A    between atoms: N3_20  and  C17_21 
REMARK    4  A    between atoms: C18_23  and  O3_24 
ROOT
HETATM    1  N1  UNL     1      27.037   0.821  53.006  1.00  0.00    -0.360 N 
HETATM    2  C4  UNL     1      26.328   0.052  54.033  1.00  0.00     0.113 C 
HETATM    3  C5  UNL     1      24.975  -0.099  53.981  1.00  0.00     0.035 A 
HETATM    4  C6  UNL     1      24.227  -1.104  54.747  1.00  0.00     0.099 A 
HETATM    5  C7  UNL     1      22.834  -0.938  54.329  1.00  0.00    -0.025 A 
HETATM    6  C8  UNL     1      21.707  -1.637  54.708  1.00  0.00     0.010 A 
HETATM    7  C9  UNL     1      20.473  -1.288  54.190  1.00  0.00     0.001 A 
HETATM    8  C10 UNL     1      20.443  -0.239  53.303  1.00  0.00     0.002 A 
HETATM    9  C11 UNL     1      21.563   0.465  52.917  1.00  0.00     0.030 A 
HETATM   10  C12 UNL     1      22.778   0.101  53.445  1.00  0.00     0.044 A 
HETATM   11  N2  UNL     1      24.034   0.685  53.165  1.00  0.00    -0.312 N 
HETATM   12  C13 UNL     1      24.479   1.755  52.364  1.00  0.00     0.183 C 
HETATM   13  C14 UNL     1      24.937   2.772  53.326  1.00  0.00     0.076 C 
HETATM   14  O1  UNL     1      25.378   1.001  51.555  1.00  0.00    -0.330 OA
HETATM   15  C15 UNL     1      26.658   1.366  51.727  1.00  0.00     0.243 C 
HETATM   16  C16 UNL     1      26.584   2.797  51.462  1.00  0.00     0.176 C 
HETATM   17  N3  UNL     1      25.254   3.275  51.008  1.00  0.00    -0.348 N 
HETATM   18  C18 UNL     1      23.986   2.475  51.275  1.00  0.00     0.276 C 
ENDROOT
BRANCH   1  19
HETATM   19  C3  UNL     1      28.434   1.081  53.368  1.00  0.00     0.130 C 
BRANCH  19  20
HETATM   20  C2  UNL     1      29.056  -0.041  54.097  1.00  0.00     0.009 C 
HETATM   21  C1  UNL     1      29.867  -0.930  53.495  1.00  0.00     0.007 C 
ENDBRANCH  19  20
ENDBRANCH   1  19
BRANCH  17  22
HETATM   22  C17 UNL     1      25.307   4.507  50.334  1.00  0.00     0.516 C 
HETATM   23  O2  UNL     1      24.974   5.699  50.481  1.00  0.00    -0.412 OA
ENDBRANCH  17  22
BRANCH  18  24
HETATM   24  O3  UNL     1      23.639   1.845  50.089  1.00  0.00    -0.367 OA
HETATM   25  C19 UNL     1      22.368   2.111  49.654  1.00  0.00     0.204 C 
ENDBRANCH  18  24
TORSDOF 4
ENDMDL
MODEL 2
REMARK VINA RESULT:      -7.6      2.265      3.296
REMARK  4 active torsions:
REMARK  status: ('A' for Active; 'I' for Inactive)
REMARK    1  A    between atoms: C2_2  and  C3_3 
REMARK    2  A    between atoms: C3_3  and  N1_4 
REMARK    3  A    between atoms: N3_20  and  C17_21 
REMARK    4  A    between atoms: C18_23  and  O3_24 
ROOT
HETATM    1  N1  UNL     1      25.379   2.905  50.845  1.00  0.00    -0.360 N 
HETATM    2  C4  UNL     1      25.505   1.757  51.747  1.00  0.00     0.113 C 
HETATM    3  C5  UNL     1      24.409   1.219  52.351  1.00  0.00     0.035 A 
HETATM    4  C6  UNL     1      24.382  -0.103  52.987  1.00  0.00     0.099 A 
HETATM    5  C7  UNL     1      22.999  -0.279  53.436  1.00  0.00    -0.025 A 
HETATM    6  C8  UNL     1      22.404  -1.349  54.070  1.00  0.00     0.010 A 
HETATM    7  C9  UNL     1      21.068  -1.285  54.422  1.00  0.00     0.001 A 
HETATM    8  C10 UNL     1      20.395  -0.129  54.109  1.00  0.00     0.002 A 
HETATM    9  C11 UNL     1      20.980   0.946  53.474  1.00  0.00     0.030 A 
HETATM   10  C12 UNL     1      22.309   0.859  53.134  1.00  0.00     0.044 A 
HETATM   11  N2  UNL     1      23.080   1.840  52.471  1.00  0.00    -0.312 N 
HETATM   12  C13 UNL     1      22.835   3.140  51.987  1.00  0.00     0.183 C 
HETATM   13  C14 UNL     1      23.638   4.017  52.858  1.00  0.00     0.076 C 
HETATM   14  O1  UNL     1      23.178   2.885  50.628  1.00  0.00    -0.330 OA
HETATM   15  C15 UNL     1      24.260   3.572  50.229  1.00  0.00     0.243 C 
HETATM   16  C16 UNL     1      23.867   4.936  50.558  1.00  0.00     0.176 C 
HETATM   17  N3  UNL     1      22.476   5.078  51.054  1.00  0.00    -0.348 N 
HETATM   18  C18 UNL     1      21.715   3.895  51.639  1.00  0.00     0.276 C 
ENDROOT
BRANCH   1  19
HETATM   19  C3  UNL     1      26.678   3.489  50.499  1.00  0.00     0.130 C 
BRANCH  19  20
HETATM   20  C2  UNL     1      26.768   3.887  49.082  1.00  0.00     0.009 C 
HETATM   21  C1  UNL     1      27.588   4.867  48.658  1.00  0.00     0.007 C 
ENDBRANCH  19  20
ENDBRANCH   1  19
BRANCH  17  22
HETATM   22  C17 UNL     1      21.971   6.383  50.929  1.00  0.00     0.516 C 
HETATM   23  O2  UNL     1      22.364   7.560  50.816  1.00  0.00    -0.412 OA
ENDBRANCH  17  22
BRANCH  18  24
HETATM   24  O3  UNL     1      20.822   3.461  50.671  1.00  0.00    -0.367 OA
HETATM   25  C19 UNL     1      19.530   3.325  51.106  1.00  0.00     0.204 C 
ENDBRANCH  18  24
TORSDOF 4
ENDMDL
MODEL 3
REMARK VINA RESULT:      -7.5      2.654      6.301
REMARK  4 active torsions:
REMARK  status: ('A' for Active; 'I' for Inactive)
REMARK    1  A    between atoms: C2_2  and  C3_3 
REMARK    2  A    between atoms: C3_3  and  N1_4 
REMARK    3  A    between atoms: N3_20  and  C17_21 
REMARK    4  A    between atoms: C18_23  and  O3_24 
ROOT
HETATM    1  N1  UNL     1      25.081   2.173  51.787  1.00  0.00    -0.360 N 
HETATM    2  C4  UNL     1      26.146   2.549  50.853  1.00  0.00     0.113 C 
HETATM    3  C5  UNL     1      26.051   3.685  50.106  1.00  0.00     0.035 A 
HETATM    4  C6  UNL     1      27.182   4.313  49.412  1.00  0.00     0.099 A 
HETATM    5  C7  UNL     1      26.627   5.524  48.804  1.00  0.00    -0.025 A 
HETATM    6  C8  UNL     1      27.248   6.504  48.059  1.00  0.00     0.010 A 
HETATM    7  C9  UNL     1      26.510   7.563  47.564  1.00  0.00     0.001 A 
HETATM    8  C10 UNL     1      25.167   7.577  47.852  1.00  0.00     0.002 A 
HETATM    9  C11 UNL     1      24.536   6.604  48.597  1.00  0.00     0.030 A 
HETATM   10  C12 UNL     1      25.291   5.560  49.078  1.00  0.00     0.044 A 
HETATM   11  N2  UNL     1      24.836   4.480  49.868  1.00  0.00    -0.312 N 
HETATM   12  C13 UNL     1      23.588   4.076  50.381  1.00  0.00     0.183 C 
HETATM   13  C14 UNL     1      23.268   2.840  49.646  1.00  0.00     0.076 C 
HETATM   14  O1  UNL     1      23.958   4.078  51.756  1.00  0.00    -0.330 OA
HETATM   15  C15 UNL     1      23.920   2.853  52.304  1.00  0.00     0.243 C 
HETATM   16  C16 UNL     1      22.556   2.446  51.996  1.00  0.00     0.176 C 
HETATM   17  N3  UNL     1      21.725   3.496  51.354  1.00  0.00    -0.348 N 
HETATM   18  C18 UNL     1      22.356   4.681  50.635  1.00  0.00     0.276 C 
ENDROOT
BRANCH   1  19
HETATM   19  C3  UNL     1      25.245   0.811  52.302  1.00  0.00     0.130 C 
BRANCH  19  20
HETATM   20  C2  UNL     1      26.560   0.228  51.973  1.00  0.00     0.009 C 
HETATM   21  C1  UNL     1      27.052  -0.848  52.616  1.00  0.00     0.007 C 
ENDBRANCH  19  20
ENDBRANCH   1  19
BRANCH  17  22
HETATM   22  C17 UNL     1      20.345   3.268  51.482  1.00  0.00     0.516 C 
HETATM   23  O2  UNL     1      19.355   3.687  52.111  1.00  0.00    -0.412 OA
ENDBRANCH  17  22
BRANCH  18  24
HETATM   24  O3  UNL     1      22.250   5.778  51.477  1.00  0.00    -0.367 OA
HETATM   25  C19 UNL     1      21.653   6.874  50.913  1.00  0.00     0.204 C 
ENDBRANCH  18  24
TORSDOF 4
ENDMDL
MODEL 4
REMARK VINA RESULT:      -7.4      2.402      5.193
REMARK  4 active torsions:
REMARK  status: ('A' for Active; 'I' for Inactive)
REMARK    1  A    between atoms: C2_2  and  C3_3 
REMARK    2  A    between atoms: C3_3  and  N1_4 
REMARK    3  A    between atoms: N3_20  and  C17_21 
REMARK    4  A    between atoms: C18_23  and  O3_24 
ROOT
HETATM    1  N1  UNL     1      22.163   4.871  50.874  1.00  0.00    -0.360 N 
HETATM    2  C4  UNL     1      21.072   4.029  51.370  1.00  0.00     0.113 C 
HETATM    3  C5  UNL     1      21.331   2.862  52.024  1.00  0.00     0.035 A 
HETATM    4  C6  UNL     1      20.349   2.134  52.836  1.00  0.00     0.099 A 
HETATM    5  C7  UNL     1      21.083   0.993  53.386  1.00  0.00    -0.025 A 
HETATM    6  C8  UNL     1      20.659  -0.003  54.239  1.00  0.00     0.010 A 
HETATM    7  C9  UNL     1      21.535  -1.005  54.617  1.00  0.00     0.001 A 
HETATM    8  C10 UNL     1      22.809  -0.945  54.107  1.00  0.00     0.002 A 
HETATM    9  C11 UNL     1      23.243   0.047  53.255  1.00  0.00     0.030 A 
HETATM   10  C12 UNL     1      22.355   1.032  52.893  1.00  0.00     0.044 A 
HETATM   11  N2  UNL     1      22.611   2.135  52.047  1.00  0.00    -0.312 N 
HETATM   12  C13 UNL     1      23.721   2.587  51.308  1.00  0.00     0.183 C 
HETATM   13  C14 UNL     1      23.323   2.416  49.900  1.00  0.00     0.076 C 
HETATM   14  O1  UNL     1      23.829   3.866  51.926  1.00  0.00    -0.330 OA
HETATM   15  C15 UNL     1      23.591   4.875  51.073  1.00  0.00     0.243 C 
HETATM   16  C16 UNL     1      24.544   4.581  50.011  1.00  0.00     0.176 C 
HETATM   17  N3  UNL     1      25.451   3.440  50.291  1.00  0.00    -0.348 N 
HETATM   18  C18 UNL     1      25.100   2.379  51.327  1.00  0.00     0.276 C 
ENDROOT
BRANCH   1  19
HETATM   19  C3  UNL     1      21.688   5.938  49.989  1.00  0.00     0.130 C 
BRANCH  19  20
HETATM   20  C2  UNL     1      21.539   7.233  50.681  1.00  0.00     0.009 C 
HETATM   21  C1  UNL     1      20.785   8.232  50.186  1.00  0.00     0.007 C 
ENDBRANCH  19  20
ENDBRANCH   1  19
BRANCH  17  22
HETATM   22  C17 UNL     1      26.620   3.454  49.511  1.00  0.00     0.516 C 
HETATM   23  O2  UNL     1      27.477   4.248  49.078  1.00  0.00    -0.412 OA
ENDBRANCH  17  22
BRANCH  18  24
HETATM   24  O3  UNL     1      25.856   2.644  52.459  1.00  0.00    -0.367 OA
HETATM   25  C19 UNL     1      26.713   1.639  52.821  1.00  0.00     0.204 C 
ENDBRANCH  18  24
TORSDOF 4
ENDMDL
MODEL 5
REMARK VINA RESULT:      -7.4      2.267      5.200
REMARK  4 active torsions:
REMARK  status: ('A' for Active; 'I' for Inactive)
REMARK    1  A    between atoms: C2_2  and  C3_3 
REMARK    2  A    between atoms: C3_3  and  N1_4 
REMARK    3  A    between atoms: N3_20  and  C17_21 
REMARK    4  A    between atoms: C18_23  and  O3_24 
ROOT
HETATM    1  N1  UNL     1      24.247   4.398  49.510  1.00  0.00    -0.360 N 
HETATM    2  C4  UNL     1      25.520   3.901  50.039  1.00  0.00     0.113 C 
HETATM    3  C5  UNL     1      25.558   2.813  50.859  1.00  0.00     0.035 A 
HETATM    4  C6  UNL     1      26.775   2.051  51.162  1.00  0.00     0.099 A 
HETATM    5  C7  UNL     1      26.329   0.950  52.018  1.00  0.00    -0.025 A 
HETATM    6  C8  UNL     1      27.049  -0.086  52.574  1.00  0.00     0.010 A 
HETATM    7  C9  UNL     1      26.411  -1.014  53.378  1.00  0.00     0.001 A 
HETATM    8  C10 UNL     1      25.063  -0.844  53.578  1.00  0.00     0.002 A 
HETATM    9  C11 UNL     1      24.334   0.188  53.027  1.00  0.00     0.030 A 
HETATM   10  C12 UNL     1      24.989   1.098  52.232  1.00  0.00     0.044 A 
HETATM   11  N2  UNL     1      24.420   2.208  51.568  1.00  0.00    -0.312 N 
HETATM   12  C13 UNL     1      23.131   2.771  51.494  1.00  0.00     0.183 C 
HETATM   13  C14 UNL     1      23.249   4.061  52.195  1.00  0.00     0.076 C 
HETATM   14  O1  UNL     1      22.983   2.675  50.081  1.00  0.00    -0.330 OA
HETATM   15  C15 UNL     1      22.904   3.876  49.486  1.00  0.00     0.243 C 
HETATM   16  C16 UNL     1      21.800   4.484  50.217  1.00  0.00     0.176 C 
HETATM   17  N3  UNL     1      21.130   3.583  51.189  1.00  0.00    -0.348 N 
HETATM   18  C18 UNL     1      21.825   2.341  51.734  1.00  0.00     0.276 C 
ENDROOT
BRANCH   1  19
HETATM   19  C3  UNL     1      24.383   5.707  48.865  1.00  0.00     0.130 C 
BRANCH  19  20
HETATM   20  C2  UNL     1      25.729   6.290  49.028  1.00  0.00     0.009 C 
HETATM   21  C1  UNL     1      26.334   6.991  48.052  1.00  0.00     0.007 C 
ENDBRANCH  19  20
ENDBRANCH   1  19
BRANCH  17  22
HETATM   22  C17 UNL     1      19.834   4.003  51.534  1.00  0.00     0.516 C 
HETATM   23  O2  UNL     1      18.776   3.557  52.016  1.00  0.00    -0.412 OA
ENDBRANCH  17  22
BRANCH  18  24
HETATM   24  O3  UNL     1      21.291   1.247  51.071  1.00  0.00    -0.367 OA
HETATM   25  C19 UNL     1      20.762   0.286  51.891  1.00  0.00     0.204 C 
ENDBRANCH  18  24
TORSDOF 4
ENDMDL
MODEL 6
REMARK VINA RESULT:      -7.1      2.137      5.532
REMARK  4 active torsions:
REMARK  status: ('A' for Active; 'I' for Inactive)
REMARK    1  A    between atoms: C2_2  and  C3_3 
REMARK    2  A    between atoms: C3_3  and  N1_4 
REMARK    3  A    between atoms: N3_20  and  C17_21 
REMARK    4  A    between atoms: C18_23  and  O3_24 
ROOT
HETATM    1  N1  UNL     1      20.500   2.059  52.052  1.00  0.00    -0.360 N 
HETATM    2  C4  UNL     1      21.075   0.894  52.730  1.00  0.00     0.113 C 
HETATM    3  C5  UNL     1      22.421   0.685  52.739  1.00  0.00     0.035 A 
HETATM    4  C6  UNL     1      23.107  -0.239  53.650  1.00  0.00     0.099 A 
HETATM    5  C7  UNL     1      24.530  -0.087  53.343  1.00  0.00    -0.025 A 
HETATM    6  C8  UNL     1      25.628  -0.694  53.915  1.00  0.00     0.010 A 
HETATM    7  C9  UNL     1      26.897  -0.407  53.445  1.00  0.00     0.001 A 
HETATM    8  C10 UNL     1      26.990   0.491  52.408  1.00  0.00     0.002 A 
HETATM    9  C11 UNL     1      25.899   1.103  51.830  1.00  0.00     0.030 A 
HETATM   10  C12 UNL     1      24.648   0.802  52.315  1.00  0.00     0.044 A 
HETATM   11  N2  UNL     1      23.416   1.333  51.869  1.00  0.00    -0.312 N 
HETATM   12  C13 UNL     1      23.027   2.237  50.861  1.00  0.00     0.183 C 
HETATM   13  C14 UNL     1      22.292   1.410  49.887  1.00  0.00     0.076 C 
HETATM   14  O1  UNL     1      22.380   3.176  51.714  1.00  0.00    -0.330 OA
HETATM   15  C15 UNL     1      21.060   3.261  51.484  1.00  0.00     0.243 C 
HETATM   16  C16 UNL     1      21.038   3.552  50.057  1.00  0.00     0.176 C 
HETATM   17  N3  UNL     1      22.375   3.762  49.446  1.00  0.00    -0.348 N 
HETATM   18  C18 UNL     1      23.643   3.234  50.106  1.00  0.00     0.276 C 
ENDROOT
BRANCH   1  19
HETATM   19  C3  UNL     1      19.042   1.976  51.936  1.00  0.00     0.130 C 
BRANCH  19  20
HETATM   20  C2  UNL     1      18.599   0.870  51.065  1.00  0.00     0.009 C 
HETATM   21  C1  UNL     1      17.768  -0.098  51.495  1.00  0.00     0.007 C 
ENDBRANCH  19  20
ENDBRANCH   1  19
BRANCH  17  22
HETATM   22  C17 UNL     1      22.327   4.471  48.234  1.00  0.00     0.516 C 
HETATM   23  O2  UNL     1      21.720   4.477  47.147  1.00  0.00    -0.412 OA
ENDBRANCH  17  22
BRANCH  18  24
HETATM   24  O3  UNL     1      24.272   4.313  50.709  1.00  0.00    -0.367 OA
HETATM   25  C19 UNL     1      25.491   4.634  50.173  1.00  0.00     0.204 C 
ENDBRANCH  18  24
TORSDOF 4
ENDMDL
MODEL 7
REMARK VINA RESULT:      -6.9      2.106      3.233
REMARK  4 active torsions:
REMARK  status: ('A' for Active; 'I' for Inactive)
REMARK    1  A    between atoms: C2_2  and  C3_3 
REMARK    2  A    between atoms: C3_3  and  N1_4 
REMARK    3  A    between atoms: N3_20  and  C17_21 
REMARK    4  A    between atoms: C18_23  and  O3_24 
ROOT
HETATM    1  N1  UNL     1      23.868   1.065  52.455  1.00  0.00    -0.360 N 
HETATM    2  C4  UNL     1      23.016   0.298  53.368  1.00  0.00     0.113 C 
HETATM    3  C5  UNL     1      21.685   0.143  53.117  1.00  0.00     0.035 A 
HETATM    4  C6  UNL     1      20.834  -0.861  53.768  1.00  0.00     0.099 A 
HETATM    5  C7  UNL     1      19.518  -0.700  53.148  1.00  0.00    -0.025 A 
HETATM    6  C8  UNL     1      18.349  -1.400  53.359  1.00  0.00     0.010 A 
HETATM    7  C9  UNL     1      17.205  -1.057  52.662  1.00  0.00     0.001 A 
HETATM    8  C10 UNL     1      17.304  -0.011  51.777  1.00  0.00     0.002 A 
HETATM    9  C11 UNL     1      18.467   0.695  51.557  1.00  0.00     0.030 A 
HETATM   10  C12 UNL     1      19.592   0.335  52.262  1.00  0.00     0.044 A 
HETATM   11  N2  UNL     1      20.874   0.922  52.168  1.00  0.00    -0.312 N 
HETATM   12  C13 UNL     1      21.430   1.990  51.437  1.00  0.00     0.183 C 
HETATM   13  C14 UNL     1      21.740   3.012  52.452  1.00  0.00     0.076 C 
HETATM   14  O1  UNL     1      22.440   1.236  50.773  1.00  0.00    -0.330 OA
HETATM   15  C15 UNL     1      23.681   1.604  51.131  1.00  0.00     0.243 C 
HETATM   16  C16 UNL     1      23.644   3.034  50.852  1.00  0.00     0.176 C 
HETATM   17  N3  UNL     1      22.395   3.507  50.204  1.00  0.00    -0.348 N 
HETATM   18  C18 UNL     1      21.103   2.704  50.285  1.00  0.00     0.276 C 
ENDROOT
BRANCH   1  19
HETATM   19  C3  UNL     1      25.194   1.330  53.018  1.00  0.00     0.130 C 
BRANCH  19  20
HETATM   20  C2  UNL     1      26.290   0.834  52.163  1.00  0.00     0.009 C 
HETATM   21  C1  UNL     1      26.746  -0.430  52.236  1.00  0.00     0.007 C 
ENDBRANCH  19  20
ENDBRANCH   1  19
BRANCH  17  22
HETATM   22  C17 UNL     1      22.544   4.737  49.541  1.00  0.00     0.516 C 
HETATM   23  O2  UNL     1      23.246   5.766  49.570  1.00  0.00    -0.412 OA
ENDBRANCH  17  22
BRANCH  18  24
HETATM   24  O3  UNL     1      20.936   2.070  49.063  1.00  0.00    -0.367 OA
HETATM   25  C19 UNL     1      19.844   2.487  48.348  1.00  0.00     0.204 C 
ENDBRANCH  18  24
TORSDOF 4
ENDMDL
MODEL 8
REMARK VINA RESULT:      -6.8      3.271      5.992
REMARK  4 active torsions:
REMARK  status: ('A' for Active; 'I' for Inactive)
REMARK    1  A    between atoms: C2_2  and  C3_3 
REMARK    2  A    between atoms: C3_3  and  N1_4 
REMARK    3  A    between atoms: N3_20  and  C17_21 
REMARK    4  A    between atoms: C18_23  and  O3_24 
ROOT
HETATM    1  N1  UNL     1      21.979   4.066  49.734  1.00  0.00    -0.360 N 
HETATM    2  C4  UNL     1      23.247   3.718  50.380  1.00  0.00     0.113 C 
HETATM    3  C5  UNL     1      23.314   2.704  51.288  1.00  0.00     0.035 A 
HETATM    4  C6  UNL     1      24.563   2.070  51.727  1.00  0.00     0.099 A 
HETATM    5  C7  UNL     1      24.146   1.007  52.643  1.00  0.00    -0.025 A 
HETATM    6  C8  UNL     1      24.904   0.080  53.326  1.00  0.00     0.010 A 
HETATM    7  C9  UNL     1      24.287  -0.832  54.163  1.00  0.00     0.001 A 
HETATM    8  C10 UNL     1      22.919  -0.758  54.267  1.00  0.00     0.002 A 
HETATM    9  C11 UNL     1      22.152   0.164  53.588  1.00  0.00     0.030 A 
HETATM   10  C12 UNL     1      22.787   1.060  52.761  1.00  0.00     0.044 A 
HETATM   11  N2  UNL     1      22.180   2.064  51.974  1.00  0.00    -0.312 N 
HETATM   12  C13 UNL     1      20.859   2.511  51.775  1.00  0.00     0.183 C 
HETATM   13  C14 UNL     1      20.830   3.858  52.372  1.00  0.00     0.076 C 
HETATM   14  O1  UNL     1      20.816   2.294  50.368  1.00  0.00    -0.330 OA
HETATM   15  C15 UNL     1      20.684   3.434  49.671  1.00  0.00     0.243 C 
HETATM   16  C16 UNL     1      19.490   4.004  50.281  1.00  0.00     0.176 C 
HETATM   17  N3  UNL     1      18.828   3.130  51.282  1.00  0.00    -0.348 N 
HETATM   18  C18 UNL     1      19.578   1.996  51.969  1.00  0.00     0.276 C 
ENDROOT
BRANCH   1  19
HETATM   19  C3  UNL     1      22.057   5.327  48.992  1.00  0.00     0.130 C 
BRANCH  19  20
HETATM   20  C2  UNL     1      22.481   6.462  49.834  1.00  0.00     0.009 C 
HETATM   21  C1  UNL     1      21.628   7.120  50.641  1.00  0.00     0.007 C 
ENDBRANCH  19  20
ENDBRANCH   1  19
BRANCH  17  22
HETATM   22  C17 UNL     1      17.483   3.467  51.511  1.00  0.00     0.516 C 
HETATM   23  O2  UNL     1      16.772   4.083  52.327  1.00  0.00    -0.412 OA
ENDBRANCH  17  22
BRANCH  18  24
HETATM   24  O3  UNL     1      19.175   0.813  51.368  1.00  0.00    -0.367 OA
HETATM   25  C19 UNL     1      18.708  -0.137  52.237  1.00  0.00     0.204 C 
ENDBRANCH  18  24
TORSDOF 4
ENDMDL
MODEL 9
REMARK VINA RESULT:      -6.7      2.790      5.466
REMARK  4 active torsions:
REMARK  status: ('A' for Active; 'I' for Inactive)
REMARK    1  A    between atoms: C2_2  and  C3_3 
REMARK    2  A    between atoms: C3_3  and  N1_4 
REMARK    3  A    between atoms: N3_20  and  C17_21 
REMARK    4  A    between atoms: C18_23  and  O3_24 
ROOT
HETATM    1  N1  UNL     1      25.341   5.681  48.830  1.00  0.00    -0.360 N 
HETATM    2  C4  UNL     1      26.233   4.738  49.509  1.00  0.00     0.113 C 
HETATM    3  C5  UNL     1      25.736   3.782  50.343  1.00  0.00     0.035 A 
HETATM    4  C6  UNL     1      26.491   2.607  50.795  1.00  0.00     0.099 A 
HETATM    5  C7  UNL     1      25.546   1.841  51.609  1.00  0.00    -0.025 A 
HETATM    6  C8  UNL     1      25.712   0.636  52.259  1.00  0.00     0.010 A 
HETATM    7  C9  UNL     1      24.671   0.102  52.996  1.00  0.00     0.001 A 
HETATM    8  C10 UNL     1      23.501   0.823  53.038  1.00  0.00     0.002 A 
HETATM    9  C11 UNL     1      23.325   2.027  52.392  1.00  0.00     0.030 A 
HETATM   10  C12 UNL     1      24.374   2.538  51.665  1.00  0.00     0.044 A 
HETATM   11  N2  UNL     1      24.385   3.742  50.925  1.00  0.00    -0.312 N 
HETATM   12  C13 UNL     1      23.460   4.779  50.695  1.00  0.00     0.183 C 
HETATM   13  C14 UNL     1      24.033   5.947  51.387  1.00  0.00     0.076 C 
HETATM   14  O1  UNL     1      23.426   4.667  49.275  1.00  0.00    -0.330 OA
HETATM   15  C15 UNL     1      23.912   5.756  48.658  1.00  0.00     0.243 C 
HETATM   16  C16 UNL     1      23.093   6.806  49.250  1.00  0.00     0.176 C 
HETATM   17  N3  UNL     1      22.018   6.321  50.150  1.00  0.00    -0.348 N 
HETATM   18  C18 UNL     1      22.077   4.939  50.789  1.00  0.00     0.276 C 
ENDROOT
BRANCH   1  19
HETATM   19  C3  UNL     1      26.071   6.777  48.186  1.00  0.00     0.130 C 
BRANCH  19  20
HETATM   20  C2  UNL     1      26.964   7.494  49.116  1.00  0.00     0.009 C 
HETATM   21  C1  UNL     1      26.518   8.451  49.951  1.00  0.00     0.007 C 
ENDBRANCH  19  20
ENDBRANCH   1  19
BRANCH  17  22
HETATM   22  C17 UNL     1      20.985   7.255  50.338  1.00  0.00     0.516 C 
HETATM   23  O2  UNL     1      20.686   8.429  50.047  1.00  0.00    -0.412 OA
ENDBRANCH  17  22
BRANCH  18  24
HETATM   24  O3  UNL     1      21.205   4.122  50.084  1.00  0.00    -0.367 OA
HETATM   25  C19 UNL     1      20.202   3.574  50.839  1.00  0.00     0.204 C 
ENDBRANCH  18  24
TORSDOF 4
ENDMDL
