MODEL 1
REMARK VINA RESULT:      -8.5      0.000      0.000
REMARK  5 active torsions:
REMARK  status: ('A' for Active; 'I' for Inactive)
REMARK    1  A    between atoms: C4_5  and  N1_6 
REMARK    2  A    between atoms: N1_6  and  C5_7 
REMARK    3  A    between atoms: C8_10  and  C9_11 
REMARK    4  A    between atoms: C9_11  and  C10_12 
REMARK    5  A    between atoms: C10_12  and  C11_13 
ROOT
HETATM    1  C5  UNL     1      23.157   2.676  51.587  1.00  0.00     0.137 C 
HETATM    2  C6  UNL     1      23.316   3.283  50.401  1.00  0.00     0.009 C 
HETATM    3  C7  UNL     1      24.409   3.262  49.341  1.00  0.00     0.039 C 
HETATM    4  C8  UNL     1      24.802   4.629  49.407  1.00  0.00     0.030 C 
HETATM    5  N2  UNL     1      23.817   5.123  50.404  1.00  0.00    -0.291 N 
HETATM    6  C17 UNL     1      22.499   4.519  49.851  1.00  0.00     0.191 C 
HETATM    7  N3  UNL     1      24.040   5.730  51.686  1.00  0.00    -0.292 N 
HETATM    8  C18 UNL     1      23.403   4.852  52.781  1.00  0.00     0.226 C 
HETATM    9  N4  UNL     1      22.711   3.653  52.648  1.00  0.00    -0.225 NA
HETATM   10  H16 UNL     1      24.581   6.538  51.372  1.00  0.00     0.188 HD
ENDROOT
BRANCH   1  11
HETATM   11  N1  UNL     1      23.543   1.363  51.325  1.00  0.00    -0.340 N 
HETATM   12  H3  UNL     1      23.179   0.738  50.655  1.00  0.00     0.167 HD
BRANCH  11  13
HETATM   13  C4  UNL     1      24.582   1.125  52.258  1.00  0.00     0.035 A 
HETATM   14  C3  UNL     1      24.186   0.128  53.124  1.00  0.00     0.032 A 
HETATM   15  C2  UNL     1      25.036  -0.300  54.154  1.00  0.00     0.046 A 
HETATM   16  C1  UNL     1      26.281   0.295  54.290  1.00  0.00     0.133 A 
HETATM   17  F1  UNL     1      27.171  -0.066  55.273  1.00  0.00    -0.205 F 
HETATM   18  C20 UNL     1      26.658   1.293  53.411  1.00  0.00     0.051 A 
HETATM   19  C19 UNL     1      25.820   1.713  52.399  1.00  0.00     0.051 A 
HETATM   20 BR1  UNL     1      28.359   2.180  53.522  1.00  0.00    -0.048 Br
ENDBRANCH  11  13
ENDBRANCH   1  11
BRANCH   4  21
HETATM   21  C9  UNL     1      25.851   5.500  48.913  1.00  0.00     0.063 C 
BRANCH  21  22
HETATM   22  C10 UNL     1      27.213   4.863  48.897  1.00  0.00     0.044 C 
BRANCH  22  23
HETATM   23  C11 UNL     1      28.184   5.782  48.257  1.00  0.00    -0.058 A 
HETATM   24  C12 UNL     1      29.528   5.496  48.143  1.00  0.00     0.007 A 
HETATM   25  C13 UNL     1      30.359   6.430  47.526  1.00  0.00     0.001 A 
HETATM   26  C14 UNL     1      29.781   7.594  47.063  1.00  0.00     0.000 A 
HETATM   27  C15 UNL     1      28.448   7.903  47.164  1.00  0.00     0.001 A 
HETATM   28  C16 UNL     1      27.641   6.981  47.770  1.00  0.00     0.007 A 
ENDBRANCH  22  23
ENDBRANCH  21  22
ENDBRANCH   4  21
TORSDOF 5
ENDMDL
MODEL 2
REMARK VINA RESULT:      -8.5      3.895      6.280
REMARK  5 active torsions:
REMARK  status: ('A' for Active; 'I' for Inactive)
REMARK    1  A    between atoms: C4_5  and  N1_6 
REMARK    2  A    between atoms: N1_6  and  C5_7 
REMARK    3  A    between atoms: C8_10  and  C9_11 
REMARK    4  A    between atoms: C9_11  and  C10_12 
REMARK    5  A    between atoms: C10_12  and  C11_13 
ROOT
HETATM    1  C5  UNL     1      22.631   2.634  50.558  1.00  0.00     0.137 C 
HETATM    2  C6  UNL     1      23.970   2.613  50.644  1.00  0.00     0.009 C 
HETATM    3  C7  UNL     1      24.983   1.583  51.129  1.00  0.00     0.039 C 
HETATM    4  C8  UNL     1      25.531   2.315  52.221  1.00  0.00     0.030 C 
HETATM    5  N2  UNL     1      24.785   3.591  52.065  1.00  0.00    -0.291 N 
HETATM    6  C17 UNL     1      24.947   3.851  50.544  1.00  0.00     0.191 C 
HETATM    7  N3  UNL     1      23.901   4.251  52.985  1.00  0.00    -0.292 N 
HETATM    8  C18 UNL     1      22.500   4.362  52.352  1.00  0.00     0.226 C 
HETATM    9  N4  UNL     1      22.066   3.922  51.106  1.00  0.00    -0.225 NA
HETATM   10  H16 UNL     1      24.562   4.381  53.753  1.00  0.00     0.188 HD
ENDROOT
BRANCH   1  11
HETATM   11  N1  UNL     1      22.329   1.381  50.029  1.00  0.00    -0.340 N 
HETATM   12  H3  UNL     1      22.590   1.003  49.156  1.00  0.00     0.167 HD
BRANCH  11  13
HETATM   13  C4  UNL     1      21.544   0.770  51.037  1.00  0.00     0.035 A 
HETATM   14  C3  UNL     1      20.214   0.845  50.676  1.00  0.00     0.032 A 
HETATM   15  C2  UNL     1      19.220   0.313  51.509  1.00  0.00     0.046 A 
HETATM   16  C1  UNL     1      19.591  -0.289  52.702  1.00  0.00     0.133 A 
HETATM   17  F1  UNL     1      18.677  -0.832  53.573  1.00  0.00    -0.205 F 
HETATM   18  C20 UNL     1      20.928  -0.352  53.044  1.00  0.00     0.051 A 
HETATM   19  C19 UNL     1      21.906   0.171  52.224  1.00  0.00     0.051 A 
HETATM   20 BR1  UNL     1      21.540  -1.162  54.677  1.00  0.00    -0.048 Br
ENDBRANCH  11  13
ENDBRANCH   1  11
BRANCH   4  21
HETATM   21  C9  UNL     1      26.412   2.110  53.354  1.00  0.00     0.063 C 
BRANCH  21  22
HETATM   22  C10 UNL     1      26.135   0.843  54.117  1.00  0.00     0.044 C 
BRANCH  22  23
HETATM   23  C11 UNL     1      27.128  -0.191  53.740  1.00  0.00    -0.058 A 
HETATM   24  C12 UNL     1      28.465  -0.106  54.069  1.00  0.00     0.007 A 
HETATM   25  C13 UNL     1      29.317  -1.132  53.663  1.00  0.00     0.001 A 
HETATM   26  C14 UNL     1      28.767  -2.178  52.952  1.00  0.00     0.000 A 
HETATM   27  C15 UNL     1      27.443  -2.286  52.611  1.00  0.00     0.001 A 
HETATM   28  C16 UNL     1      26.614  -1.276  53.013  1.00  0.00     0.007 A 
ENDBRANCH  22  23
ENDBRANCH  21  22
ENDBRANCH   4  21
TORSDOF 5
ENDMDL
MODEL 3
REMARK VINA RESULT:      -8.4      1.691      2.003
REMARK  5 active torsions:
REMARK  status: ('A' for Active; 'I' for Inactive)
REMARK    1  A    between atoms: C4_5  and  N1_6 
REMARK    2  A    between atoms: N1_6  and  C5_7 
REMARK    3  A    between atoms: C8_10  and  C9_11 
REMARK    4  A    between atoms: C9_11  and  C10_12 
REMARK    5  A    between atoms: C10_12  and  C11_13 
ROOT
HETATM    1  C5  UNL     1      22.743   3.092  51.130  1.00  0.00     0.137 C 
HETATM    2  C6  UNL     1      23.126   3.882  50.116  1.00  0.00     0.009 C 
HETATM    3  C7  UNL     1      24.307   3.871  49.154  1.00  0.00     0.039 C 
HETATM    4  C8  UNL     1      24.912   5.102  49.539  1.00  0.00     0.030 C 
HETATM    5  N2  UNL     1      23.922   5.560  50.548  1.00  0.00    -0.291 N 
HETATM    6  C17 UNL     1      22.589   5.332  49.788  1.00  0.00     0.191 C 
HETATM    7  N3  UNL     1      24.105   5.848  51.943  1.00  0.00    -0.292 N 
HETATM    8  C18 UNL     1      23.219   4.903  52.777  1.00  0.00     0.226 C 
HETATM    9  N4  UNL     1      22.355   3.904  52.343  1.00  0.00    -0.225 NA
HETATM   10  H16 UNL     1      24.803   6.589  51.848  1.00  0.00     0.188 HD
ENDROOT
BRANCH   1  11
HETATM   11  N1  UNL     1      22.932   1.809  50.620  1.00  0.00    -0.340 N 
HETATM   12  H3  UNL     1      22.835   1.497  49.689  1.00  0.00     0.167 HD
BRANCH  11  13
HETATM   13  C4  UNL     1      23.290   1.043  51.757  1.00  0.00     0.035 A 
HETATM   14  C3  UNL     1      24.651   1.148  51.957  1.00  0.00     0.032 A 
HETATM   15  C2  UNL     1      25.266   0.478  53.023  1.00  0.00     0.046 A 
HETATM   16  C1  UNL     1      24.488  -0.293  53.874  1.00  0.00     0.133 A 
HETATM   17  F1  UNL     1      25.016  -0.981  54.940  1.00  0.00    -0.205 F 
HETATM   18  C20 UNL     1      23.127  -0.385  53.655  1.00  0.00     0.051 A 
HETATM   19  C19 UNL     1      22.522   0.275  52.605  1.00  0.00     0.051 A 
HETATM   20 BR1  UNL     1      21.968  -1.430  54.775  1.00  0.00    -0.048 Br
ENDBRANCH  11  13
ENDBRANCH   1  11
BRANCH   4  21
HETATM   21  C9  UNL     1      26.137   5.845  49.318  1.00  0.00     0.063 C 
BRANCH  21  22
HETATM   22  C10 UNL     1      27.273   5.005  48.799  1.00  0.00     0.044 C 
BRANCH  22  23
HETATM   23  C11 UNL     1      28.303   5.882  48.195  1.00  0.00    -0.058 A 
HETATM   24  C12 UNL     1      29.635   5.532  48.114  1.00  0.00     0.007 A 
HETATM   25  C13 UNL     1      30.526   6.431  47.528  1.00  0.00     0.001 A 
HETATM   26  C14 UNL     1      30.017   7.625  47.062  1.00  0.00     0.000 A 
HETATM   27  C15 UNL     1      28.699   7.997  47.130  1.00  0.00     0.001 A 
HETATM   28  C16 UNL     1      27.832   7.109  47.705  1.00  0.00     0.007 A 
ENDBRANCH  22  23
ENDBRANCH  21  22
ENDBRANCH   4  21
TORSDOF 5
ENDMDL
MODEL 4
REMARK VINA RESULT:      -8.3      2.494      3.331
REMARK  5 active torsions:
REMARK  status: ('A' for Active; 'I' for Inactive)
REMARK    1  A    between atoms: C4_5  and  N1_6 
REMARK    2  A    between atoms: N1_6  and  C5_7 
REMARK    3  A    between atoms: C8_10  and  C9_11 
REMARK    4  A    between atoms: C9_11  and  C10_12 
REMARK    5  A    between atoms: C10_12  and  C11_13 
ROOT
HETATM    1  C5  UNL     1      20.193   1.655  51.606  1.00  0.00     0.137 C 
HETATM    2  C6  UNL     1      20.518   2.002  50.352  1.00  0.00     0.009 C 
HETATM    3  C7  UNL     1      21.564   1.514  49.356  1.00  0.00     0.039 C 
HETATM    4  C8  UNL     1      22.326   2.712  49.238  1.00  0.00     0.030 C 
HETATM    5  N2  UNL     1      21.517   3.608  50.105  1.00  0.00    -0.291 N 
HETATM    6  C17 UNL     1      20.084   3.316  49.588  1.00  0.00     0.191 C 
HETATM    7  N3  UNL     1      21.900   4.319  51.293  1.00  0.00    -0.292 N 
HETATM    8  C18 UNL     1      21.039   3.834  52.475  1.00  0.00     0.226 C 
HETATM    9  N4  UNL     1      20.038   2.869  52.489  1.00  0.00    -0.225 NA
HETATM   10  H16 UNL     1      22.647   4.887  50.888  1.00  0.00     0.188 HD
ENDROOT
BRANCH   1  11
HETATM   11  N1  UNL     1      20.194   0.262  51.558  1.00  0.00    -0.340 N 
HETATM   12  H3  UNL     1      19.661  -0.334  50.980  1.00  0.00     0.167 HD
BRANCH  11  13
HETATM   13  C4  UNL     1      21.139  -0.108  52.546  1.00  0.00     0.035 A 
HETATM   14  C3  UNL     1      20.474  -0.684  53.608  1.00  0.00     0.032 A 
HETATM   15  C2  UNL     1      21.182  -1.139  54.729  1.00  0.00     0.046 A 
HETATM   16  C1  UNL     1      22.561  -1.001  54.756  1.00  0.00     0.133 A 
HETATM   17  F1  UNL     1      23.327  -1.419  55.819  1.00  0.00    -0.205 F 
HETATM   18  C20 UNL     1      23.208  -0.420  53.682  1.00  0.00     0.051 A 
HETATM   19  C19 UNL     1      22.510   0.028  52.579  1.00  0.00     0.051 A 
HETATM   20 BR1  UNL     1      25.114  -0.181  53.629  1.00  0.00    -0.048 Br
ENDBRANCH  11  13
ENDBRANCH   1  11
BRANCH   4  21
HETATM   21  C9  UNL     1      23.578   3.170  48.669  1.00  0.00     0.063 C 
BRANCH  21  22
HETATM   22  C10 UNL     1      24.690   3.304  49.673  1.00  0.00     0.044 C 
BRANCH  22  23
HETATM   23  C11 UNL     1      25.645   4.343  49.221  1.00  0.00    -0.058 A 
HETATM   24  C12 UNL     1      26.998   4.113  49.085  1.00  0.00     0.007 A 
HETATM   25  C13 UNL     1      27.812   5.160  48.655  1.00  0.00     0.001 A 
HETATM   26  C14 UNL     1      27.211   6.372  48.390  1.00  0.00     0.000 A 
HETATM   27  C15 UNL     1      25.869   6.628  48.518  1.00  0.00     0.001 A 
HETATM   28  C16 UNL     1      25.078   5.595  48.940  1.00  0.00     0.007 A 
ENDBRANCH  22  23
ENDBRANCH  21  22
ENDBRANCH   4  21
TORSDOF 5
ENDMDL
MODEL 5
REMARK VINA RESULT:      -8.3      3.225      6.628
REMARK  5 active torsions:
REMARK  status: ('A' for Active; 'I' for Inactive)
REMARK    1  A    between atoms: C4_5  and  N1_6 
REMARK    2  A    between atoms: N1_6  and  C5_7 
REMARK    3  A    between atoms: C8_10  and  C9_11 
REMARK    4  A    between atoms: C9_11  and  C10_12 
REMARK    5  A    between atoms: C10_12  and  C11_13 
ROOT
HETATM    1  C5  UNL     1      24.741   3.645  52.074  1.00  0.00     0.137 C 
HETATM    2  C6  UNL     1      23.457   4.003  51.922  1.00  0.00     0.009 C 
HETATM    3  C7  UNL     1      22.129   3.380  52.333  1.00  0.00     0.039 C 
HETATM    4  C8  UNL     1      21.586   3.152  51.036  1.00  0.00     0.030 C 
HETATM    5  N2  UNL     1      22.662   3.754  50.206  1.00  0.00    -0.291 N 
HETATM    6  C17 UNL     1      22.889   5.102  50.938  1.00  0.00     0.191 C 
HETATM    7  N3  UNL     1      23.483   3.148  49.196  1.00  0.00    -0.292 N 
HETATM    8  C18 UNL     1      24.961   3.233  49.624  1.00  0.00     0.226 C 
HETATM    9  N4  UNL     1      25.506   3.781  50.780  1.00  0.00    -0.225 NA
HETATM   10  H16 UNL     1      22.739   2.857  48.558  1.00  0.00     0.188 HD
ENDROOT
BRANCH   1  11
HETATM   11  N1  UNL     1      24.798   3.232  53.404  1.00  0.00    -0.340 N 
HETATM   12  H3  UNL     1      24.376   3.645  54.194  1.00  0.00     0.167 HD
BRANCH  11  13
HETATM   13  C4  UNL     1      25.617   2.078  53.363  1.00  0.00     0.035 A 
HETATM   14  C3  UNL     1      24.839   0.987  53.036  1.00  0.00     0.032 A 
HETATM   15  C2  UNL     1      25.409  -0.289  52.932  1.00  0.00     0.046 A 
HETATM   16  C1  UNL     1      26.769  -0.440  53.164  1.00  0.00     0.133 A 
HETATM   17  F1  UNL     1      27.403  -1.657  53.083  1.00  0.00    -0.205 F 
HETATM   18  C20 UNL     1      27.530   0.666  53.490  1.00  0.00     0.051 A 
HETATM   19  C19 UNL     1      26.967   1.921  53.593  1.00  0.00     0.051 A 
HETATM   20 BR1  UNL     1      29.418   0.556  53.833  1.00  0.00    -0.048 Br
ENDBRANCH  11  13
ENDBRANCH   1  11
BRANCH   4  21
HETATM   21  C9  UNL     1      20.471   2.466  50.413  1.00  0.00     0.063 C 
BRANCH  21  22
HETATM   22  C10 UNL     1      20.701   0.994  50.206  1.00  0.00     0.044 C 
BRANCH  22  23
HETATM   23  C11 UNL     1      20.521   0.278  51.491  1.00  0.00    -0.058 A 
HETATM   24  C12 UNL     1      19.289   0.095  52.085  1.00  0.00     0.007 A 
HETATM   25  C13 UNL     1      19.230  -0.592  53.297  1.00  0.00     0.001 A 
HETATM   26  C14 UNL     1      20.415  -1.048  53.834  1.00  0.00     0.000 A 
HETATM   27  C15 UNL     1      21.652  -0.879  53.265  1.00  0.00     0.001 A 
HETATM   28  C16 UNL     1      21.701  -0.206  52.076  1.00  0.00     0.007 A 
ENDBRANCH  22  23
ENDBRANCH  21  22
ENDBRANCH   4  21
TORSDOF 5
ENDMDL
MODEL 6
REMARK VINA RESULT:      -8.2      3.352      6.942
REMARK  5 active torsions:
REMARK  status: ('A' for Active; 'I' for Inactive)
REMARK    1  A    between atoms: C4_5  and  N1_6 
REMARK    2  A    between atoms: N1_6  and  C5_7 
REMARK    3  A    between atoms: C8_10  and  C9_11 
REMARK    4  A    between atoms: C9_11  and  C10_12 
REMARK    5  A    between atoms: C10_12  and  C11_13 
ROOT
HETATM    1  C5  UNL     1      22.577   4.609  51.450  1.00  0.00     0.137 C 
HETATM    2  C6  UNL     1      22.790   3.541  52.232  1.00  0.00     0.009 C 
HETATM    3  C7  UNL     1      24.009   2.988  52.960  1.00  0.00     0.039 C 
HETATM    4  C8  UNL     1      24.128   1.747  52.270  1.00  0.00     0.030 C 
HETATM    5  N2  UNL     1      22.936   1.836  51.388  1.00  0.00    -0.291 N 
HETATM    6  C17 UNL     1      21.846   2.284  52.398  1.00  0.00     0.191 C 
HETATM    7  N3  UNL     1      22.856   1.817  49.954  1.00  0.00    -0.292 N 
HETATM    8  C18 UNL     1      22.242   3.141  49.462  1.00  0.00     0.226 C 
HETATM    9  N4  UNL     1      21.810   4.235  50.205  1.00  0.00    -0.225 NA
HETATM   10  H16 UNL     1      23.277   0.899  49.798  1.00  0.00     0.188 HD
ENDROOT
BRANCH   1  11
HETATM   11  N1  UNL     1      23.233   5.634  52.130  1.00  0.00    -0.340 N 
HETATM   12  H3  UNL     1      23.139   5.903  53.074  1.00  0.00     0.167 HD
BRANCH  11  13
HETATM   13  C4  UNL     1      24.068   6.212  51.142  1.00  0.00     0.035 A 
HETATM   14  C3  UNL     1      23.663   7.512  50.919  1.00  0.00     0.032 A 
HETATM   15  C2  UNL     1      24.326   8.312  49.979  1.00  0.00     0.046 A 
HETATM   16  C1  UNL     1      25.395   7.779  49.275  1.00  0.00     0.133 A 
HETATM   17  F1  UNL     1      26.095   8.498  48.335  1.00  0.00    -0.205 F 
HETATM   18  C20 UNL     1      25.784   6.475  49.513  1.00  0.00     0.051 A 
HETATM   19  C19 UNL     1      25.130   5.688  50.438  1.00  0.00     0.051 A 
HETATM   20 BR1  UNL     1      27.248   5.647  48.585  1.00  0.00    -0.048 Br
ENDBRANCH  11  13
ENDBRANCH   1  11
BRANCH   4  21
HETATM   21  C9  UNL     1      25.057   0.641  52.144  1.00  0.00     0.063 C 
BRANCH  21  22
HETATM   22  C10 UNL     1      25.283  -0.113  53.426  1.00  0.00     0.044 C 
BRANCH  22  23
HETATM   23  C11 UNL     1      26.732  -0.364  53.606  1.00  0.00    -0.058 A 
HETATM   24  C12 UNL     1      27.417  -1.344  52.918  1.00  0.00     0.007 A 
HETATM   25  C13 UNL     1      28.781  -1.501  53.163  1.00  0.00     0.001 A 
HETATM   26  C14 UNL     1      29.367  -0.661  54.086  1.00  0.00     0.000 A 
HETATM   27  C15 UNL     1      28.709   0.320  54.785  1.00  0.00     0.001 A 
HETATM   28  C16 UNL     1      27.372   0.467  54.538  1.00  0.00     0.007 A 
ENDBRANCH  22  23
ENDBRANCH  21  22
ENDBRANCH   4  21
TORSDOF 5
ENDMDL
MODEL 7
REMARK VINA RESULT:      -8.0      2.850      6.498
REMARK  5 active torsions:
REMARK  status: ('A' for Active; 'I' for Inactive)
REMARK    1  A    between atoms: C4_5  and  N1_6 
REMARK    2  A    between atoms: N1_6  and  C5_7 
REMARK    3  A    between atoms: C8_10  and  C9_11 
REMARK    4  A    between atoms: C9_11  and  C10_12 
REMARK    5  A    between atoms: C10_12  and  C11_13 
ROOT
HETATM    1  C5  UNL     1      23.183   4.701  50.184  1.00  0.00     0.137 C 
HETATM    2  C6  UNL     1      22.652   3.942  51.154  1.00  0.00     0.009 C 
HETATM    3  C7  UNL     1      23.232   3.185  52.342  1.00  0.00     0.039 C 
HETATM    4  C8  UNL     1      22.878   1.862  51.951  1.00  0.00     0.030 C 
HETATM    5  N2  UNL     1      22.127   2.164  50.705  1.00  0.00    -0.291 N 
HETATM    6  C17 UNL     1      21.202   3.315  51.181  1.00  0.00     0.191 C 
HETATM    7  N3  UNL     1      22.382   1.736  49.358  1.00  0.00    -0.292 N 
HETATM    8  C18 UNL     1      22.636   2.971  48.472  1.00  0.00     0.226 C 
HETATM    9  N4  UNL     1      22.643   4.315  48.827  1.00  0.00    -0.225 NA
HETATM   10  H16 UNL     1      22.317   0.727  49.511  1.00  0.00     0.188 HD
ENDROOT
BRANCH   1  11
HETATM   11  N1  UNL     1      24.082   5.511  50.873  1.00  0.00    -0.340 N 
HETATM   12  H3  UNL     1      23.942   6.008  51.713  1.00  0.00     0.167 HD
BRANCH  11  13
HETATM   13  C4  UNL     1      25.254   5.466  50.079  1.00  0.00     0.035 A 
HETATM   14  C3  UNL     1      25.759   4.183  50.098  1.00  0.00     0.032 A 
HETATM   15  C2  UNL     1      26.926   3.866  49.389  1.00  0.00     0.046 A 
HETATM   16  C1  UNL     1      27.566   4.862  48.667  1.00  0.00     0.133 A 
HETATM   17  F1  UNL     1      28.715   4.633  47.947  1.00  0.00    -0.205 F 
HETATM   18  C20 UNL     1      27.044   6.141  48.661  1.00  0.00     0.051 A 
HETATM   19  C19 UNL     1      25.896   6.452  49.360  1.00  0.00     0.051 A 
HETATM   20 BR1  UNL     1      27.861   7.588  47.696  1.00  0.00    -0.048 Br
ENDBRANCH  11  13
ENDBRANCH   1  11
BRANCH   4  21
HETATM   21  C9  UNL     1      23.139   0.490  52.341  1.00  0.00     0.063 C 
BRANCH  21  22
HETATM   22  C10 UNL     1      23.805   0.355  53.683  1.00  0.00     0.044 C 
BRANCH  22  23
HETATM   23  C11 UNL     1      25.269   0.211  53.498  1.00  0.00    -0.058 A 
HETATM   24  C12 UNL     1      25.843  -0.864  52.852  1.00  0.00     0.007 A 
HETATM   25  C13 UNL     1      27.232  -0.906  52.734  1.00  0.00     0.001 A 
HETATM   26  C14 UNL     1      27.953   0.138  53.275  1.00  0.00     0.000 A 
HETATM   27  C15 UNL     1      27.407   1.217  53.923  1.00  0.00     0.001 A 
HETATM   28  C16 UNL     1      26.044   1.250  54.034  1.00  0.00     0.007 A 
ENDBRANCH  22  23
ENDBRANCH  21  22
ENDBRANCH   4  21
TORSDOF 5
ENDMDL
MODEL 8
REMARK VINA RESULT:      -7.8      5.454      7.312
REMARK  5 active torsions:
REMARK  status: ('A' for Active; 'I' for Inactive)
REMARK    1  A    between atoms: C4_5  and  N1_6 
REMARK    2  A    between atoms: N1_6  and  C5_7 
REMARK    3  A    between atoms: C8_10  and  C9_11 
REMARK    4  A    between atoms: C9_11  and  C10_12 
REMARK    5  A    between atoms: C10_12  and  C11_13 
ROOT
HETATM    1  C5  UNL     1      21.299   2.929  52.332  1.00  0.00     0.137 C 
HETATM    2  C6  UNL     1      22.233   2.066  51.903  1.00  0.00     0.009 C 
HETATM    3  C7  UNL     1      22.889   0.831  52.507  1.00  0.00     0.039 C 
HETATM    4  C8  UNL     1      24.230   1.307  52.572  1.00  0.00     0.030 C 
HETATM    5  N2  UNL     1      24.052   2.637  51.933  1.00  0.00    -0.291 N 
HETATM    6  C17 UNL     1      23.216   2.262  50.682  1.00  0.00     0.191 C 
HETATM    7  N3  UNL     1      24.310   3.947  52.463  1.00  0.00    -0.292 N 
HETATM    8  C18 UNL     1      22.995   4.751  52.490  1.00  0.00     0.226 C 
HETATM    9  N4  UNL     1      21.722   4.359  52.092  1.00  0.00    -0.225 NA
HETATM   10  H16 UNL     1      25.308   3.835  52.651  1.00  0.00     0.188 HD
ENDROOT
BRANCH   1  11
HETATM   11  N1  UNL     1      20.330   2.096  52.887  1.00  0.00    -0.340 N 
HETATM   12  H3  UNL     1      20.331   1.653  53.768  1.00  0.00     0.167 HD
BRANCH  11  13
HETATM   13  C4  UNL     1      19.336   2.019  51.881  1.00  0.00     0.035 A 
HETATM   14  C3  UNL     1      19.112   0.693  51.572  1.00  0.00     0.032 A 
HETATM   15  C2  UNL     1      18.170   0.339  50.596  1.00  0.00     0.046 A 
HETATM   16  C1  UNL     1      17.466   1.341  49.945  1.00  0.00     0.133 A 
HETATM   17  F1  UNL     1      16.528   1.076  48.975  1.00  0.00    -0.205 F 
HETATM   18  C20 UNL     1      17.706   2.662  50.269  1.00  0.00     0.051 A 
HETATM   19  C19 UNL     1      18.634   3.010  51.229  1.00  0.00     0.051 A 
HETATM   20 BR1  UNL     1      16.785   4.119  49.419  1.00  0.00    -0.048 Br
ENDBRANCH  11  13
ENDBRANCH   1  11
BRANCH   4  21
HETATM   21  C9  UNL     1      25.509   0.926  53.137  1.00  0.00     0.063 C 
BRANCH  21  22
HETATM   22  C10 UNL     1      26.025  -0.396  52.637  1.00  0.00     0.044 C 
BRANCH  22  23
HETATM   23  C11 UNL     1      27.451  -0.547  53.013  1.00  0.00    -0.058 A 
HETATM   24  C12 UNL     1      28.240   0.512  53.412  1.00  0.00     0.007 A 
HETATM   25  C13 UNL     1      29.571   0.263  53.743  1.00  0.00     0.001 A 
HETATM   26  C14 UNL     1      30.023  -1.037  53.648  1.00  0.00     0.000 A 
HETATM   27  C15 UNL     1      29.260  -2.107  53.253  1.00  0.00     0.001 A 
HETATM   28  C16 UNL     1      27.955  -1.854  52.932  1.00  0.00     0.007 A 
ENDBRANCH  22  23
ENDBRANCH  21  22
ENDBRANCH   4  21
TORSDOF 5
ENDMDL
MODEL 9
REMARK VINA RESULT:      -7.7      2.775      3.381
REMARK  5 active torsions:
REMARK  status: ('A' for Active; 'I' for Inactive)
REMARK    1  A    between atoms: C4_5  and  N1_6 
REMARK    2  A    between atoms: N1_6  and  C5_7 
REMARK    3  A    between atoms: C8_10  and  C9_11 
REMARK    4  A    between atoms: C9_11  and  C10_12 
REMARK    5  A    between atoms: C10_12  and  C11_13 
ROOT
HETATM    1  C5  UNL     1      22.687   3.052  51.107  1.00  0.00     0.137 C 
HETATM    2  C6  UNL     1      22.830   3.866  50.051  1.00  0.00     0.009 C 
HETATM    3  C7  UNL     1      23.767   3.887  48.850  1.00  0.00     0.039 C 
HETATM    4  C8  UNL     1      24.437   5.116  49.119  1.00  0.00     0.030 C 
HETATM    5  N2  UNL     1      23.694   5.544  50.333  1.00  0.00    -0.291 N 
HETATM    6  C17 UNL     1      22.226   5.317  49.884  1.00  0.00     0.191 C 
HETATM    7  N3  UNL     1      24.182   5.805  51.658  1.00  0.00    -0.292 N 
HETATM    8  C18 UNL     1      23.508   4.834  52.647  1.00  0.00     0.226 C 
HETATM    9  N4  UNL     1      22.575   3.834  52.394  1.00  0.00    -0.225 NA
HETATM   10  H16 UNL     1      24.837   6.554  51.427  1.00  0.00     0.188 HD
ENDROOT
BRANCH   1  11
HETATM   11  N1  UNL     1      22.765   1.782  50.539  1.00  0.00    -0.340 N 
HETATM   12  H3  UNL     1      23.233   1.504  49.717  1.00  0.00     0.167 HD
BRANCH  11  13
HETATM   13  C4  UNL     1      22.000   0.973  51.416  1.00  0.00     0.035 A 
HETATM   14  C3  UNL     1      20.688   0.966  50.990  1.00  0.00     0.032 A 
HETATM   15  C2  UNL     1      19.717   0.239  51.690  1.00  0.00     0.046 A 
HETATM   16  C1  UNL     1      20.092  -0.474  52.819  1.00  0.00     0.133 A 
HETATM   17  F1  UNL     1      19.199  -1.210  53.561  1.00  0.00    -0.205 F 
HETATM   18  C20 UNL     1      21.411  -0.453  53.229  1.00  0.00     0.051 A 
HETATM   19  C19 UNL     1      22.367   0.264  52.539  1.00  0.00     0.051 A 
HETATM   20 BR1  UNL     1      22.027  -1.404  54.782  1.00  0.00    -0.048 Br
ENDBRANCH  11  13
ENDBRANCH   1  11
BRANCH   4  21
HETATM   21  C9  UNL     1      25.577   5.876  48.647  1.00  0.00     0.063 C 
BRANCH  21  22
HETATM   22  C10 UNL     1      26.903   5.230  48.943  1.00  0.00     0.044 C 
BRANCH  22  23
HETATM   23  C11 UNL     1      27.986   5.990  48.275  1.00  0.00    -0.058 A 
HETATM   24  C12 UNL     1      27.787   7.218  47.679  1.00  0.00     0.007 A 
HETATM   25  C13 UNL     1      28.873   7.849  47.075  1.00  0.00     0.001 A 
HETATM   26  C14 UNL     1      30.090   7.202  47.108  1.00  0.00     0.000 A 
HETATM   27  C15 UNL     1      30.315   5.981  47.692  1.00  0.00     0.001 A 
HETATM   28  C16 UNL     1      29.245   5.369  48.283  1.00  0.00     0.007 A 
ENDBRANCH  22  23
ENDBRANCH  21  22
ENDBRANCH   4  21
TORSDOF 5
ENDMDL
