MODEL 1
REMARK VINA RESULT:      -8.5      0.000      0.000
REMARK  4 active torsions:
REMARK  status: ('A' for Active; 'I' for Inactive)
REMARK    1  A    between atoms: N1_1  and  C1_2 
REMARK    2  A    between atoms: C1_2  and  C2_3 
REMARK    3  A    between atoms: C2_3  and  C3_4 
REMARK    4  A    between atoms: C3_4  and  N2_5 
ROOT
HETATM    1  C3  UNL     1      24.826   4.187  50.154  1.00  0.00     0.178 C 
HETATM    2  N3  UNL     1      24.629   5.510  50.748  1.00  0.00    -0.230 NA
HETATM    3  C9  UNL     1      23.493   5.865  51.267  1.00  0.00     0.148 C 
HETATM    4  C10 UNL     1      22.107   5.449  51.555  1.00  0.00     0.052 C 
HETATM    5  C11 UNL     1      21.032   4.673  51.495  1.00  0.00     0.000 C 
HETATM    6  C12 UNL     1      20.307   3.492  51.018  1.00  0.00    -0.021 C 
HETATM    7  C13 UNL     1      20.896   2.697  50.137  1.00  0.00     0.051 C 
HETATM    8  C14 UNL     1      20.529   1.430  49.437  1.00  0.00     0.004 C 
HETATM    9  C15 UNL     1      21.463   1.012  48.547  1.00  0.00    -0.014 C 
HETATM   10  C16 UNL     1      22.378   2.159  48.784  1.00  0.00    -0.039 A 
HETATM   11  C17 UNL     1      21.941   3.008  47.731  1.00  0.00     0.012 A 
HETATM   12  C18 UNL     1      22.518   4.264  47.620  1.00  0.00     0.010 A 
HETATM   13  C19 UNL     1      23.426   4.941  48.273  1.00  0.00    -0.029 A 
HETATM   14  C20 UNL     1      23.707   3.925  49.234  1.00  0.00     0.005 A 
HETATM   15  C21 UNL     1      23.353   2.691  49.591  1.00  0.00     0.023 A 
HETATM   16  C22 UNL     1      24.237   6.150  48.467  1.00  0.00     0.159 C 
HETATM   17  N4  UNL     1      23.632   6.989  49.546  1.00  0.00    -0.380 N 
HETATM   18  C23 UNL     1      24.174   8.014  50.441  1.00  0.00     0.205 C 
HETATM   19  N5  UNL     1      24.021   7.150  51.468  1.00  0.00    -0.225 NA
HETATM   20  H21 UNL     1      22.602   6.732  49.551  1.00  0.00     0.160 HD
ENDROOT
BRANCH   1  21
HETATM   21  C2  UNL     1      26.098   4.150  49.405  1.00  0.00     0.050 C 
BRANCH  21  22
HETATM   22  C1  UNL     1      27.270   4.404  48.868  1.00  0.00     0.081 C 
BRANCH  22  23
HETATM   23  N1  UNL     1      27.593   5.770  49.208  1.00  0.00    -0.408 N 
HETATM   24  H1  UNL     1      27.797   6.784  49.250  1.00  0.00     0.155 HD
HETATM   25  H2  UNL     1      27.858   6.513  49.901  1.00  0.00     0.155 HD
ENDBRANCH  22  23
ENDBRANCH  21  22
ENDBRANCH   1  21
BRANCH   1  26
HETATM   26  N2  UNL     1      25.047   3.320  51.270  1.00  0.00    -0.354 N 
HETATM   27  C4  UNL     1      26.380   2.949  51.468  1.00  0.00     0.103 C 
HETATM   28  C5  UNL     1      26.639   2.390  52.602  1.00  0.00     0.009 C 
HETATM   29 BR1  UNL     1      28.403   1.781  53.164  1.00  0.00    -0.054 Br
HETATM   30  C6  UNL     1      26.056   1.869  53.851  1.00  0.00     0.043 C 
HETATM   31  C7  UNL     1      24.712   2.208  53.427  1.00  0.00     0.020 C 
HETATM   32  C8  UNL     1      24.035   2.842  52.214  1.00  0.00     0.131 C 
ENDBRANCH   1  26
TORSDOF 4
ENDMDL
MODEL 2
REMARK VINA RESULT:      -7.2      2.531      4.846
REMARK  4 active torsions:
REMARK  status: ('A' for Active; 'I' for Inactive)
REMARK    1  A    between atoms: N1_1  and  C1_2 
REMARK    2  A    between atoms: C1_2  and  C2_3 
REMARK    3  A    between atoms: C2_3  and  C3_4 
REMARK    4  A    between atoms: C3_4  and  N2_5 
ROOT
HETATM    1  C3  UNL     1      23.255   3.069  49.709  1.00  0.00     0.178 C 
HETATM    2  N3  UNL     1      22.292   4.121  50.036  1.00  0.00    -0.230 NA
HETATM    3  C9  UNL     1      22.314   4.738  51.177  1.00  0.00     0.148 C 
HETATM    4  C10 UNL     1      22.989   4.849  52.485  1.00  0.00     0.052 C 
HETATM    5  C11 UNL     1      23.822   4.501  53.458  1.00  0.00     0.000 C 
HETATM    6  C12 UNL     1      24.822   3.612  54.056  1.00  0.00    -0.021 C 
HETATM    7  C13 UNL     1      25.141   2.495  53.420  1.00  0.00     0.051 C 
HETATM    8  C14 UNL     1      26.089   1.366  53.665  1.00  0.00     0.004 C 
HETATM    9  C15 UNL     1      26.011   0.383  52.735  1.00  0.00    -0.014 C 
HETATM   10  C16 UNL     1      24.926   1.036  51.957  1.00  0.00    -0.039 A 
HETATM   11  C17 UNL     1      23.810   0.385  52.550  1.00  0.00     0.012 A 
HETATM   12  C18 UNL     1      22.540   0.758  52.139  1.00  0.00     0.010 A 
HETATM   13  C19 UNL     1      22.043   1.618  51.288  1.00  0.00    -0.029 A 
HETATM   14  C20 UNL     1      23.299   2.121  50.834  1.00  0.00     0.005 A 
HETATM   15  C21 UNL     1      24.612   1.982  51.014  1.00  0.00     0.023 A 
HETATM   16  C22 UNL     1      20.899   2.255  50.623  1.00  0.00     0.159 C 
HETATM   17  N4  UNL     1      20.617   3.573  51.269  1.00  0.00    -0.380 N 
HETATM   18  C23 UNL     1      19.942   4.790  50.811  1.00  0.00     0.205 C 
HETATM   19  N5  UNL     1      21.141   5.411  50.802  1.00  0.00    -0.225 NA
HETATM   20  H21 UNL     1      20.993   3.482  52.258  1.00  0.00     0.160 HD
ENDROOT
BRANCH   1  21
HETATM   21  C2  UNL     1      22.837   2.359  48.483  1.00  0.00     0.050 C 
BRANCH  21  22
HETATM   22  C1  UNL     1      22.341   2.011  47.317  1.00  0.00     0.081 C 
BRANCH  22  23
HETATM   23  N1  UNL     1      21.525   3.115  46.868  1.00  0.00    -0.408 N 
HETATM   24  H1  UNL     1      21.119   3.981  46.472  1.00  0.00     0.155 HD
HETATM   25  H2  UNL     1      20.602   3.606  46.776  1.00  0.00     0.155 HD
ENDBRANCH  22  23
ENDBRANCH  21  22
ENDBRANCH   1  21
BRANCH   1  26
HETATM   26  N2  UNL     1      24.441   3.771  49.325  1.00  0.00    -0.354 N 
HETATM   27  C4  UNL     1      24.219   5.044  48.789  1.00  0.00     0.103 C 
HETATM   28  C5  UNL     1      25.267   5.790  48.680  1.00  0.00     0.009 C 
HETATM   29 BR1  UNL     1      25.266   7.611  47.983  1.00  0.00    -0.054 Br
HETATM   30  C6  UNL     1      26.732   5.842  48.828  1.00  0.00     0.043 C 
HETATM   31  C7  UNL     1      26.791   4.457  49.249  1.00  0.00     0.020 C 
HETATM   32  C8  UNL     1      25.818   3.303  49.483  1.00  0.00     0.131 C 
ENDBRANCH   1  26
TORSDOF 4
ENDMDL
MODEL 3
REMARK VINA RESULT:      -7.2      2.846      5.240
REMARK  4 active torsions:
REMARK  status: ('A' for Active; 'I' for Inactive)
REMARK    1  A    between atoms: N1_1  and  C1_2 
REMARK    2  A    between atoms: C1_2  and  C2_3 
REMARK    3  A    between atoms: C2_3  and  C3_4 
REMARK    4  A    between atoms: C3_4  and  N2_5 
ROOT
HETATM    1  C3  UNL     1      23.059   5.642  49.616  1.00  0.00     0.178 C 
HETATM    2  N3  UNL     1      24.285   6.277  49.133  1.00  0.00    -0.230 NA
HETATM    3  C9  UNL     1      25.423   5.653  49.129  1.00  0.00     0.148 C 
HETATM    4  C10 UNL     1      26.118   4.393  49.456  1.00  0.00     0.052 C 
HETATM    5  C11 UNL     1      26.258   3.180  49.976  1.00  0.00     0.000 C 
HETATM    6  C12 UNL     1      25.766   2.028  50.737  1.00  0.00    -0.021 C 
HETATM    7  C13 UNL     1      24.572   2.104  51.306  1.00  0.00     0.051 C 
HETATM    8  C14 UNL     1      23.723   1.185  52.121  1.00  0.00     0.004 C 
HETATM    9  C15 UNL     1      22.567   1.751  52.547  1.00  0.00    -0.014 C 
HETATM   10  C16 UNL     1      22.843   3.073  51.926  1.00  0.00    -0.039 A 
HETATM   11  C17 UNL     1      23.423   3.724  53.048  1.00  0.00     0.012 A 
HETATM   12  C18 UNL     1      23.897   5.017  52.881  1.00  0.00     0.010 A 
HETATM   13  C19 UNL     1      23.966   5.872  51.894  1.00  0.00    -0.029 A 
HETATM   14  C20 UNL     1      23.343   5.031  50.925  1.00  0.00     0.005 A 
HETATM   15  C21 UNL     1      22.809   3.819  50.774  1.00  0.00     0.023 A 
HETATM   16  C22 UNL     1      24.341   7.185  51.355  1.00  0.00     0.159 C 
HETATM   17  N4  UNL     1      25.632   7.069  50.611  1.00  0.00    -0.380 N 
HETATM   18  C23 UNL     1      26.253   7.866  49.550  1.00  0.00     0.205 C 
HETATM   19  N5  UNL     1      26.038   6.840  48.699  1.00  0.00    -0.225 NA
HETATM   20  H21 UNL     1      26.125   6.234  51.043  1.00  0.00     0.160 HD
ENDROOT
BRANCH   1  21
HETATM   21  C2  UNL     1      21.989   6.649  49.765  1.00  0.00     0.050 C 
BRANCH  21  22
HETATM   22  C1  UNL     1      21.282   7.748  49.903  1.00  0.00     0.081 C 
BRANCH  22  23
HETATM   23  N1  UNL     1      22.012   8.797  49.231  1.00  0.00    -0.408 N 
HETATM   24  H1  UNL     1      22.593   9.398  48.621  1.00  0.00     0.155 HD
HETATM   25  H2  UNL     1      22.314   9.797  49.133  1.00  0.00     0.155 HD
ENDBRANCH  22  23
ENDBRANCH  21  22
ENDBRANCH   1  21
BRANCH   1  26
HETATM   26  N2  UNL     1      22.624   4.822  48.528  1.00  0.00    -0.354 N 
HETATM   27  C4  UNL     1      22.149   5.526  47.417  1.00  0.00     0.103 C 
HETATM   28  C5  UNL     1      21.999   4.830  46.341  1.00  0.00     0.009 C 
HETATM   29 BR1  UNL     1      21.368   5.539  44.638  1.00  0.00    -0.054 Br
HETATM   30  C6  UNL     1      22.054   3.476  45.763  1.00  0.00     0.043 C 
HETATM   31  C7  UNL     1      22.420   2.889  47.036  1.00  0.00     0.020 C 
HETATM   32  C8  UNL     1      22.676   3.360  48.467  1.00  0.00     0.131 C 
ENDBRANCH   1  26
TORSDOF 4
ENDMDL
MODEL 4
REMARK VINA RESULT:      -7.1      2.423      4.108
REMARK  4 active torsions:
REMARK  status: ('A' for Active; 'I' for Inactive)
REMARK    1  A    between atoms: N1_1  and  C1_2 
REMARK    2  A    between atoms: C1_2  and  C2_3 
REMARK    3  A    between atoms: C2_3  and  C3_4 
REMARK    4  A    between atoms: C3_4  and  N2_5 
ROOT
HETATM    1  C3  UNL     1      23.943   5.817  49.810  1.00  0.00     0.178 C 
HETATM    2  N3  UNL     1      23.760   5.049  51.041  1.00  0.00    -0.230 NA
HETATM    3  C9  UNL     1      23.336   3.822  51.026  1.00  0.00     0.148 C 
HETATM    4  C10 UNL     1      22.887   2.703  50.175  1.00  0.00     0.052 C 
HETATM    5  C11 UNL     1      22.505   2.104  49.054  1.00  0.00     0.000 C 
HETATM    6  C12 UNL     1      22.178   2.107  47.626  1.00  0.00    -0.021 C 
HETATM    7  C13 UNL     1      22.187   3.260  46.974  1.00  0.00     0.051 C 
HETATM    8  C14 UNL     1      21.942   3.685  45.563  1.00  0.00     0.004 C 
HETATM    9  C15 UNL     1      22.004   5.028  45.384  1.00  0.00    -0.014 C 
HETATM   10  C16 UNL     1      22.281   5.329  46.812  1.00  0.00    -0.039 A 
HETATM   11  C17 UNL     1      20.951   5.579  47.245  1.00  0.00     0.012 A 
HETATM   12  C18 UNL     1      20.740   5.853  48.587  1.00  0.00     0.010 A 
HETATM   13  C19 UNL     1      21.488   5.949  49.656  1.00  0.00    -0.029 A 
HETATM   14  C20 UNL     1      22.724   5.678  48.997  1.00  0.00     0.005 A 
HETATM   15  C21 UNL     1      23.234   5.395  47.798  1.00  0.00     0.023 A 
HETATM   16  C22 UNL     1      21.650   6.194  51.094  1.00  0.00     0.159 C 
HETATM   17  N4  UNL     1      21.759   4.888  51.814  1.00  0.00    -0.380 N 
HETATM   18  C23 UNL     1      22.337   4.498  53.102  1.00  0.00     0.205 C 
HETATM   19  N5  UNL     1      23.310   3.845  52.429  1.00  0.00    -0.225 NA
HETATM   20  H21 UNL     1      21.256   4.189  51.193  1.00  0.00     0.160 HD
ENDROOT
BRANCH   1  21
HETATM   21  C2  UNL     1      24.162   7.243  50.127  1.00  0.00     0.050 C 
BRANCH  21  22
HETATM   22  C1  UNL     1      24.075   8.483  50.552  1.00  0.00     0.081 C 
BRANCH  22  23
HETATM   23  N1  UNL     1      25.427   8.978  50.666  1.00  0.00    -0.408 N 
HETATM   24  H1  UNL     1      26.434   9.148  50.832  1.00  0.00     0.155 HD
HETATM   25  H2  UNL     1      26.153   9.724  50.533  1.00  0.00     0.155 HD
ENDBRANCH  22  23
ENDBRANCH  21  22
ENDBRANCH   1  21
BRANCH   1  26
HETATM   26  N2  UNL     1      25.199   5.373  49.289  1.00  0.00    -0.354 N 
HETATM   27  C4  UNL     1      25.943   6.360  48.635  1.00  0.00     0.103 C 
HETATM   28  C5  UNL     1      27.173   6.056  48.390  1.00  0.00     0.009 C 
HETATM   29 BR1  UNL     1      28.452   7.232  47.505  1.00  0.00    -0.054 Br
HETATM   30  C6  UNL     1      28.188   4.990  48.452  1.00  0.00     0.043 C 
HETATM   31  C7  UNL     1      27.241   4.048  49.013  1.00  0.00     0.020 C 
HETATM   32  C8  UNL     1      25.769   4.031  49.421  1.00  0.00     0.131 C 
ENDBRANCH   1  26
TORSDOF 4
ENDMDL
MODEL 5
REMARK VINA RESULT:      -6.8      2.497      4.722
REMARK  4 active torsions:
REMARK  status: ('A' for Active; 'I' for Inactive)
REMARK    1  A    between atoms: N1_1  and  C1_2 
REMARK    2  A    between atoms: C1_2  and  C2_3 
REMARK    3  A    between atoms: C2_3  and  C3_4 
REMARK    4  A    between atoms: C3_4  and  N2_5 
ROOT
HETATM    1  C3  UNL     1      23.473   4.969  49.994  1.00  0.00     0.178 C 
HETATM    2  N3  UNL     1      23.099   3.642  50.483  1.00  0.00    -0.230 NA
HETATM    3  C9  UNL     1      22.665   2.716  49.685  1.00  0.00     0.148 C 
HETATM    4  C10 UNL     1      22.330   2.374  48.289  1.00  0.00     0.052 C 
HETATM    5  C11 UNL     1      22.109   2.602  47.000  1.00  0.00     0.000 C 
HETATM    6  C12 UNL     1      21.997   3.487  45.838  1.00  0.00    -0.021 C 
HETATM    7  C13 UNL     1      22.118   4.793  46.019  1.00  0.00     0.051 C 
HETATM    8  C14 UNL     1      22.090   5.996  45.134  1.00  0.00     0.004 C 
HETATM    9  C15 UNL     1      22.197   7.167  45.809  1.00  0.00    -0.014 C 
HETATM   10  C16 UNL     1      22.265   6.530  47.149  1.00  0.00    -0.039 A 
HETATM   11  C17 UNL     1      20.889   6.606  47.497  1.00  0.00     0.012 A 
HETATM   12  C18 UNL     1      20.486   6.046  48.700  1.00  0.00     0.010 A 
HETATM   13  C19 UNL     1      21.070   5.413  49.684  1.00  0.00    -0.029 A 
HETATM   14  C20 UNL     1      22.385   5.464  49.134  1.00  0.00     0.005 A 
HETATM   15  C21 UNL     1      23.063   5.900  48.072  1.00  0.00     0.023 A 
HETATM   16  C22 UNL     1      21.021   4.736  50.986  1.00  0.00     0.159 C 
HETATM   17  N4  UNL     1      21.004   3.256  50.778  1.00  0.00    -0.380 N 
HETATM   18  C23 UNL     1      21.381   2.120  51.624  1.00  0.00     0.205 C 
HETATM   19  N5  UNL     1      22.432   1.902  50.805  1.00  0.00    -0.225 NA
HETATM   20  H21 UNL     1      20.588   3.117  49.812  1.00  0.00     0.160 HD
ENDROOT
BRANCH   1  21
HETATM   21  C2  UNL     1      23.664   5.896  51.128  1.00  0.00     0.050 C 
BRANCH  21  22
HETATM   22  C1  UNL     1      24.006   6.479  52.255  1.00  0.00     0.081 C 
BRANCH  22  23
HETATM   23  N1  UNL     1      23.929   5.469  53.284  1.00  0.00    -0.408 N 
HETATM   24  H1  UNL     1      23.688   4.706  53.941  1.00  0.00     0.155 HD
HETATM   25  H2  UNL     1      24.332   4.950  54.103  1.00  0.00     0.155 HD
ENDBRANCH  22  23
ENDBRANCH  21  22
ENDBRANCH   1  21
BRANCH   1  26
HETATM   26  N2  UNL     1      24.786   4.799  49.452  1.00  0.00    -0.354 N 
HETATM   27  C4  UNL     1      25.360   5.963  48.933  1.00  0.00     0.103 C 
HETATM   28  C5  UNL     1      26.624   5.894  48.681  1.00  0.00     0.009 C 
HETATM   29 BR1  UNL     1      27.696   7.357  47.966  1.00  0.00    -0.054 Br
HETATM   30  C6  UNL     1      27.799   5.006  48.639  1.00  0.00     0.043 C 
HETATM   31  C7  UNL     1      27.016   3.863  49.066  1.00  0.00     0.020 C 
HETATM   32  C8  UNL     1      25.566   3.561  49.437  1.00  0.00     0.131 C 
ENDBRANCH   1  26
TORSDOF 4
ENDMDL
MODEL 6
REMARK VINA RESULT:      -6.7      3.178      6.117
REMARK  4 active torsions:
REMARK  status: ('A' for Active; 'I' for Inactive)
REMARK    1  A    between atoms: N1_1  and  C1_2 
REMARK    2  A    between atoms: C1_2  and  C2_3 
REMARK    3  A    between atoms: C2_3  and  C3_4 
REMARK    4  A    between atoms: C3_4  and  N2_5 
ROOT
HETATM    1  C3  UNL     1      22.802   4.136  48.764  1.00  0.00     0.178 C 
HETATM    2  N3  UNL     1      21.829   4.389  49.826  1.00  0.00    -0.230 NA
HETATM    3  C9  UNL     1      21.958   5.385  50.650  1.00  0.00     0.148 C 
HETATM    4  C10 UNL     1      22.790   6.539  51.037  1.00  0.00     0.052 C 
HETATM    5  C11 UNL     1      23.858   7.328  51.027  1.00  0.00     0.000 C 
HETATM    6  C12 UNL     1      25.205   7.685  50.575  1.00  0.00    -0.021 C 
HETATM    7  C13 UNL     1      25.849   6.850  49.773  1.00  0.00     0.051 C 
HETATM    8  C14 UNL     1      27.179   6.842  49.093  1.00  0.00     0.004 C 
HETATM    9  C15 UNL     1      27.427   5.701  48.403  1.00  0.00    -0.014 C 
HETATM   10  C16 UNL     1      26.140   5.055  48.768  1.00  0.00    -0.039 A 
HETATM   11  C17 UNL     1      26.580   4.314  49.898  1.00  0.00     0.012 A 
HETATM   12  C18 UNL     1      25.640   3.582  50.607  1.00  0.00     0.010 A 
HETATM   13  C19 UNL     1      24.353   3.369  50.517  1.00  0.00    -0.029 A 
HETATM   14  C20 UNL     1      24.149   4.173  49.358  1.00  0.00     0.005 A 
HETATM   15  C21 UNL     1      24.798   4.954  48.494  1.00  0.00     0.023 A 
HETATM   16  C22 UNL     1      23.118   2.737  50.999  1.00  0.00     0.159 C 
HETATM   17  N4  UNL     1      22.336   3.723  51.807  1.00  0.00    -0.380 N 
HETATM   18  C23 UNL     1      20.917   3.832  52.157  1.00  0.00     0.205 C 
HETATM   19  N5  UNL     1      20.836   4.912  51.349  1.00  0.00    -0.225 NA
HETATM   20  H21 UNL     1      23.056   4.409  52.177  1.00  0.00     0.160 HD
ENDROOT
BRANCH   1  21
HETATM   21  C2  UNL     1      22.566   2.807  48.164  1.00  0.00     0.050 C 
BRANCH  21  22
HETATM   22  C1  UNL     1      22.151   1.595  47.871  1.00  0.00     0.081 C 
BRANCH  22  23
HETATM   23  N1  UNL     1      20.848   1.447  48.475  1.00  0.00    -0.408 N 
HETATM   24  H1  UNL     1      19.844   1.380  48.718  1.00  0.00     0.155 HD
HETATM   25  H2  UNL     1      20.227   1.263  49.301  1.00  0.00     0.155 HD
ENDBRANCH  22  23
ENDBRANCH  21  22
ENDBRANCH   1  21
BRANCH   1  26
HETATM   26  N2  UNL     1      22.456   5.059  47.728  1.00  0.00    -0.354 N 
HETATM   27  C4  UNL     1      21.404   4.646  46.904  1.00  0.00     0.103 C 
HETATM   28  C5  UNL     1      20.907   5.560  46.139  1.00  0.00     0.009 C 
HETATM   29 BR1  UNL     1      19.430   5.284  44.897  1.00  0.00    -0.054 Br
HETATM   30  C6  UNL     1      21.041   6.953  45.679  1.00  0.00     0.043 C 
HETATM   31  C7  UNL     1      22.210   7.169  46.509  1.00  0.00     0.020 C 
HETATM   32  C8  UNL     1      23.060   6.372  47.496  1.00  0.00     0.131 C 
ENDBRANCH   1  26
TORSDOF 4
ENDMDL
MODEL 7
REMARK VINA RESULT:      -6.4      2.822      4.197
REMARK  4 active torsions:
REMARK  status: ('A' for Active; 'I' for Inactive)
REMARK    1  A    between atoms: N1_1  and  C1_2 
REMARK    2  A    between atoms: C1_2  and  C2_3 
REMARK    3  A    between atoms: C2_3  and  C3_4 
REMARK    4  A    between atoms: C3_4  and  N2_5 
ROOT
HETATM    1  C3  UNL     1      22.218   5.916  48.057  1.00  0.00     0.178 C 
HETATM    2  N3  UNL     1      21.830   6.986  48.976  1.00  0.00    -0.230 NA
HETATM    3  C9  UNL     1      21.623   6.764  50.238  1.00  0.00     0.148 C 
HETATM    4  C10 UNL     1      21.603   5.743  51.303  1.00  0.00     0.052 C 
HETATM    5  C11 UNL     1      21.638   4.521  51.818  1.00  0.00     0.000 C 
HETATM    6  C12 UNL     1      21.716   3.062  51.698  1.00  0.00    -0.021 C 
HETATM    7  C13 UNL     1      21.722   2.523  50.488  1.00  0.00     0.051 C 
HETATM    8  C14 UNL     1      21.806   1.135  49.944  1.00  0.00     0.004 C 
HETATM    9  C15 UNL     1      21.704   1.076  48.593  1.00  0.00    -0.014 C 
HETATM   10  C16 UNL     1      21.532   2.542  48.420  1.00  0.00    -0.039 A 
HETATM   11  C17 UNL     1      20.112   2.593  48.394  1.00  0.00     0.012 A 
HETATM   12  C18 UNL     1      19.504   3.836  48.303  1.00  0.00     0.010 A 
HETATM   13  C19 UNL     1      19.909   5.077  48.229  1.00  0.00    -0.029 A 
HETATM   14  C20 UNL     1      21.304   4.781  48.263  1.00  0.00     0.005 A 
HETATM   15  C21 UNL     1      22.159   3.761  48.341  1.00  0.00     0.023 A 
HETATM   16  C22 UNL     1      19.633   6.516  48.128  1.00  0.00     0.159 C 
HETATM   17  N4  UNL     1      19.745   7.142  49.480  1.00  0.00    -0.380 N 
HETATM   18  C23 UNL     1      20.005   8.511  49.933  1.00  0.00     0.205 C 
HETATM   19  N5  UNL     1      21.213   8.099  50.375  1.00  0.00    -0.225 NA
HETATM   20  H21 UNL     1      19.545   6.356  50.165  1.00  0.00     0.160 HD
ENDROOT
BRANCH   1  21
HETATM   21  C2  UNL     1      22.118   6.382  46.660  1.00  0.00     0.050 C 
BRANCH  21  22
HETATM   22  C1  UNL     1      21.932   6.498  45.364  1.00  0.00     0.081 C 
BRANCH  22  23
HETATM   23  N1  UNL     1      21.908   5.158  44.827  1.00  0.00    -0.408 N 
HETATM   24  H1  UNL     1      21.689   4.233  44.418  1.00  0.00     0.155 HD
HETATM   25  H2  UNL     1      22.381   4.259  44.564  1.00  0.00     0.155 HD
ENDBRANCH  22  23
ENDBRANCH  21  22
ENDBRANCH   1  21
BRANCH   1  26
HETATM   26  N2  UNL     1      23.622   5.745  48.274  1.00  0.00    -0.354 N 
HETATM   27  C4  UNL     1      24.423   6.760  47.742  1.00  0.00     0.103 C 
HETATM   28  C5  UNL     1      25.650   6.767  48.143  1.00  0.00     0.009 C 
HETATM   29 BR1  UNL     1      26.994   8.065  47.585  1.00  0.00    -0.054 Br
HETATM   30  C6  UNL     1      26.663   6.050  48.936  1.00  0.00     0.043 C 
HETATM   31  C7  UNL     1      25.724   5.004  49.289  1.00  0.00     0.020 C 
HETATM   32  C8  UNL     1      24.261   4.660  49.018  1.00  0.00     0.131 C 
ENDBRANCH   1  26
TORSDOF 4
ENDMDL
MODEL 8
REMARK VINA RESULT:      -6.4      2.072      2.779
REMARK  4 active torsions:
REMARK  status: ('A' for Active; 'I' for Inactive)
REMARK    1  A    between atoms: N1_1  and  C1_2 
REMARK    2  A    between atoms: C1_2  and  C2_3 
REMARK    3  A    between atoms: C2_3  and  C3_4 
REMARK    4  A    between atoms: C3_4  and  N2_5 
ROOT
HETATM    1  C3  UNL     1      24.013   2.656  51.279  1.00  0.00     0.178 C 
HETATM    2  N3  UNL     1      23.876   3.608  52.381  1.00  0.00    -0.230 NA
HETATM    3  C9  UNL     1      22.763   4.236  52.608  1.00  0.00     0.148 C 
HETATM    4  C10 UNL     1      21.370   4.437  52.165  1.00  0.00     0.052 C 
HETATM    5  C11 UNL     1      20.321   4.326  51.359  1.00  0.00     0.000 C 
HETATM    6  C12 UNL     1      19.673   3.874  50.125  1.00  0.00    -0.021 C 
HETATM    7  C13 UNL     1      20.410   3.271  49.204  1.00  0.00     0.051 C 
HETATM    8  C14 UNL     1      20.149   2.663  47.864  1.00  0.00     0.004 C 
HETATM    9  C15 UNL     1      21.269   2.211  47.248  1.00  0.00    -0.014 C 
HETATM   10  C16 UNL     1      22.187   2.633  48.337  1.00  0.00    -0.039 A 
HETATM   11  C17 UNL     1      22.571   3.900  47.820  1.00  0.00     0.012 A 
HETATM   12  C18 UNL     1      23.413   4.691  48.586  1.00  0.00     0.010 A 
HETATM   13  C19 UNL     1      23.999   4.587  49.751  1.00  0.00    -0.029 A 
HETATM   14  C20 UNL     1      23.492   3.290  50.057  1.00  0.00     0.005 A 
HETATM   15  C21 UNL     1      22.713   2.324  49.567  1.00  0.00     0.023 A 
HETATM   16  C22 UNL     1      24.868   5.124  50.805  1.00  0.00     0.159 C 
HETATM   17  N4  UNL     1      24.028   5.699  51.900  1.00  0.00    -0.380 N 
HETATM   18  C23 UNL     1      24.274   5.959  53.320  1.00  0.00     0.205 C 
HETATM   19  N5  UNL     1      23.414   4.962  53.618  1.00  0.00    -0.225 NA
HETATM   20  H21 UNL     1      23.113   5.965  51.434  1.00  0.00     0.160 HD
ENDROOT
BRANCH   1  21
HETATM   21  C2  UNL     1      25.434   2.304  51.083  1.00  0.00     0.050 C 
BRANCH  21  22
HETATM   22  C1  UNL     1      26.698   1.975  51.227  1.00  0.00     0.081 C 
BRANCH  22  23
HETATM   23  N1  UNL     1      27.153   2.603  52.446  1.00  0.00    -0.408 N 
HETATM   24  H1  UNL     1      27.353   2.916  53.411  1.00  0.00     0.155 HD
HETATM   25  H2  UNL     1      27.729   3.312  52.961  1.00  0.00     0.155 HD
ENDBRANCH  22  23
ENDBRANCH  21  22
ENDBRANCH   1  21
BRANCH   1  26
HETATM   26  N2  UNL     1      23.414   1.451  51.765  1.00  0.00    -0.354 N 
HETATM   27  C4  UNL     1      24.100   0.841  52.819  1.00  0.00     0.103 C 
HETATM   28  C5  UNL     1      23.453  -0.088  53.440  1.00  0.00     0.009 C 
HETATM   29 BR1  UNL     1      24.145  -1.103  54.953  1.00  0.00    -0.054 Br
HETATM   30  C6  UNL     1      22.218  -0.891  53.459  1.00  0.00     0.043 C 
HETATM   31  C7  UNL     1      21.711  -0.236  52.270  1.00  0.00     0.020 C 
HETATM   32  C8  UNL     1      22.164   0.851  51.297  1.00  0.00     0.131 C 
ENDBRANCH   1  26
TORSDOF 4
ENDMDL
MODEL 9
REMARK VINA RESULT:      -6.3      3.033      5.989
REMARK  4 active torsions:
REMARK  status: ('A' for Active; 'I' for Inactive)
REMARK    1  A    between atoms: N1_1  and  C1_2 
REMARK    2  A    between atoms: C1_2  and  C2_3 
REMARK    3  A    between atoms: C2_3  and  C3_4 
REMARK    4  A    between atoms: C3_4  and  N2_5 
ROOT
HETATM    1  C3  UNL     1      23.157   4.724  49.131  1.00  0.00     0.178 C 
HETATM    2  N3  UNL     1      22.972   4.477  50.560  1.00  0.00    -0.230 NA
HETATM    3  C9  UNL     1      23.293   5.360  51.455  1.00  0.00     0.148 C 
HETATM    4  C10 UNL     1      23.853   6.706  51.687  1.00  0.00     0.052 C 
HETATM    5  C11 UNL     1      24.454   7.845  51.368  1.00  0.00     0.000 C 
HETATM    6  C12 UNL     1      25.123   8.740  50.420  1.00  0.00    -0.021 C 
HETATM    7  C13 UNL     1      25.363   8.301  49.192  1.00  0.00     0.051 C 
HETATM    8  C14 UNL     1      25.980   8.877  47.960  1.00  0.00     0.004 C 
HETATM    9  C15 UNL     1      26.066   7.994  46.935  1.00  0.00    -0.014 C 
HETATM   10  C16 UNL     1      25.467   6.866  47.694  1.00  0.00    -0.039 A 
HETATM   11  C17 UNL     1      26.664   6.251  48.151  1.00  0.00     0.012 A 
HETATM   12  C18 UNL     1      26.557   5.147  48.983  1.00  0.00     0.010 A 
HETATM   13  C19 UNL     1      25.577   4.459  49.509  1.00  0.00    -0.029 A 
HETATM   14  C20 UNL     1      24.526   5.227  48.926  1.00  0.00     0.005 A 
HETATM   15  C21 UNL     1      24.307   6.277  48.134  1.00  0.00     0.023 A 
HETATM   16  C22 UNL     1      25.083   3.354  50.340  1.00  0.00     0.159 C 
HETATM   17  N4  UNL     1      24.702   3.875  51.688  1.00  0.00    -0.380 N 
HETATM   18  C23 UNL     1      23.795   3.389  52.731  1.00  0.00     0.205 C 
HETATM   19  N5  UNL     1      22.973   4.424  52.451  1.00  0.00    -0.225 NA
HETATM   20  H21 UNL     1      25.288   4.749  51.822  1.00  0.00     0.160 HD
ENDROOT
BRANCH   1  21
HETATM   21  C2  UNL     1      22.974   3.473  48.369  1.00  0.00     0.050 C 
BRANCH  21  22
HETATM   22  C1  UNL     1      22.635   2.276  47.944  1.00  0.00     0.081 C 
BRANCH  22  23
HETATM   23  N1  UNL     1      22.114   1.563  49.087  1.00  0.00    -0.408 N 
HETATM   24  H1  UNL     1      21.814   0.884  49.808  1.00  0.00     0.155 HD
HETATM   25  H2  UNL     1      21.622   1.534  50.013  1.00  0.00     0.155 HD
ENDBRANCH  22  23
ENDBRANCH  21  22
ENDBRANCH   1  21
BRANCH   1  26
HETATM   26  N2  UNL     1      22.039   5.534  48.755  1.00  0.00    -0.354 N 
HETATM   27  C4  UNL     1      20.831   4.841  48.629  1.00  0.00     0.103 C 
HETATM   28  C5  UNL     1      19.774   5.577  48.550  1.00  0.00     0.009 C 
HETATM   29 BR1  UNL     1      17.956   4.895  48.381  1.00  0.00    -0.054 Br
HETATM   30  C6  UNL     1      19.271   6.959  48.457  1.00  0.00     0.043 C 
HETATM   31  C7  UNL     1      20.613   7.505  48.471  1.00  0.00     0.020 C 
HETATM   32  C8  UNL     1      22.046   6.982  48.546  1.00  0.00     0.131 C 
ENDBRANCH   1  26
TORSDOF 4
ENDMDL
