MODEL 1
REMARK VINA RESULT:      -7.3      0.000      0.000
REMARK  5 active torsions:
REMARK  status: ('A' for Active; 'I' for Inactive)
REMARK    1  A    between atoms: C7_9  and  N3_10 
REMARK    2  A    between atoms: N3_10  and  C8_11 
REMARK    3  A    between atoms: C9_12  and  C10_14 
REMARK    4  A    between atoms: C12_17  and  O1_18 
REMARK    5  A    between atoms: O1_18  and  C13_19 
ROOT
HETATM    1  C1  UNL     1      22.134   0.783  51.461  1.00  0.00     0.052 C 
HETATM    2  C2  UNL     1      21.979   0.042  52.706  1.00  0.00    -0.013 A 
HETATM    3  C3  UNL     1      22.804  -0.402  53.634  1.00  0.00     0.032 A 
HETATM    4  C4  UNL     1      22.098  -1.055  54.614  1.00  0.00     0.074 A 
HETATM    5  N1  UNL     1      22.822  -1.554  55.618  1.00  0.00    -0.241 NA
HETATM    6  C5  UNL     1      24.142  -1.455  55.716  1.00  0.00     0.234 A 
HETATM    7  N2  UNL     1      24.790  -0.813  54.743  1.00  0.00    -0.240 NA
HETATM    8  C6  UNL     1      24.167  -0.279  53.698  1.00  0.00     0.086 A 
HETATM    9  C7  UNL     1      24.861   0.350  52.775  1.00  0.00     0.120 C 
HETATM   10  C11 UNL     1      20.668  -0.992  54.222  1.00  0.00     0.070 A 
HETATM   11  C12 UNL     1      20.611  -0.317  53.051  1.00  0.00     0.087 A 
ENDROOT
BRANCH   9  12
HETATM   12  N3  UNL     1      26.295   0.388  52.997  1.00  0.00    -0.372 N 
HETATM   13  H6  UNL     1      26.908   1.113  53.484  1.00  0.00     0.164 HD
BRANCH  12  14
HETATM   14  C8  UNL     1      27.380  -0.495  52.646  1.00  0.00     0.109 C 
HETATM   15  C9  UNL     1      28.364  -0.586  53.522  1.00  0.00     0.055 C 
HETATM   16 CL1  UNL     1      28.448   0.266  55.049  1.00  0.00    -0.085 Cl
BRANCH  15  17
HETATM   17  C10 UNL     1      29.561  -1.425  53.363  1.00  0.00     0.275 C 
HETATM   18  F1  UNL     1      29.233  -2.747  53.203  1.00  0.00    -0.250 F 
ENDBRANCH  15  17
ENDBRANCH  12  14
ENDBRANCH   9  12
BRANCH  11  19
HETATM   19  O1  UNL     1      19.291  -0.299  52.757  1.00  0.00    -0.285 OA
BRANCH  19  20
HETATM   20  C13 UNL     1      18.288  -1.175  52.908  1.00  0.00     0.403 C 
HETATM   21  O2  UNL     1      17.296  -0.863  53.568  1.00  0.00    -0.276 OA
ENDBRANCH  19  20
ENDBRANCH  11  19
TORSDOF 5
ENDMDL
MODEL 2
REMARK VINA RESULT:      -7.0      4.712      5.824
REMARK  5 active torsions:
REMARK  status: ('A' for Active; 'I' for Inactive)
REMARK    1  A    between atoms: C7_9  and  N3_10 
REMARK    2  A    between atoms: N3_10  and  C8_11 
REMARK    3  A    between atoms: C9_12  and  C10_14 
REMARK    4  A    between atoms: C12_17  and  O1_18 
REMARK    5  A    between atoms: O1_18  and  C13_19 
ROOT
HETATM    1  C1  UNL     1      22.940   1.417  51.741  1.00  0.00     0.052 C 
HETATM    2  C2  UNL     1      24.113   0.955  52.473  1.00  0.00    -0.013 A 
HETATM    3  C3  UNL     1      25.377   1.322  52.529  1.00  0.00     0.032 A 
HETATM    4  C4  UNL     1      26.060   0.516  53.408  1.00  0.00     0.074 A 
HETATM    5  N1  UNL     1      27.358   0.787  53.556  1.00  0.00    -0.241 NA
HETATM    6  C5  UNL     1      28.002   1.760  52.925  1.00  0.00     0.234 A 
HETATM    7  N2  UNL     1      27.303   2.520  52.080  1.00  0.00    -0.240 NA
HETATM    8  C6  UNL     1      26.006   2.337  51.857  1.00  0.00     0.086 A 
HETATM    9  C7  UNL     1      25.371   3.125  51.019  1.00  0.00     0.120 C 
HETATM   10  C11 UNL     1      25.076  -0.456  53.945  1.00  0.00     0.070 A 
HETATM   11  C12 UNL     1      23.887  -0.174  53.363  1.00  0.00     0.087 A 
ENDROOT
BRANCH   9  12
HETATM   12  N3  UNL     1      26.186   4.149  50.391  1.00  0.00    -0.372 N 
HETATM   13  H6  UNL     1      27.244   4.232  50.282  1.00  0.00     0.164 HD
BRANCH  12  14
HETATM   14  C8  UNL     1      25.883   5.390  49.719  1.00  0.00     0.109 C 
HETATM   15  C9  UNL     1      26.771   5.807  48.837  1.00  0.00     0.055 C 
HETATM   16 CL1  UNL     1      28.261   4.983  48.426  1.00  0.00    -0.085 Cl
BRANCH  15  17
HETATM   17  C10 UNL     1      26.659   7.039  48.043  1.00  0.00     0.275 C 
HETATM   18  F1  UNL     1      27.768   7.239  47.261  1.00  0.00    -0.250 F 
ENDBRANCH  15  17
ENDBRANCH  12  14
ENDBRANCH   9  12
BRANCH  11  19
HETATM   19  O1  UNL     1      23.046  -1.090  53.894  1.00  0.00    -0.285 OA
BRANCH  19  20
HETATM   20  C13 UNL     1      22.243  -1.110  54.967  1.00  0.00     0.403 C 
HETATM   21  O2  UNL     1      21.283  -1.882  54.999  1.00  0.00    -0.276 OA
ENDBRANCH  19  20
ENDBRANCH  11  19
TORSDOF 5
ENDMDL
MODEL 3
REMARK VINA RESULT:      -6.9      1.493      2.458
REMARK  5 active torsions:
REMARK  status: ('A' for Active; 'I' for Inactive)
REMARK    1  A    between atoms: C7_9  and  N3_10 
REMARK    2  A    between atoms: N3_10  and  C8_11 
REMARK    3  A    between atoms: C9_12  and  C10_14 
REMARK    4  A    between atoms: C12_17  and  O1_18 
REMARK    5  A    between atoms: O1_18  and  C13_19 
ROOT
HETATM    1  C1  UNL     1      22.006  -1.620  54.723  1.00  0.00     0.052 C 
HETATM    2  C2  UNL     1      21.693  -0.661  53.670  1.00  0.00    -0.013 A 
HETATM    3  C3  UNL     1      22.405   0.130  52.892  1.00  0.00     0.032 A 
HETATM    4  C4  UNL     1      21.573   0.839  52.059  1.00  0.00     0.074 A 
HETATM    5  N1  UNL     1      22.174   1.680  51.216  1.00  0.00    -0.241 NA
HETATM    6  C5  UNL     1      23.487   1.861  51.140  1.00  0.00     0.234 A 
HETATM    7  N2  UNL     1      24.259   1.153  51.965  1.00  0.00    -0.240 NA
HETATM    8  C6  UNL     1      23.765   0.288  52.845  1.00  0.00     0.086 A 
HETATM    9  C7  UNL     1      24.579  -0.386  53.626  1.00  0.00     0.120 C 
HETATM   10  C11 UNL     1      20.187   0.416  52.382  1.00  0.00     0.070 A 
HETATM   11  C12 UNL     1      20.278  -0.504  53.370  1.00  0.00     0.087 A 
ENDROOT
BRANCH   9  12
HETATM   12  N3  UNL     1      25.990  -0.097  53.447  1.00  0.00    -0.372 N 
HETATM   13  H6  UNL     1      26.557   0.783  53.655  1.00  0.00     0.164 HD
BRANCH  12  14
HETATM   14  C8  UNL     1      27.104  -0.857  52.933  1.00  0.00     0.109 C 
HETATM   15  C9  UNL     1      28.244  -0.736  53.587  1.00  0.00     0.055 C 
HETATM   16 CL1  UNL     1      28.501   0.255  55.008  1.00  0.00    -0.085 Cl
BRANCH  15  17
HETATM   17  C10 UNL     1      29.497  -1.420  53.235  1.00  0.00     0.275 C 
HETATM   18  F1  UNL     1      30.588  -0.777  53.761  1.00  0.00    -0.250 F 
ENDBRANCH  15  17
ENDBRANCH  12  14
ENDBRANCH   9  12
BRANCH  11  19
HETATM   19  O1  UNL     1      18.990  -0.841  53.611  1.00  0.00    -0.285 OA
BRANCH  19  20
HETATM   20  C13 UNL     1      17.923  -1.069  52.832  1.00  0.00     0.403 C 
HETATM   21  O2  UNL     1      16.813  -0.661  53.180  1.00  0.00    -0.276 OA
ENDBRANCH  19  20
ENDBRANCH  11  19
TORSDOF 5
ENDMDL
MODEL 4
REMARK VINA RESULT:      -6.8      2.092      2.702
REMARK  5 active torsions:
REMARK  status: ('A' for Active; 'I' for Inactive)
REMARK    1  A    between atoms: C7_9  and  N3_10 
REMARK    2  A    between atoms: N3_10  and  C8_11 
REMARK    3  A    between atoms: C9_12  and  C10_14 
REMARK    4  A    between atoms: C12_17  and  O1_18 
REMARK    5  A    between atoms: O1_18  and  C13_19 
ROOT
HETATM    1  C1  UNL     1      23.908   1.946  51.142  1.00  0.00     0.052 C 
HETATM    2  C2  UNL     1      22.954   1.084  51.829  1.00  0.00    -0.013 A 
HETATM    3  C3  UNL     1      23.012   0.276  52.869  1.00  0.00     0.032 A 
HETATM    4  C4  UNL     1      21.784  -0.301  53.082  1.00  0.00     0.074 A 
HETATM    5  N1  UNL     1      21.710  -1.145  54.113  1.00  0.00    -0.241 NA
HETATM    6  C5  UNL     1      22.722  -1.444  54.917  1.00  0.00     0.234 A 
HETATM    7  N2  UNL     1      23.898  -0.861  54.676  1.00  0.00    -0.240 NA
HETATM    8  C6  UNL     1      24.083  -0.007  53.676  1.00  0.00     0.086 A 
HETATM    9  C7  UNL     1      25.264   0.541  53.495  1.00  0.00     0.120 C 
HETATM   10  C11 UNL     1      20.877   0.231  52.035  1.00  0.00     0.070 A 
HETATM   11  C12 UNL     1      21.608   1.078  51.275  1.00  0.00     0.087 A 
ENDROOT
BRANCH   9  12
HETATM   12  N3  UNL     1      26.288   0.133  54.438  1.00  0.00    -0.372 N 
HETATM   13  H6  UNL     1      26.213  -0.224  55.442  1.00  0.00     0.164 HD
BRANCH  12  14
HETATM   14  C8  UNL     1      27.728   0.069  54.379  1.00  0.00     0.109 C 
HETATM   15  C9  UNL     1      28.240  -0.888  53.627  1.00  0.00     0.055 C 
HETATM   16 CL1  UNL     1      27.319  -2.063  52.711  1.00  0.00    -0.085 Cl
BRANCH  15  17
HETATM   17  C10 UNL     1      29.675  -1.129  53.427  1.00  0.00     0.275 C 
HETATM   18  F1  UNL     1      30.386   0.043  53.407  1.00  0.00    -0.250 F 
ENDBRANCH  15  17
ENDBRANCH  12  14
ENDBRANCH   9  12
BRANCH  11  19
HETATM   19  O1  UNL     1      20.725   1.521  50.351  1.00  0.00    -0.285 OA
BRANCH  19  20
HETATM   20  C13 UNL     1      20.679   1.487  49.011  1.00  0.00     0.403 C 
HETATM   21  O2  UNL     1      21.539   0.866  48.385  1.00  0.00    -0.276 OA
ENDBRANCH  19  20
ENDBRANCH  11  19
TORSDOF 5
ENDMDL
MODEL 5
REMARK VINA RESULT:      -6.7      5.039      7.168
REMARK  5 active torsions:
REMARK  status: ('A' for Active; 'I' for Inactive)
REMARK    1  A    between atoms: C7_9  and  N3_10 
REMARK    2  A    between atoms: N3_10  and  C8_11 
REMARK    3  A    between atoms: C9_12  and  C10_14 
REMARK    4  A    between atoms: C12_17  and  O1_18 
REMARK    5  A    between atoms: O1_18  and  C13_19 
ROOT
HETATM    1  C1  UNL     1      25.237   0.837  52.381  1.00  0.00     0.052 C 
HETATM    2  C2  UNL     1      24.613   0.043  53.432  1.00  0.00    -0.013 A 
HETATM    3  C3  UNL     1      23.392  -0.393  53.667  1.00  0.00     0.032 A 
HETATM    4  C4  UNL     1      23.369  -1.114  54.836  1.00  0.00     0.074 A 
HETATM    5  N1  UNL     1      22.183  -1.615  55.187  1.00  0.00    -0.241 NA
HETATM    6  C5  UNL     1      21.064  -1.460  54.491  1.00  0.00     0.234 A 
HETATM    7  N2  UNL     1      21.129  -0.754  53.362  1.00  0.00    -0.240 NA
HETATM    8  C6  UNL     1      22.258  -0.210  52.919  1.00  0.00     0.086 A 
HETATM    9  C7  UNL     1      22.259   0.468  51.794  1.00  0.00     0.120 C 
HETATM   10  C11 UNL     1      24.755  -1.108  55.366  1.00  0.00     0.070 A 
HETATM   11  C12 UNL     1      25.506  -0.395  54.495  1.00  0.00     0.087 A 
ENDROOT
BRANCH   9  12
HETATM   12  N3  UNL     1      20.974   0.567  51.128  1.00  0.00    -0.372 N 
HETATM   13  H6  UNL     1      20.427  -0.146  50.551  1.00  0.00     0.164 HD
BRANCH  12  14
HETATM   14  C8  UNL     1      20.001   1.624  50.992  1.00  0.00     0.109 C 
HETATM   15  C9  UNL     1      18.738   1.280  51.159  1.00  0.00     0.055 C 
HETATM   16 CL1  UNL     1      18.164  -0.334  51.527  1.00  0.00    -0.085 Cl
BRANCH  15  17
HETATM   17  C10 UNL     1      17.593   2.196  51.066  1.00  0.00     0.275 C 
HETATM   18  F1  UNL     1      17.700   3.231  51.958  1.00  0.00    -0.250 F 
ENDBRANCH  15  17
ENDBRANCH  12  14
ENDBRANCH   9  12
BRANCH  11  19
HETATM   19  O1  UNL     1      26.744  -0.431  55.037  1.00  0.00    -0.285 OA
BRANCH  19  20
HETATM   20  C13 UNL     1      27.910   0.163  54.744  1.00  0.00     0.403 C 
HETATM   21  O2  UNL     1      27.975   1.392  54.692  1.00  0.00    -0.276 OA
ENDBRANCH  19  20
ENDBRANCH  11  19
TORSDOF 5
ENDMDL
MODEL 6
REMARK VINA RESULT:      -6.7      5.104      7.062
REMARK  5 active torsions:
REMARK  status: ('A' for Active; 'I' for Inactive)
REMARK    1  A    between atoms: C7_9  and  N3_10 
REMARK    2  A    between atoms: N3_10  and  C8_11 
REMARK    3  A    between atoms: C9_12  and  C10_14 
REMARK    4  A    between atoms: C12_17  and  O1_18 
REMARK    5  A    between atoms: O1_18  and  C13_19 
ROOT
HETATM    1  C1  UNL     1      26.714   1.555  51.951  1.00  0.00     0.052 C 
HETATM    2  C2  UNL     1      25.784   0.747  52.730  1.00  0.00    -0.013 A 
HETATM    3  C3  UNL     1      24.477   0.579  52.734  1.00  0.00     0.032 A 
HETATM    4  C4  UNL     1      24.125  -0.327  53.706  1.00  0.00     0.074 A 
HETATM    5  N1  UNL     1      22.820  -0.587  53.813  1.00  0.00    -0.241 NA
HETATM    6  C5  UNL     1      21.878  -0.037  53.057  1.00  0.00     0.234 A 
HETATM    7  N2  UNL     1      22.261   0.837  52.126  1.00  0.00    -0.240 NA
HETATM    8  C6  UNL     1      23.534   1.168  51.934  1.00  0.00     0.086 A 
HETATM    9  C7  UNL     1      23.849   2.030  50.993  1.00  0.00     0.120 C 
HETATM   10  C11 UNL     1      25.384  -0.755  54.364  1.00  0.00     0.070 A 
HETATM   11  C12 UNL     1      26.392  -0.089  53.755  1.00  0.00     0.087 A 
ENDROOT
BRANCH   9  12
HETATM   12  N3  UNL     1      22.729   2.560  50.237  1.00  0.00    -0.372 N 
HETATM   13  H6  UNL     1      21.898   2.070  49.781  1.00  0.00     0.164 HD
BRANCH  12  14
HETATM   14  C8  UNL     1      22.345   3.889  49.827  1.00  0.00     0.109 C 
HETATM   15  C9  UNL     1      21.532   4.538  50.641  1.00  0.00     0.055 C 
HETATM   16 CL1  UNL     1      20.900   3.920  52.153  1.00  0.00    -0.085 Cl
BRANCH  15  17
HETATM   17  C10 UNL     1      21.020   5.897  50.416  1.00  0.00     0.275 C 
HETATM   18  F1  UNL     1      21.501   6.779  51.349  1.00  0.00    -0.250 F 
ENDBRANCH  15  17
ENDBRANCH  12  14
ENDBRANCH   9  12
BRANCH  11  19
HETATM   19  O1  UNL     1      27.498  -0.524  54.400  1.00  0.00    -0.285 OA
BRANCH  19  20
HETATM   20  C13 UNL     1      28.690   0.021  54.682  1.00  0.00     0.403 C 
HETATM   21  O2  UNL     1      28.749   1.169  55.126  1.00  0.00    -0.276 OA
ENDBRANCH  19  20
ENDBRANCH  11  19
TORSDOF 5
ENDMDL
MODEL 7
REMARK VINA RESULT:      -6.6      4.955      7.448
REMARK  5 active torsions:
REMARK  status: ('A' for Active; 'I' for Inactive)
REMARK    1  A    between atoms: C7_9  and  N3_10 
REMARK    2  A    between atoms: N3_10  and  C8_11 
REMARK    3  A    between atoms: C9_12  and  C10_14 
REMARK    4  A    between atoms: C12_17  and  O1_18 
REMARK    5  A    between atoms: O1_18  and  C13_19 
ROOT
HETATM    1  C1  UNL     1      24.981  -0.832  54.603  1.00  0.00     0.052 C 
HETATM    2  C2  UNL     1      25.688  -0.014  53.625  1.00  0.00    -0.013 A 
HETATM    3  C3  UNL     1      25.331   0.903  52.748  1.00  0.00     0.032 A 
HETATM    4  C4  UNL     1      26.435   1.355  52.069  1.00  0.00     0.074 A 
HETATM    5  N1  UNL     1      26.207   2.293  51.147  1.00  0.00    -0.241 NA
HETATM    6  C5  UNL     1      25.012   2.794  50.863  1.00  0.00     0.234 A 
HETATM    7  N2  UNL     1      23.965   2.328  51.545  1.00  0.00    -0.240 NA
HETATM    8  C6  UNL     1      24.080   1.395  52.484  1.00  0.00     0.086 A 
HETATM    9  C7  UNL     1      23.011   0.982  53.128  1.00  0.00     0.120 C 
HETATM   10  C11 UNL     1      27.601   0.614  52.611  1.00  0.00     0.070 A 
HETATM   11  C12 UNL     1      27.127  -0.221  53.564  1.00  0.00     0.087 A 
ENDROOT
BRANCH   9  12
HETATM   12  N3  UNL     1      21.764   1.606  52.724  1.00  0.00    -0.372 N 
HETATM   13  H6  UNL     1      21.542   2.615  52.454  1.00  0.00     0.164 HD
BRANCH  12  14
HETATM   14  C8  UNL     1      20.416   1.121  52.557  1.00  0.00     0.109 C 
HETATM   15  C9  UNL     1      20.080   0.740  51.339  1.00  0.00     0.055 C 
HETATM   16 CL1  UNL     1      21.128   0.777  49.936  1.00  0.00    -0.085 Cl
BRANCH  15  17
HETATM   17  C10 UNL     1      18.763   0.215  50.951  1.00  0.00     0.275 C 
HETATM   18  F1  UNL     1      18.303  -0.710  51.852  1.00  0.00    -0.250 F 
ENDBRANCH  15  17
ENDBRANCH  12  14
ENDBRANCH   9  12
BRANCH  11  19
HETATM   19  O1  UNL     1      28.234  -0.858  54.009  1.00  0.00    -0.285 OA
BRANCH  19  20
HETATM   20  C13 UNL     1      29.164  -1.631  53.430  1.00  0.00     0.403 C 
HETATM   21  O2  UNL     1      29.014  -2.853  53.402  1.00  0.00    -0.276 OA
ENDBRANCH  19  20
ENDBRANCH  11  19
TORSDOF 5
ENDMDL
MODEL 8
REMARK VINA RESULT:      -6.6      5.038      7.023
REMARK  5 active torsions:
REMARK  status: ('A' for Active; 'I' for Inactive)
REMARK    1  A    between atoms: C7_9  and  N3_10 
REMARK    2  A    between atoms: N3_10  and  C8_11 
REMARK    3  A    between atoms: C9_12  and  C10_14 
REMARK    4  A    between atoms: C12_17  and  O1_18 
REMARK    5  A    between atoms: O1_18  and  C13_19 
ROOT
HETATM    1  C1  UNL     1      26.749   1.782  51.748  1.00  0.00     0.052 C 
HETATM    2  C2  UNL     1      25.899   0.872  52.506  1.00  0.00    -0.013 A 
HETATM    3  C3  UNL     1      24.598   0.693  52.621  1.00  0.00     0.032 A 
HETATM    4  C4  UNL     1      24.342  -0.333  53.498  1.00  0.00     0.074 A 
HETATM    5  N1  UNL     1      23.054  -0.616  53.703  1.00  0.00    -0.241 NA
HETATM    6  C5  UNL     1      22.043   0.018  53.123  1.00  0.00     0.234 A 
HETATM    7  N2  UNL     1      22.334   1.008  52.278  1.00  0.00    -0.240 NA
HETATM    8  C6  UNL     1      23.582   1.372  52.003  1.00  0.00     0.086 A 
HETATM    9  C7  UNL     1      23.804   2.351  51.154  1.00  0.00     0.120 C 
HETATM   10  C11 UNL     1      25.660  -0.831  53.966  1.00  0.00     0.070 A 
HETATM   11  C12 UNL     1      26.604  -0.083  53.349  1.00  0.00     0.087 A 
ENDROOT
BRANCH   9  12
HETATM   12  N3  UNL     1      22.616   2.964  50.589  1.00  0.00    -0.372 N 
HETATM   13  H6  UNL     1      21.633   3.083  50.988  1.00  0.00     0.164 HD
BRANCH  12  14
HETATM   14  C8  UNL     1      22.329   3.603  49.328  1.00  0.00     0.109 C 
HETATM   15  C9  UNL     1      21.860   2.823  48.372  1.00  0.00     0.055 C 
HETATM   16 CL1  UNL     1      21.564   1.103  48.517  1.00  0.00    -0.085 Cl
BRANCH  15  17
HETATM   17  C10 UNL     1      21.503   3.268  47.017  1.00  0.00     0.275 C 
HETATM   18  F1  UNL     1      22.433   2.868  46.093  1.00  0.00    -0.250 F 
ENDBRANCH  15  17
ENDBRANCH  12  14
ENDBRANCH   9  12
BRANCH  11  19
HETATM   19  O1  UNL     1      27.768  -0.588  53.817  1.00  0.00    -0.285 OA
BRANCH  19  20
HETATM   20  C13 UNL     1      28.716  -0.134  54.650  1.00  0.00     0.403 C 
HETATM   21  O2  UNL     1      28.701   1.045  55.009  1.00  0.00    -0.276 OA
ENDBRANCH  19  20
ENDBRANCH  11  19
TORSDOF 5
ENDMDL
MODEL 9
REMARK VINA RESULT:      -6.5      5.078      7.404
REMARK  5 active torsions:
REMARK  status: ('A' for Active; 'I' for Inactive)
REMARK    1  A    between atoms: C7_9  and  N3_10 
REMARK    2  A    between atoms: N3_10  and  C8_11 
REMARK    3  A    between atoms: C9_12  and  C10_14 
REMARK    4  A    between atoms: C12_17  and  O1_18 
REMARK    5  A    between atoms: O1_18  and  C13_19 
ROOT
HETATM    1  C1  UNL     1      24.319   1.783  51.513  1.00  0.00     0.052 C 
HETATM    2  C2  UNL     1      24.717   0.971  52.657  1.00  0.00    -0.013 A 
HETATM    3  C3  UNL     1      24.090   0.156  53.481  1.00  0.00     0.032 A 
HETATM    4  C4  UNL     1      24.975  -0.352  54.400  1.00  0.00     0.074 A 
HETATM    5  N1  UNL     1      24.462  -1.196  55.297  1.00  0.00    -0.241 NA
HETATM    6  C5  UNL     1      23.187  -1.560  55.346  1.00  0.00     0.234 A 
HETATM    7  N2  UNL     1      22.360  -1.044  54.435  1.00  0.00    -0.240 NA
HETATM    8  C6  UNL     1      22.765  -0.194  53.498  1.00  0.00     0.086 A 
HETATM    9  C7  UNL     1      21.903   0.274  52.623  1.00  0.00     0.120 C 
HETATM   10  C11 UNL     1      26.301   0.235  54.082  1.00  0.00     0.070 A 
HETATM   11  C12 UNL     1      26.127   1.043  53.011  1.00  0.00     0.087 A 
ENDROOT
BRANCH   9  12
HETATM   12  N3  UNL     1      20.540  -0.198  52.783  1.00  0.00    -0.372 N 
HETATM   13  H6  UNL     1      20.135  -0.978  53.390  1.00  0.00     0.164 HD
BRANCH  12  14
HETATM   14  C8  UNL     1      19.278   0.186  52.198  1.00  0.00     0.109 C 
HETATM   15  C9  UNL     1      18.238  -0.565  52.510  1.00  0.00     0.055 C 
HETATM   16 CL1  UNL     1      18.273  -1.964  53.563  1.00  0.00    -0.085 Cl
BRANCH  15  17
HETATM   17  C10 UNL     1      16.867  -0.351  52.026  1.00  0.00     0.275 C 
HETATM   18  F1  UNL     1      15.971  -0.279  53.062  1.00  0.00    -0.250 F 
ENDBRANCH  15  17
ENDBRANCH  12  14
ENDBRANCH   9  12
BRANCH  11  19
HETATM   19  O1  UNL     1      27.363   1.538  52.780  1.00  0.00    -0.285 OA
BRANCH  19  20
HETATM   20  C13 UNL     1      28.482   1.639  53.513  1.00  0.00     0.403 C 
HETATM   21  O2  UNL     1      28.754   2.703  54.071  1.00  0.00    -0.276 OA
ENDBRANCH  19  20
ENDBRANCH  11  19
TORSDOF 5
ENDMDL
