MODEL 1
REMARK VINA RESULT:      -7.8      0.000      0.000
REMARK  2 active torsions:
REMARK  status: ('A' for Active; 'I' for Inactive)
REMARK    1  A    between atoms: N2_7  and  S1_8 
REMARK    2  A    between atoms: S1_8  and  C5_9 
ROOT
HETATM    1  F1  UNL     1      26.757   5.243  49.155  1.00  0.00    -0.206 F 
HETATM    2  C1  UNL     1      25.611   5.498  49.833  1.00  0.00     0.112 C 
HETATM    3  C2  UNL     1      24.801   6.372  50.463  1.00  0.00     0.021 C 
HETATM    4  C3  UNL     1      23.513   6.342  51.174  1.00  0.00     0.087 C 
HETATM    5  C4  UNL     1      23.194   4.963  51.705  1.00  0.00     0.039 C 
HETATM    6  N1  UNL     1      23.923   4.203  52.415  1.00  0.00    -0.173 NA
HETATM    7  N2  UNL     1      23.793   2.869  52.047  1.00  0.00    -0.224 N 
HETATM    8  C7  UNL     1      22.415   2.741  51.614  1.00  0.00     0.095 A 
HETATM    9  C8  UNL     1      21.595   2.014  52.660  1.00  0.00     0.066 A 
HETATM   10  C9  UNL     1      20.893   0.873  52.096  1.00  0.00    -0.024 A 
HETATM   11  C10 UNL     1      20.755   0.269  50.934  1.00  0.00    -0.004 A 
HETATM   12  C11 UNL     1      21.574   1.006  49.946  1.00  0.00     0.005 A 
HETATM   13  C12 UNL     1      22.288   2.095  50.312  1.00  0.00    -0.045 A 
HETATM   14  C13 UNL     1      22.960   2.477  49.038  1.00  0.00     0.064 C 
HETATM   15  C14 UNL     1      24.066   3.480  49.250  1.00  0.00    -0.019 C 
HETATM   16  C15 UNL     1      25.195   4.165  49.320  1.00  0.00     0.038 C 
HETATM   17  C16 UNL     1      21.963   4.179  51.531  1.00  0.00     0.095 C 
ENDROOT
BRANCH   7  18
HETATM   18  S1  UNL     1      24.714   1.352  51.937  1.00  0.00    -0.000 SA
BRANCH  18  19
HETATM   19  C5  UNL     1      24.705   0.401  53.412  1.00  0.00     0.129 C 
HETATM   20  C6  UNL     1      25.722  -0.054  54.161  1.00  0.00     0.198 A 
HETATM   21  N3  UNL     1      25.613  -0.840  55.376  1.00  0.00    -0.235 N 
HETATM   22  O1  UNL     1      26.857  -0.464  54.849  1.00  0.00    -0.215 OA
HETATM   23  H5  UNL     1      25.262  -1.395  56.218  1.00  0.00     0.197 HD
ENDBRANCH  18  19
ENDBRANCH   7  18
TORSDOF 2
ENDMDL
MODEL 2
REMARK VINA RESULT:      -7.3      3.629      6.101
REMARK  2 active torsions:
REMARK  status: ('A' for Active; 'I' for Inactive)
REMARK    1  A    between atoms: N2_7  and  S1_8 
REMARK    2  A    between atoms: S1_8  and  C5_9 
ROOT
HETATM    1  F1  UNL     1      20.375  -0.854  54.544  1.00  0.00    -0.206 F 
HETATM    2  C1  UNL     1      21.651  -0.660  54.131  1.00  0.00     0.112 C 
HETATM    3  C2  UNL     1      22.971  -0.900  54.273  1.00  0.00     0.021 C 
HETATM    4  C3  UNL     1      24.225  -0.497  53.618  1.00  0.00     0.087 C 
HETATM    5  C4  UNL     1      24.079   0.811  52.876  1.00  0.00     0.039 C 
HETATM    6  N1  UNL     1      23.620   1.915  53.305  1.00  0.00    -0.173 NA
HETATM    7  N2  UNL     1      22.863   2.572  52.341  1.00  0.00    -0.224 N 
HETATM    8  C7  UNL     1      23.491   2.222  51.082  1.00  0.00     0.095 A 
HETATM    9  C8  UNL     1      24.283   3.393  50.540  1.00  0.00     0.066 A 
HETATM   10  C9  UNL     1      23.895   3.722  49.178  1.00  0.00    -0.024 A 
HETATM   11  C10 UNL     1      23.048   3.304  48.260  1.00  0.00    -0.004 A 
HETATM   12  C11 UNL     1      22.293   2.167  48.832  1.00  0.00     0.005 A 
HETATM   13  C12 UNL     1      22.537   1.736  50.090  1.00  0.00    -0.045 A 
HETATM   14  C13 UNL     1      21.550   0.629  50.243  1.00  0.00     0.064 C 
HETATM   15  C14 UNL     1      21.403   0.185  51.677  1.00  0.00    -0.019 C 
HETATM   16  C15 UNL     1      21.007  -0.134  52.897  1.00  0.00     0.038 C 
HETATM   17  C16 UNL     1      24.438   1.117  51.483  1.00  0.00     0.095 C 
ENDROOT
BRANCH   7  18
HETATM   18  S1  UNL     1      21.454   3.640  52.159  1.00  0.00    -0.000 SA
BRANCH  18  19
HETATM   19  C5  UNL     1      21.861   5.336  51.960  1.00  0.00     0.129 C 
HETATM   20  C6  UNL     1      21.700   6.153  50.908  1.00  0.00     0.198 A 
HETATM   21  N3  UNL     1      22.072   7.553  50.839  1.00  0.00    -0.235 N 
HETATM   22  O1  UNL     1      21.477   6.894  49.754  1.00  0.00    -0.215 OA
HETATM   23  H5  UNL     1      22.432   8.537  51.048  1.00  0.00     0.197 HD
ENDBRANCH  18  19
ENDBRANCH   7  18
TORSDOF 2
ENDMDL
MODEL 3
REMARK VINA RESULT:      -7.2      9.238     11.807
REMARK  2 active torsions:
REMARK  status: ('A' for Active; 'I' for Inactive)
REMARK    1  A    between atoms: N2_7  and  S1_8 
REMARK    2  A    between atoms: S1_8  and  C5_9 
ROOT
HETATM    1  F1  UNL     1      31.912   1.840  46.392  1.00  0.00    -0.206 F 
HETATM    2  C1  UNL     1      32.862   2.617  46.964  1.00  0.00     0.112 C 
HETATM    3  C2  UNL     1      33.941   2.739  47.764  1.00  0.00     0.021 C 
HETATM    4  C3  UNL     1      34.822   3.815  48.243  1.00  0.00     0.087 C 
HETATM    5  C4  UNL     1      34.148   5.166  48.182  1.00  0.00     0.039 C 
HETATM    6  N1  UNL     1      33.015   5.504  48.647  1.00  0.00    -0.173 NA
HETATM    7  N2  UNL     1      32.347   6.379  47.799  1.00  0.00    -0.224 N 
HETATM    8  C7  UNL     1      33.399   7.162  47.179  1.00  0.00     0.095 A 
HETATM    9  C8  UNL     1      33.441   8.556  47.768  1.00  0.00     0.066 A 
HETATM   10  C9  UNL     1      33.363   9.579  46.738  1.00  0.00    -0.024 A 
HETATM   11  C10 UNL     1      33.261   9.661  45.427  1.00  0.00    -0.004 A 
HETATM   12  C11 UNL     1      33.216   8.281  44.895  1.00  0.00     0.005 A 
HETATM   13  C12 UNL     1      33.281   7.215  45.724  1.00  0.00    -0.045 A 
HETATM   14  C13 UNL     1      33.172   6.069  44.778  1.00  0.00     0.064 C 
HETATM   15  C14 UNL     1      32.902   4.765  45.485  1.00  0.00    -0.019 C 
HETATM   16  C15 UNL     1      32.437   3.616  45.946  1.00  0.00     0.038 C 
HETATM   17  C16 UNL     1      34.645   6.410  47.576  1.00  0.00     0.095 C 
ENDROOT
BRANCH   7  18
HETATM   18  S1  UNL     1      30.715   6.827  47.255  1.00  0.00    -0.000 SA
BRANCH  18  19
HETATM   19  C5  UNL     1      29.781   7.715  48.446  1.00  0.00     0.129 C 
HETATM   20  C6  UNL     1      30.071   8.838  49.120  1.00  0.00     0.198 A 
HETATM   21  N3  UNL     1      29.227   9.502  50.094  1.00  0.00    -0.235 N 
HETATM   22  O1  UNL     1      30.490  10.004  49.751  1.00  0.00    -0.215 OA
HETATM   23  H5  UNL     1      28.433   9.781  50.754  1.00  0.00     0.197 HD
ENDBRANCH  18  19
ENDBRANCH   7  18
TORSDOF 2
ENDMDL
MODEL 4
REMARK VINA RESULT:      -7.2      3.356      4.976
REMARK  2 active torsions:
REMARK  status: ('A' for Active; 'I' for Inactive)
REMARK    1  A    between atoms: N2_7  and  S1_8 
REMARK    2  A    between atoms: S1_8  and  C5_9 
ROOT
HETATM    1  F1  UNL     1      19.769   2.843  46.907  1.00  0.00    -0.206 F 
HETATM    2  C1  UNL     1      19.688   3.341  48.165  1.00  0.00     0.112 C 
HETATM    3  C2  UNL     1      19.030   4.072  49.089  1.00  0.00     0.021 C 
HETATM    4  C3  UNL     1      19.219   4.475  50.491  1.00  0.00     0.087 C 
HETATM    5  C4  UNL     1      20.673   4.427  50.901  1.00  0.00     0.039 C 
HETATM    6  N1  UNL     1      21.674   4.952  50.322  1.00  0.00    -0.173 NA
HETATM    7  N2  UNL     1      22.792   4.128  50.370  1.00  0.00    -0.224 N 
HETATM    8  C7  UNL     1      22.677   3.429  51.636  1.00  0.00     0.095 A 
HETATM    9  C8  UNL     1      23.663   3.986  52.641  1.00  0.00     0.066 A 
HETATM   10  C9  UNL     1      24.497   2.942  53.213  1.00  0.00    -0.024 A 
HETATM   11  C10 UNL     1      24.660   1.638  53.116  1.00  0.00    -0.004 A 
HETATM   12  C11 UNL     1      23.684   1.138  52.122  1.00  0.00     0.005 A 
HETATM   13  C12 UNL     1      22.832   1.984  51.500  1.00  0.00    -0.045 A 
HETATM   14  C13 UNL     1      22.083   1.070  50.592  1.00  0.00     0.064 C 
HETATM   15  C14 UNL     1      21.284   1.818  49.555  1.00  0.00    -0.019 C 
HETATM   16  C15 UNL     1      20.737   2.331  48.466  1.00  0.00     0.038 C 
HETATM   17  C16 UNL     1      21.271   3.766  52.070  1.00  0.00     0.095 C 
ENDROOT
BRANCH   7  18
HETATM   18  S1  UNL     1      24.236   3.674  49.438  1.00  0.00    -0.000 SA
BRANCH  18  19
HETATM   19  C5  UNL     1      25.487   4.905  49.409  1.00  0.00     0.129 C 
HETATM   20  C6  UNL     1      26.773   4.831  49.035  1.00  0.00     0.198 A 
HETATM   21  N3  UNL     1      27.738   5.914  49.048  1.00  0.00    -0.235 N 
HETATM   22  O1  UNL     1      28.083   4.625  48.619  1.00  0.00    -0.215 OA
HETATM   23  H5  UNL     1      28.232   6.856  49.155  1.00  0.00     0.197 HD
ENDBRANCH  18  19
ENDBRANCH   7  18
TORSDOF 2
ENDMDL
MODEL 5
REMARK VINA RESULT:      -7.1      4.416      6.726
REMARK  2 active torsions:
REMARK  status: ('A' for Active; 'I' for Inactive)
REMARK    1  A    between atoms: N2_7  and  S1_8 
REMARK    2  A    between atoms: S1_8  and  C5_9 
ROOT
HETATM    1  F1  UNL     1      17.451  -0.059  50.596  1.00  0.00    -0.206 F 
HETATM    2  C1  UNL     1      18.470   0.032  51.484  1.00  0.00     0.112 C 
HETATM    3  C2  UNL     1      19.023  -0.319  52.663  1.00  0.00     0.021 C 
HETATM    4  C3  UNL     1      20.245  -0.014  53.423  1.00  0.00     0.087 C 
HETATM    5  C4  UNL     1      20.846   1.311  53.017  1.00  0.00     0.039 C 
HETATM    6  N1  UNL     1      20.277   2.444  52.937  1.00  0.00    -0.173 NA
HETATM    7  N2  UNL     1      20.731   3.175  51.845  1.00  0.00    -0.224 N 
HETATM    8  C7  UNL     1      22.122   2.791  51.699  1.00  0.00     0.095 A 
HETATM    9  C8  UNL     1      23.032   3.898  52.186  1.00  0.00     0.066 A 
HETATM   10  C9  UNL     1      24.007   4.277  51.176  1.00  0.00    -0.024 A 
HETATM   11  C10 UNL     1      24.341   3.945  49.946  1.00  0.00    -0.004 A 
HETATM   12  C11 UNL     1      23.424   2.867  49.509  1.00  0.00     0.005 A 
HETATM   13  C12 UNL     1      22.461   2.400  50.334  1.00  0.00    -0.045 A 
HETATM   14  C13 UNL     1      21.785   1.378  49.486  1.00  0.00     0.064 C 
HETATM   15  C14 UNL     1      20.468   0.929  50.068  1.00  0.00    -0.019 C 
HETATM   16  C15 UNL     1      19.209   0.627  50.338  1.00  0.00     0.038 C 
HETATM   17  C16 UNL     1      22.233   1.604  52.626  1.00  0.00     0.095 C 
ENDROOT
BRANCH   7  18
HETATM   18  S1  UNL     1      20.193   4.360  50.634  1.00  0.00    -0.000 SA
BRANCH  18  19
HETATM   19  C5  UNL     1      18.452   4.417  50.412  1.00  0.00     0.129 C 
HETATM   20  C6  UNL     1      17.458   4.387  51.312  1.00  0.00     0.198 A 
HETATM   21  N3  UNL     1      16.036   4.440  51.029  1.00  0.00    -0.235 N 
HETATM   22  O1  UNL     1      16.524   4.348  52.340  1.00  0.00    -0.215 OA
HETATM   23  H5  UNL     1      15.079   4.491  50.558  1.00  0.00     0.197 HD
ENDBRANCH  18  19
ENDBRANCH   7  18
TORSDOF 2
ENDMDL
MODEL 6
REMARK VINA RESULT:      -6.8      7.803     10.760
REMARK  2 active torsions:
REMARK  status: ('A' for Active; 'I' for Inactive)
REMARK    1  A    between atoms: N2_7  and  S1_8 
REMARK    2  A    between atoms: S1_8  and  C5_9 
ROOT
HETATM    1  F1  UNL     1      33.402   4.062  44.687  1.00  0.00    -0.206 F 
HETATM    2  C1  UNL     1      33.768   4.608  45.873  1.00  0.00     0.112 C 
HETATM    3  C2  UNL     1      34.533   4.576  46.984  1.00  0.00     0.021 C 
HETATM    4  C3  UNL     1      34.706   5.375  48.207  1.00  0.00     0.087 C 
HETATM    5  C4  UNL     1      33.475   6.191  48.526  1.00  0.00     0.039 C 
HETATM    6  N1  UNL     1      32.270   5.799  48.616  1.00  0.00    -0.173 NA
HETATM    7  N2  UNL     1      31.382   6.731  48.090  1.00  0.00    -0.224 N 
HETATM    8  C7  UNL     1      31.993   8.016  48.367  1.00  0.00     0.095 A 
HETATM    9  C8  UNL     1      31.273   8.713  49.502  1.00  0.00     0.066 A 
HETATM   10  C9  UNL     1      30.847  10.052  49.128  1.00  0.00    -0.024 A 
HETATM   11  C10 UNL     1      30.896  10.853  48.084  1.00  0.00    -0.004 A 
HETATM   12  C11 UNL     1      31.600  10.132  47.000  1.00  0.00     0.005 A 
HETATM   13  C12 UNL     1      32.062   8.875  47.189  1.00  0.00    -0.045 A 
HETATM   14  C13 UNL     1      32.653   8.551  45.860  1.00  0.00     0.064 C 
HETATM   15  C14 UNL     1      32.958   7.082  45.710  1.00  0.00    -0.019 C 
HETATM   16  C15 UNL     1      33.053   5.809  45.364  1.00  0.00     0.038 C 
HETATM   17  C16 UNL     1      33.382   7.629  48.815  1.00  0.00     0.095 C 
ENDROOT
BRANCH   7  18
HETATM   18  S1  UNL     1      29.829   6.854  47.234  1.00  0.00    -0.000 SA
BRANCH  18  19
HETATM   19  C5  UNL     1      28.431   6.480  48.229  1.00  0.00     0.129 C 
HETATM   20  C6  UNL     1      27.908   5.297  48.585  1.00  0.00     0.198 A 
HETATM   21  N3  UNL     1      26.739   5.087  49.418  1.00  0.00    -0.235 N 
HETATM   22  O1  UNL     1      27.465   4.014  48.884  1.00  0.00    -0.215 OA
HETATM   23  H5  UNL     1      25.875   5.211  50.036  1.00  0.00     0.197 HD
ENDBRANCH  18  19
ENDBRANCH   7  18
TORSDOF 2
ENDMDL
MODEL 7
REMARK VINA RESULT:      -6.8      9.108     12.074
REMARK  2 active torsions:
REMARK  status: ('A' for Active; 'I' for Inactive)
REMARK    1  A    between atoms: N2_7  and  S1_8 
REMARK    2  A    between atoms: S1_8  and  C5_9 
ROOT
HETATM    1  F1  UNL     1      31.999   3.986  47.727  1.00  0.00    -0.206 F 
HETATM    2  C1  UNL     1      32.967   4.924  47.874  1.00  0.00     0.112 C 
HETATM    3  C2  UNL     1      34.174   5.287  48.354  1.00  0.00     0.021 C 
HETATM    4  C3  UNL     1      35.024   6.488  48.361  1.00  0.00     0.087 C 
HETATM    5  C4  UNL     1      34.218   7.750  48.156  1.00  0.00     0.039 C 
HETATM    6  N1  UNL     1      33.183   8.136  48.782  1.00  0.00    -0.173 NA
HETATM    7  N2  UNL     1      32.264   8.747  47.937  1.00  0.00    -0.224 N 
HETATM    8  C7  UNL     1      33.074   9.406  46.930  1.00  0.00     0.095 A 
HETATM    9  C8  UNL     1      33.100  10.901  47.165  1.00  0.00     0.066 A 
HETATM   10  C9  UNL     1      32.701  11.640  45.978  1.00  0.00    -0.024 A 
HETATM   11  C10 UNL     1      32.313  11.397  44.743  1.00  0.00    -0.004 A 
HETATM   12  C11 UNL     1      32.296   9.928  44.559  1.00  0.00     0.005 A 
HETATM   13  C12 UNL     1      32.644   9.100  45.569  1.00  0.00    -0.045 A 
HETATM   14  C13 UNL     1      32.452   7.755  44.957  1.00  0.00     0.064 C 
HETATM   15  C14 UNL     1      32.472   6.649  45.981  1.00  0.00    -0.019 C 
HETATM   16  C15 UNL     1      32.236   5.625  46.784  1.00  0.00     0.038 C 
HETATM   17  C16 UNL     1      34.447   8.832  47.187  1.00  0.00     0.095 C 
ENDROOT
BRANCH   7  18
HETATM   18  S1  UNL     1      30.517   8.971  47.699  1.00  0.00    -0.000 SA
BRANCH  18  19
HETATM   19  C5  UNL     1      29.571   8.848  49.173  1.00  0.00     0.129 C 
HETATM   20  C6  UNL     1      28.462   9.499  49.553  1.00  0.00     0.198 A 
HETATM   21  N3  UNL     1      27.746   9.327  50.803  1.00  0.00    -0.235 N 
HETATM   22  O1  UNL     1      27.317  10.238  49.828  1.00  0.00    -0.215 OA
HETATM   23  H5  UNL     1      27.420   9.015  51.772  1.00  0.00     0.197 HD
ENDBRANCH  18  19
ENDBRANCH   7  18
TORSDOF 2
ENDMDL
MODEL 8
REMARK VINA RESULT:      -6.7      3.247      5.180
REMARK  2 active torsions:
REMARK  status: ('A' for Active; 'I' for Inactive)
REMARK    1  A    between atoms: N2_7  and  S1_8 
REMARK    2  A    between atoms: S1_8  and  C5_9 
ROOT
HETATM    1  F1  UNL     1      24.116   4.734  53.863  1.00  0.00    -0.206 F 
HETATM    2  C1  UNL     1      23.817   3.652  53.103  1.00  0.00     0.112 C 
HETATM    3  C2  UNL     1      23.841   2.317  52.917  1.00  0.00     0.021 C 
HETATM    4  C3  UNL     1      23.408   1.355  51.891  1.00  0.00     0.087 C 
HETATM    5  C4  UNL     1      23.280   2.001  50.531  1.00  0.00     0.039 C 
HETATM    6  N1  UNL     1      24.133   2.708  49.909  1.00  0.00    -0.173 NA
HETATM    7  N2  UNL     1      23.534   3.761  49.227  1.00  0.00    -0.224 N 
HETATM    8  C7  UNL     1      22.241   3.245  48.820  1.00  0.00     0.095 A 
HETATM    9  C8  UNL     1      22.234   2.937  47.338  1.00  0.00     0.066 A 
HETATM   10  C9  UNL     1      21.135   3.600  46.655  1.00  0.00    -0.024 A 
HETATM   11  C10 UNL     1      20.130   4.402  46.940  1.00  0.00    -0.004 A 
HETATM   12  C11 UNL     1      20.178   4.681  48.393  1.00  0.00     0.005 A 
HETATM   13  C12 UNL     1      21.141   4.138  49.172  1.00  0.00    -0.045 A 
HETATM   14  C13 UNL     1      20.822   4.704  50.513  1.00  0.00     0.064 C 
HETATM   15  C14 UNL     1      21.940   4.500  51.503  1.00  0.00    -0.019 C 
HETATM   16  C15 UNL     1      22.918   4.598  52.388  1.00  0.00     0.038 C 
HETATM   17  C16 UNL     1      22.141   1.958  49.602  1.00  0.00     0.095 C 
ENDROOT
BRANCH   7  18
HETATM   18  S1  UNL     1      23.819   5.440  48.719  1.00  0.00    -0.000 SA
BRANCH  18  19
HETATM   19  C5  UNL     1      25.483   5.971  48.899  1.00  0.00     0.129 C 
HETATM   20  C6  UNL     1      26.628   5.273  48.863  1.00  0.00     0.198 A 
HETATM   21  N3  UNL     1      27.968   5.805  49.024  1.00  0.00    -0.235 N 
HETATM   22  O1  UNL     1      27.739   4.440  48.803  1.00  0.00    -0.215 OA
HETATM   23  H5  UNL     1      28.817   6.437  49.172  1.00  0.00     0.197 HD
ENDBRANCH  18  19
ENDBRANCH   7  18
TORSDOF 2
ENDMDL
MODEL 9
REMARK VINA RESULT:      -6.7      3.547      5.075
REMARK  2 active torsions:
REMARK  status: ('A' for Active; 'I' for Inactive)
REMARK    1  A    between atoms: N2_7  and  S1_8 
REMARK    2  A    between atoms: S1_8  and  C5_9 
ROOT
HETATM    1  F1  UNL     1      19.851   5.653  49.864  1.00  0.00    -0.206 F 
HETATM    2  C1  UNL     1      21.020   5.459  50.522  1.00  0.00     0.112 C 
HETATM    3  C2  UNL     1      22.214   5.927  50.939  1.00  0.00     0.021 C 
HETATM    4  C3  UNL     1      23.374   5.427  51.693  1.00  0.00     0.087 C 
HETATM    5  C4  UNL     1      23.467   3.919  51.651  1.00  0.00     0.039 C 
HETATM    6  N1  UNL     1      23.443   3.155  50.636  1.00  0.00    -0.173 NA
HETATM    7  N2  UNL     1      22.732   1.987  50.885  1.00  0.00    -0.224 N 
HETATM    8  C7  UNL     1      22.967   1.706  52.288  1.00  0.00     0.095 A 
HETATM    9  C8  UNL     1      23.939   0.556  52.444  1.00  0.00     0.066 A 
HETATM   10  C9  UNL     1      23.399  -0.495  53.291  1.00  0.00    -0.024 A 
HETATM   11  C10 UNL     1      22.302  -0.754  53.972  1.00  0.00    -0.004 A 
HETATM   12  C11 UNL     1      21.380   0.390  53.788  1.00  0.00     0.005 A 
HETATM   13  C12 UNL     1      21.735   1.450  53.027  1.00  0.00    -0.045 A 
HETATM   14  C13 UNL     1      20.522   2.313  53.101  1.00  0.00     0.064 C 
HETATM   15  C14 UNL     1      20.541   3.419  52.076  1.00  0.00    -0.019 C 
HETATM   16  C15 UNL     1      20.323   4.273  51.091  1.00  0.00     0.038 C 
HETATM   17  C16 UNL     1      23.614   2.981  52.773  1.00  0.00     0.095 C 
ENDROOT
BRANCH   7  18
HETATM   18  S1  UNL     1      21.685   0.791  50.088  1.00  0.00    -0.000 SA
BRANCH  18  19
HETATM   19  C5  UNL     1      20.519   1.487  48.976  1.00  0.00     0.129 C 
HETATM   20  C6  UNL     1      20.685   2.372  47.981  1.00  0.00     0.198 A 
HETATM   21  N3  UNL     1      19.650   2.893  47.109  1.00  0.00    -0.235 N 
HETATM   22  O1  UNL     1      20.989   3.288  46.981  1.00  0.00    -0.215 OA
HETATM   23  H5  UNL     1      18.725   3.112  46.620  1.00  0.00     0.197 HD
ENDBRANCH  18  19
ENDBRANCH   7  18
TORSDOF 2
ENDMDL
