MODEL 1
REMARK VINA RESULT:      -9.4      0.000      0.000
REMARK  4 active torsions:
REMARK  status: ('A' for Active; 'I' for Inactive)
REMARK    1  A    between atoms: C5_5  and  C6_6 
REMARK    2  A    between atoms: N2_8  and  C7_9 
REMARK    3  A    between atoms: C8_11  and  O1_12 
REMARK    4  A    between atoms: C10_15  and  C11_16 
ROOT
HETATM    1  C6  UNL     1      26.310   3.785  50.078  1.00  0.00     0.067 C 
HETATM    2  N1  UNL     1      27.153   3.177  50.838  1.00  0.00    -0.173 NA
HETATM    3  N2  UNL     1      26.582   2.064  51.477  1.00  0.00    -0.236 N 
HETATM    4  C10 UNL     1      25.338   1.796  50.853  1.00  0.00     0.151 C 
HETATM    5  C17 UNL     1      24.997   3.097  50.161  1.00  0.00     0.094 C 
ENDROOT
BRANCH   1   6
HETATM    6  C5  UNL     1      26.467   4.972  49.236  1.00  0.00    -0.010 A 
HETATM    7  C4  UNL     1      25.407   5.796  48.973  1.00  0.00     0.014 A 
HETATM    8  C3  UNL     1      25.537   6.935  48.198  1.00  0.00     0.007 A 
HETATM    9  C2  UNL     1      26.762   7.275  47.661  1.00  0.00    -0.062 A 
HETATM   10  C1  UNL     1      27.027   8.472  46.820  1.00  0.00     0.048 C 
HETATM   11  C19 UNL     1      27.840   6.455  47.917  1.00  0.00     0.007 A 
HETATM   12  C18 UNL     1      27.688   5.328  48.690  1.00  0.00     0.014 A 
ENDBRANCH   1   6
BRANCH   3  13
HETATM   13  C7  UNL     1      27.491   1.608  52.523  1.00  0.00     0.192 A 
HETATM   14  N3  UNL     1      28.293   2.281  53.203  1.00  0.00    -0.198 NA
HETATM   15  C8  UNL     1      29.043   1.709  54.124  1.00  0.00     0.171 A 
HETATM   16  C9  UNL     1      28.954   0.338  54.357  1.00  0.00     0.111 A 
HETATM   17  S1  UNL     1      27.715  -0.156  53.178  1.00  0.00    -0.058 SA
BRANCH  15  18
HETATM   18  O1  UNL     1      29.930   2.475  54.867  1.00  0.00    -0.344 OA
HETATM   19  H6  UNL     1      29.724   3.288  55.399  1.00  0.00     0.219 HD
ENDBRANCH  15  18
ENDBRANCH   3  13
BRANCH   4  20
HETATM   20  C11 UNL     1      24.206   1.478  51.729  1.00  0.00    -0.033 A 
HETATM   21  C12 UNL     1      23.056   2.213  51.793  1.00  0.00     0.011 A 
HETATM   22  C13 UNL     1      22.037   1.788  52.653  1.00  0.00     0.019 A 
HETATM   23  C14 UNL     1      22.162   0.658  53.430  1.00  0.00     0.011 A 
HETATM   24 BR1  UNL     1      20.749   0.121  54.579  1.00  0.00    -0.051 Br
HETATM   25  C15 UNL     1      23.299  -0.105  53.395  1.00  0.00     0.019 A 
HETATM   26  C16 UNL     1      24.281   0.343  52.537  1.00  0.00     0.011 A 
ENDBRANCH   4  20
TORSDOF 4
ENDMDL
MODEL 2
REMARK VINA RESULT:      -9.2      4.053      5.435
REMARK  4 active torsions:
REMARK  status: ('A' for Active; 'I' for Inactive)
REMARK    1  A    between atoms: C5_5  and  C6_6 
REMARK    2  A    between atoms: N2_8  and  C7_9 
REMARK    3  A    between atoms: C8_11  and  O1_12 
REMARK    4  A    between atoms: C10_15  and  C11_16 
ROOT
HETATM    1  C6  UNL     1      23.351   2.451  50.597  1.00  0.00     0.067 C 
HETATM    2  N1  UNL     1      22.694   1.736  51.441  1.00  0.00    -0.173 NA
HETATM    3  N2  UNL     1      23.473   1.385  52.556  1.00  0.00    -0.236 N 
HETATM    4  C10 UNL     1      24.648   2.178  52.532  1.00  0.00     0.151 C 
HETATM    5  C17 UNL     1      24.737   2.641  51.095  1.00  0.00     0.094 C 
ENDROOT
BRANCH   1   6
HETATM    6  C5  UNL     1      22.945   3.029  49.314  1.00  0.00    -0.010 A 
HETATM    7  C4  UNL     1      23.125   4.360  49.051  1.00  0.00     0.014 A 
HETATM    8  C3  UNL     1      22.768   4.922  47.838  1.00  0.00     0.007 A 
HETATM    9  C2  UNL     1      22.213   4.142  46.845  1.00  0.00    -0.062 A 
HETATM   10  C1  UNL     1      21.796   4.630  45.504  1.00  0.00     0.048 C 
HETATM   11  C19 UNL     1      22.025   2.800  47.095  1.00  0.00     0.007 A 
HETATM   12  C18 UNL     1      22.387   2.261  48.308  1.00  0.00     0.014 A 
ENDBRANCH   1   6
BRANCH   3  13
HETATM   13  C7  UNL     1      22.769   0.355  53.313  1.00  0.00     0.192 A 
HETATM   14  N3  UNL     1      23.199  -0.353  54.247  1.00  0.00    -0.198 NA
HETATM   15  C8  UNL     1      22.421  -1.241  54.835  1.00  0.00     0.171 A 
HETATM   16  C9  UNL     1      21.100  -1.406  54.422  1.00  0.00     0.111 A 
HETATM   17  S1  UNL     1      20.972  -0.210  53.109  1.00  0.00    -0.058 SA
BRANCH  15  18
HETATM   18  O1  UNL     1      22.919  -2.019  55.870  1.00  0.00    -0.344 OA
HETATM   19  H6  UNL     1      23.558  -2.775  55.800  1.00  0.00     0.219 HD
ENDBRANCH  15  18
ENDBRANCH   3  13
BRANCH   4  20
HETATM   20  C11 UNL     1      25.914   1.503  52.835  1.00  0.00    -0.033 A 
HETATM   21  C12 UNL     1      26.879   2.019  53.654  1.00  0.00     0.011 A 
HETATM   22  C13 UNL     1      28.035   1.263  53.885  1.00  0.00     0.019 A 
HETATM   23  C14 UNL     1      28.221   0.024  53.313  1.00  0.00     0.011 A 
HETATM   24 BR1  UNL     1      29.805  -0.965  53.660  1.00  0.00    -0.051 Br
HETATM   25  C15 UNL     1      27.278  -0.527  52.487  1.00  0.00     0.019 A 
HETATM   26  C16 UNL     1      26.153   0.245  52.282  1.00  0.00     0.011 A 
ENDBRANCH   4  20
TORSDOF 4
ENDMDL
MODEL 3
REMARK VINA RESULT:      -8.8      3.432      7.284
REMARK  4 active torsions:
REMARK  status: ('A' for Active; 'I' for Inactive)
REMARK    1  A    between atoms: C5_5  and  C6_6 
REMARK    2  A    between atoms: N2_8  and  C7_9 
REMARK    3  A    between atoms: C8_11  and  O1_12 
REMARK    4  A    between atoms: C10_15  and  C11_16 
ROOT
HETATM    1  C6  UNL     1      22.454   0.555  52.838  1.00  0.00     0.067 C 
HETATM    2  N1  UNL     1      23.575   0.006  53.153  1.00  0.00    -0.173 NA
HETATM    3  N2  UNL     1      24.655   0.893  53.020  1.00  0.00    -0.236 N 
HETATM    4  C10 UNL     1      24.127   2.199  52.859  1.00  0.00     0.151 C 
HETATM    5  C17 UNL     1      22.702   1.956  52.414  1.00  0.00     0.094 C 
ENDROOT
BRANCH   1   6
HETATM    6  C5  UNL     1      21.094   0.013  52.827  1.00  0.00    -0.010 A 
HETATM    7  C4  UNL     1      20.686  -0.888  53.772  1.00  0.00     0.014 A 
HETATM    8  C3  UNL     1      19.399  -1.396  53.793  1.00  0.00     0.007 A 
HETATM    9  C2  UNL     1      18.478  -1.000  52.845  1.00  0.00    -0.062 A 
HETATM   10  C1  UNL     1      17.069  -1.470  52.768  1.00  0.00     0.048 C 
HETATM   11  C19 UNL     1      18.875  -0.093  51.886  1.00  0.00     0.007 A 
HETATM   12  C18 UNL     1      20.158   0.400  51.884  1.00  0.00     0.014 A 
ENDBRANCH   1   6
BRANCH   3  13
HETATM   13  C7  UNL     1      25.898   0.134  53.111  1.00  0.00     0.192 A 
HETATM   14  N3  UNL     1      26.101  -1.062  52.815  1.00  0.00    -0.198 NA
HETATM   15  C8  UNL     1      27.299  -1.596  52.949  1.00  0.00     0.171 A 
HETATM   16  C9  UNL     1      28.364  -0.834  53.426  1.00  0.00     0.111 A 
HETATM   17  S1  UNL     1      27.592   0.748  53.697  1.00  0.00    -0.058 SA
BRANCH  15  18
HETATM   18  O1  UNL     1      27.503  -2.928  52.617  1.00  0.00    -0.344 OA
HETATM   19  H6  UNL     1      28.165  -3.293  51.973  1.00  0.00     0.219 HD
ENDBRANCH  15  18
ENDBRANCH   3  13
BRANCH   4  20
HETATM   20  C11 UNL     1      24.747   3.048  51.838  1.00  0.00    -0.033 A 
HETATM   21  C12 UNL     1      25.815   2.670  51.072  1.00  0.00     0.011 A 
HETATM   22  C13 UNL     1      26.299   3.565  50.111  1.00  0.00     0.019 A 
HETATM   23  C14 UNL     1      25.732   4.806  49.919  1.00  0.00     0.011 A 
HETATM   24 BR1  UNL     1      26.424   5.983  48.599  1.00  0.00    -0.051 Br
HETATM   25  C15 UNL     1      24.662   5.221  50.665  1.00  0.00     0.019 A 
HETATM   26  C16 UNL     1      24.212   4.314  51.602  1.00  0.00     0.011 A 
ENDBRANCH   4  20
TORSDOF 4
ENDMDL
MODEL 4
REMARK VINA RESULT:      -8.8      4.247      6.629
REMARK  4 active torsions:
REMARK  status: ('A' for Active; 'I' for Inactive)
REMARK    1  A    between atoms: C5_5  and  C6_6 
REMARK    2  A    between atoms: N2_8  and  C7_9 
REMARK    3  A    between atoms: C8_11  and  O1_12 
REMARK    4  A    between atoms: C10_15  and  C11_16 
ROOT
HETATM    1  C6  UNL     1      24.933   0.906  52.315  1.00  0.00     0.067 C 
HETATM    2  N1  UNL     1      24.513   1.546  51.280  1.00  0.00    -0.173 NA
HETATM    3  N2  UNL     1      23.130   1.786  51.333  1.00  0.00    -0.236 N 
HETATM    4  C10 UNL     1      22.690   1.502  52.650  1.00  0.00     0.151 C 
HETATM    5  C17 UNL     1      23.784   0.621  53.210  1.00  0.00     0.094 C 
ENDROOT
BRANCH   1   6
HETATM    6  C5  UNL     1      26.277   0.450  52.676  1.00  0.00    -0.010 A 
HETATM    7  C4  UNL     1      27.244   1.337  53.062  1.00  0.00     0.014 A 
HETATM    8  C3  UNL     1      28.514   0.925  53.427  1.00  0.00     0.007 A 
HETATM    9  C2  UNL     1      28.842  -0.415  53.411  1.00  0.00    -0.062 A 
HETATM   10  C1  UNL     1      30.167  -0.978  53.786  1.00  0.00     0.048 C 
HETATM   11  C19 UNL     1      27.879  -1.321  53.024  1.00  0.00     0.007 A 
HETATM   12  C18 UNL     1      26.624  -0.890  52.665  1.00  0.00     0.014 A 
ENDBRANCH   1   6
BRANCH   3  13
HETATM   13  C7  UNL     1      22.686   2.246  50.021  1.00  0.00     0.192 A 
HETATM   14  N3  UNL     1      22.926   3.333  49.456  1.00  0.00    -0.198 NA
HETATM   15  C8  UNL     1      22.450   3.589  48.254  1.00  0.00     0.171 A 
HETATM   16  C9  UNL     1      21.665   2.648  47.590  1.00  0.00     0.111 A 
HETATM   17  S1  UNL     1      21.612   1.314  48.768  1.00  0.00    -0.058 SA
BRANCH  15  18
HETATM   18  O1  UNL     1      22.727   4.804  47.645  1.00  0.00    -0.344 OA
HETATM   19  H6  UNL     1      22.370   5.140  46.781  1.00  0.00     0.219 HD
ENDBRANCH  15  18
ENDBRANCH   3  13
BRANCH   4  20
HETATM   20  C11 UNL     1      21.437   0.754  52.787  1.00  0.00    -0.033 A 
HETATM   21  C12 UNL     1      20.268   1.096  52.165  1.00  0.00     0.011 A 
HETATM   22  C13 UNL     1      19.145   0.283  52.357  1.00  0.00     0.019 A 
HETATM   23  C14 UNL     1      19.187  -0.843  53.150  1.00  0.00     0.011 A 
HETATM   24 BR1  UNL     1      17.637  -1.916  53.376  1.00  0.00    -0.051 Br
HETATM   25  C15 UNL     1      20.338  -1.219  53.790  1.00  0.00     0.019 A 
HETATM   26  C16 UNL     1      21.424  -0.395  53.578  1.00  0.00     0.011 A 
ENDBRANCH   4  20
TORSDOF 4
ENDMDL
MODEL 5
REMARK VINA RESULT:      -8.7      3.753      6.448
REMARK  4 active torsions:
REMARK  status: ('A' for Active; 'I' for Inactive)
REMARK    1  A    between atoms: C5_5  and  C6_6 
REMARK    2  A    between atoms: N2_8  and  C7_9 
REMARK    3  A    between atoms: C8_11  and  O1_12 
REMARK    4  A    between atoms: C10_15  and  C11_16 
ROOT
HETATM    1  C6  UNL     1      25.069   1.685  52.661  1.00  0.00     0.067 C 
HETATM    2  N1  UNL     1      24.898   2.899  52.270  1.00  0.00    -0.173 NA
HETATM    3  N2  UNL     1      23.538   3.230  52.152  1.00  0.00    -0.236 N 
HETATM    4  C10 UNL     1      22.786   2.207  52.782  1.00  0.00     0.151 C 
HETATM    5  C17 UNL     1      23.744   1.038  52.832  1.00  0.00     0.094 C 
ENDROOT
BRANCH   1   6
HETATM    6  C5  UNL     1      26.296   0.927  52.914  1.00  0.00    -0.010 A 
HETATM    7  C4  UNL     1      26.344  -0.426  52.715  1.00  0.00     0.014 A 
HETATM    8  C3  UNL     1      27.499  -1.158  52.927  1.00  0.00     0.007 A 
HETATM    9  C2  UNL     1      28.652  -0.532  53.352  1.00  0.00    -0.062 A 
HETATM   10  C1  UNL     1      29.951  -1.208  53.609  1.00  0.00     0.048 C 
HETATM   11  C19 UNL     1      28.620   0.831  53.558  1.00  0.00     0.007 A 
HETATM   12  C18 UNL     1      27.461   1.539  53.341  1.00  0.00     0.014 A 
ENDBRANCH   1   6
BRANCH   3  13
HETATM   13  C7  UNL     1      23.425   4.498  51.440  1.00  0.00     0.192 A 
HETATM   14  N3  UNL     1      23.812   5.629  51.801  1.00  0.00    -0.198 NA
HETATM   15  C8  UNL     1      23.640   6.682  51.026  1.00  0.00     0.171 A 
HETATM   16  C9  UNL     1      23.018   6.551  49.785  1.00  0.00     0.111 A 
HETATM   17  S1  UNL     1      22.663   4.807  49.733  1.00  0.00    -0.058 SA
BRANCH  15  18
HETATM   18  O1  UNL     1      24.076   7.929  51.448  1.00  0.00    -0.344 OA
HETATM   19  H6  UNL     1      24.989   8.178  51.747  1.00  0.00     0.219 HD
ENDBRANCH  15  18
ENDBRANCH   3  13
BRANCH   4  20
HETATM   20  C11 UNL     1      21.585   1.736  52.086  1.00  0.00    -0.033 A 
HETATM   21  C12 UNL     1      21.589   0.769  51.120  1.00  0.00     0.011 A 
HETATM   22  C13 UNL     1      20.368   0.389  50.549  1.00  0.00     0.019 A 
HETATM   23  C14 UNL     1      19.175   0.959  50.932  1.00  0.00     0.011 A 
HETATM   24 BR1  UNL     1      17.545   0.406  50.130  1.00  0.00    -0.051 Br
HETATM   25  C15 UNL     1      19.129   1.931  51.896  1.00  0.00     0.019 A 
HETATM   26  C16 UNL     1      20.349   2.281  52.437  1.00  0.00     0.011 A 
ENDBRANCH   4  20
TORSDOF 4
ENDMDL
MODEL 6
REMARK VINA RESULT:      -8.5      3.438      6.451
REMARK  4 active torsions:
REMARK  status: ('A' for Active; 'I' for Inactive)
REMARK    1  A    between atoms: C5_5  and  C6_6 
REMARK    2  A    between atoms: N2_8  and  C7_9 
REMARK    3  A    between atoms: C8_11  and  O1_12 
REMARK    4  A    between atoms: C10_15  and  C11_16 
ROOT
HETATM    1  C6  UNL     1      25.588   1.845  52.338  1.00  0.00     0.067 C 
HETATM    2  N1  UNL     1      25.470   2.849  51.541  1.00  0.00    -0.173 NA
HETATM    3  N2  UNL     1      24.146   3.312  51.466  1.00  0.00    -0.236 N 
HETATM    4  C10 UNL     1      23.414   2.707  52.518  1.00  0.00     0.151 C 
HETATM    5  C17 UNL     1      24.253   1.506  52.894  1.00  0.00     0.094 C 
ENDROOT
BRANCH   1   6
HETATM    6  C5  UNL     1      26.762   1.056  52.714  1.00  0.00    -0.010 A 
HETATM    7  C4  UNL     1      27.912   1.661  53.141  1.00  0.00     0.014 A 
HETATM    8  C3  UNL     1      29.026   0.934  53.521  1.00  0.00     0.007 A 
HETATM    9  C2  UNL     1      29.006  -0.444  53.478  1.00  0.00    -0.062 A 
HETATM   10  C1  UNL     1      30.135  -1.332  53.865  1.00  0.00     0.048 C 
HETATM   11  C19 UNL     1      27.855  -1.069  53.049  1.00  0.00     0.007 A 
HETATM   12  C18 UNL     1      26.759  -0.327  52.676  1.00  0.00     0.014 A 
ENDBRANCH   1   6
BRANCH   3  13
HETATM   13  C7  UNL     1      24.039   4.242  50.347  1.00  0.00     0.192 A 
HETATM   14  N3  UNL     1      23.273   4.188  49.362  1.00  0.00    -0.198 NA
HETATM   15  C8  UNL     1      23.298   5.124  48.435  1.00  0.00     0.171 A 
HETATM   16  C9  UNL     1      24.183   6.196  48.537  1.00  0.00     0.111 A 
HETATM   17  S1  UNL     1      25.029   5.832  50.060  1.00  0.00    -0.058 SA
BRANCH  15  18
HETATM   18  O1  UNL     1      22.440   5.044  47.347  1.00  0.00    -0.344 OA
HETATM   19  H6  UNL     1      22.091   4.220  46.915  1.00  0.00     0.219 HD
ENDBRANCH  15  18
ENDBRANCH   3  13
BRANCH   4  20
HETATM   20  C11 UNL     1      22.077   2.201  52.196  1.00  0.00    -0.033 A 
HETATM   21  C12 UNL     1      20.934   2.945  52.283  1.00  0.00     0.011 A 
HETATM   22  C13 UNL     1      19.719   2.352  51.921  1.00  0.00     0.019 A 
HETATM   23  C14 UNL     1      19.646   1.048  51.483  1.00  0.00     0.011 A 
HETATM   24 BR1  UNL     1      17.974   0.290  50.999  1.00  0.00    -0.051 Br
HETATM   25  C15 UNL     1      20.768   0.269  51.382  1.00  0.00     0.019 A 
HETATM   26  C16 UNL     1      21.947   0.887  51.747  1.00  0.00     0.011 A 
ENDBRANCH   4  20
TORSDOF 4
ENDMDL
MODEL 7
REMARK VINA RESULT:      -8.4      4.334      8.113
REMARK  4 active torsions:
REMARK  status: ('A' for Active; 'I' for Inactive)
REMARK    1  A    between atoms: C5_5  and  C6_6 
REMARK    2  A    between atoms: N2_8  and  C7_9 
REMARK    3  A    between atoms: C8_11  and  O1_12 
REMARK    4  A    between atoms: C10_15  and  C11_16 
ROOT
HETATM    1  C6  UNL     1      20.706   1.045  51.633  1.00  0.00     0.067 C 
HETATM    2  N1  UNL     1      20.912   2.285  51.352  1.00  0.00    -0.173 NA
HETATM    3  N2  UNL     1      22.280   2.577  51.220  1.00  0.00    -0.236 N 
HETATM    4  C10 UNL     1      22.982   1.347  51.151  1.00  0.00     0.151 C 
HETATM    5  C17 UNL     1      22.013   0.348  51.743  1.00  0.00     0.094 C 
ENDROOT
BRANCH   1   6
HETATM    6  C5  UNL     1      19.460   0.311  51.856  1.00  0.00    -0.010 A 
HETATM    7  C4  UNL     1      18.441   0.356  50.945  1.00  0.00     0.014 A 
HETATM    8  C3  UNL     1      17.263  -0.348  51.126  1.00  0.00     0.007 A 
HETATM    9  C2  UNL     1      17.083  -1.127  52.251  1.00  0.00    -0.062 A 
HETATM   10  C1  UNL     1      15.869  -1.931  52.553  1.00  0.00     0.048 C 
HETATM   11  C19 UNL     1      18.101  -1.183  53.178  1.00  0.00     0.007 A 
HETATM   12  C18 UNL     1      19.263  -0.475  52.979  1.00  0.00     0.014 A 
ENDBRANCH   1   6
BRANCH   3  13
HETATM   13  C7  UNL     1      22.448   4.026  51.193  1.00  0.00     0.192 A 
HETATM   14  N3  UNL     1      23.362   4.712  51.694  1.00  0.00    -0.198 NA
HETATM   15  C8  UNL     1      23.369   6.024  51.569  1.00  0.00     0.171 A 
HETATM   16  C9  UNL     1      22.351   6.672  50.871  1.00  0.00     0.111 A 
HETATM   17  S1  UNL     1      21.324   5.309  50.366  1.00  0.00    -0.058 SA
BRANCH  15  18
HETATM   18  O1  UNL     1      24.394   6.768  52.136  1.00  0.00    -0.344 OA
HETATM   19  H6  UNL     1      24.534   7.748  52.069  1.00  0.00     0.219 HD
ENDBRANCH  15  18
ENDBRANCH   3  13
BRANCH   4  20
HETATM   20  C11 UNL     1      24.220   1.242  51.928  1.00  0.00    -0.033 A 
HETATM   21  C12 UNL     1      24.309   0.636  53.151  1.00  0.00     0.011 A 
HETATM   22  C13 UNL     1      25.558   0.578  53.780  1.00  0.00     0.019 A 
HETATM   23  C14 UNL     1      26.690   1.111  53.204  1.00  0.00     0.011 A 
HETATM   24 BR1  UNL     1      28.363   1.003  54.096  1.00  0.00    -0.051 Br
HETATM   25  C15 UNL     1      26.643   1.726  51.981  1.00  0.00     0.019 A 
HETATM   26  C16 UNL     1      25.396   1.764  51.390  1.00  0.00     0.011 A 
ENDBRANCH   4  20
TORSDOF 4
ENDMDL
MODEL 8
REMARK VINA RESULT:      -8.3      4.953      8.569
REMARK  4 active torsions:
REMARK  status: ('A' for Active; 'I' for Inactive)
REMARK    1  A    between atoms: C5_5  and  C6_6 
REMARK    2  A    between atoms: N2_8  and  C7_9 
REMARK    3  A    between atoms: C8_11  and  O1_12 
REMARK    4  A    between atoms: C10_15  and  C11_16 
ROOT
HETATM    1  C6  UNL     1      23.212   2.060  50.657  1.00  0.00     0.067 C 
HETATM    2  N1  UNL     1      22.610   2.361  49.560  1.00  0.00    -0.173 NA
HETATM    3  N2  UNL     1      23.291   3.356  48.840  1.00  0.00    -0.236 N 
HETATM    4  C10 UNL     1      24.579   3.503  49.413  1.00  0.00     0.151 C 
HETATM    5  C17 UNL     1      24.427   2.901  50.792  1.00  0.00     0.094 C 
ENDROOT
BRANCH   1   6
HETATM    6  C5  UNL     1      22.866   1.094  51.702  1.00  0.00    -0.010 A 
HETATM    7  C4  UNL     1      23.790   0.695  52.628  1.00  0.00     0.014 A 
HETATM    8  C3  UNL     1      23.479  -0.200  53.637  1.00  0.00     0.007 A 
HETATM    9  C2  UNL     1      22.206  -0.723  53.735  1.00  0.00    -0.062 A 
HETATM   10  C1  UNL     1      21.752  -1.685  54.775  1.00  0.00     0.048 C 
HETATM   11  C19 UNL     1      21.264  -0.331  52.809  1.00  0.00     0.007 A 
HETATM   12  C18 UNL     1      21.595   0.559  51.815  1.00  0.00     0.014 A 
ENDBRANCH   1   6
BRANCH   3  13
HETATM   13  C7  UNL     1      22.419   3.844  47.777  1.00  0.00     0.192 A 
HETATM   14  N3  UNL     1      22.338   3.451  46.595  1.00  0.00    -0.198 NA
HETATM   15  C8  UNL     1      21.481   3.999  45.757  1.00  0.00     0.171 A 
HETATM   16  C9  UNL     1      20.646   5.033  46.177  1.00  0.00     0.111 A 
HETATM   17  S1  UNL     1      21.125   5.225  47.881  1.00  0.00    -0.058 SA
BRANCH  15  18
HETATM   18  O1  UNL     1      21.410   3.547  44.447  1.00  0.00    -0.344 OA
HETATM   19  H6  UNL     1      21.390   4.098  43.621  1.00  0.00     0.219 HD
ENDBRANCH  15  18
ENDBRANCH   3  13
BRANCH   4  20
HETATM   20  C11 UNL     1      25.074   4.870  49.603  1.00  0.00    -0.033 A 
HETATM   21  C12 UNL     1      24.535   5.764  50.485  1.00  0.00     0.011 A 
HETATM   22  C13 UNL     1      25.116   7.033  50.592  1.00  0.00     0.019 A 
HETATM   23  C14 UNL     1      26.208   7.400  49.837  1.00  0.00     0.011 A 
HETATM   24 BR1  UNL     1      26.964   9.132  50.020  1.00  0.00    -0.051 Br
HETATM   25  C15 UNL     1      26.777   6.533  48.942  1.00  0.00     0.019 A 
HETATM   26  C16 UNL     1      26.178   5.292  48.864  1.00  0.00     0.011 A 
ENDBRANCH   4  20
TORSDOF 4
ENDMDL
MODEL 9
REMARK VINA RESULT:      -8.1      4.548      5.917
REMARK  4 active torsions:
REMARK  status: ('A' for Active; 'I' for Inactive)
REMARK    1  A    between atoms: C5_5  and  C6_6 
REMARK    2  A    between atoms: N2_8  and  C7_9 
REMARK    3  A    between atoms: C8_11  and  O1_12 
REMARK    4  A    between atoms: C10_15  and  C11_16 
ROOT
HETATM    1  C6  UNL     1      23.904   4.466  49.940  1.00  0.00     0.067 C 
HETATM    2  N1  UNL     1      22.718   4.535  49.445  1.00  0.00    -0.173 NA
HETATM    3  N2  UNL     1      21.752   3.991  50.307  1.00  0.00    -0.236 N 
HETATM    4  C10 UNL     1      22.359   3.803  51.575  1.00  0.00     0.151 C 
HETATM    5  C17 UNL     1      23.839   3.802  51.266  1.00  0.00     0.094 C 
ENDROOT
BRANCH   1   6
HETATM    6  C5  UNL     1      25.192   4.902  49.398  1.00  0.00    -0.010 A 
HETATM    7  C4  UNL     1      25.359   6.167  48.904  1.00  0.00     0.014 A 
HETATM    8  C3  UNL     1      26.573   6.607  48.407  1.00  0.00     0.007 A 
HETATM    9  C2  UNL     1      27.667   5.765  48.397  1.00  0.00    -0.062 A 
HETATM   10  C1  UNL     1      29.020   6.124  47.895  1.00  0.00     0.048 C 
HETATM   11  C19 UNL     1      27.515   4.488  48.890  1.00  0.00     0.007 A 
HETATM   12  C18 UNL     1      26.299   4.071  49.379  1.00  0.00     0.014 A 
ENDBRANCH   1   6
BRANCH   3  13
HETATM   13  C7  UNL     1      20.500   3.842  49.573  1.00  0.00     0.192 A 
HETATM   14  N3  UNL     1      20.316   3.339  48.445  1.00  0.00    -0.198 NA
HETATM   15  C8  UNL     1      19.107   3.273  47.924  1.00  0.00     0.171 A 
HETATM   16  C9  UNL     1      18.008   3.765  48.626  1.00  0.00     0.111 A 
HETATM   17  S1  UNL     1      18.762   4.358  50.126  1.00  0.00    -0.058 SA
BRANCH  15  18
HETATM   18  O1  UNL     1      18.925   2.712  46.668  1.00  0.00    -0.344 OA
HETATM   19  H6  UNL     1      19.327   3.012  45.812  1.00  0.00     0.219 HD
ENDBRANCH  15  18
ENDBRANCH   3  13
BRANCH   4  20
HETATM   20  C11 UNL     1      22.074   2.545  52.271  1.00  0.00    -0.033 A 
HETATM   21  C12 UNL     1      20.832   2.171  52.701  1.00  0.00     0.011 A 
HETATM   22  C13 UNL     1      20.686   0.930  53.331  1.00  0.00     0.019 A 
HETATM   23  C14 UNL     1      21.755   0.083  53.527  1.00  0.00     0.011 A 
HETATM   24 BR1  UNL     1      21.506  -1.594  54.384  1.00  0.00    -0.051 Br
HETATM   25  C15 UNL     1      23.015   0.420  53.111  1.00  0.00     0.019 A 
HETATM   26  C16 UNL     1      23.120   1.650  52.494  1.00  0.00     0.011 A 
ENDBRANCH   4  20
TORSDOF 4
ENDMDL
