MODEL 1
REMARK VINA RESULT:      -8.2      0.000      0.000
REMARK  7 active torsions:
REMARK  status: ('A' for Active; 'I' for Inactive)
REMARK    1  A    between atoms: C3_3  and  C4_4 
REMARK    2  A    between atoms: C6_6  and  N1_7 
REMARK    3  A    between atoms: C17_21  and  O1_22 
REMARK    4  A    between atoms: C20_25  and  N5_26 
REMARK    5  A    between atoms: N5_26  and  C22_28 
REMARK    6  A    between atoms: C22_28  and  C23_29 
REMARK    7  A    between atoms: C23_29  and  N6_30 
ROOT
HETATM    1  C4  UNL     1      25.933   3.838  49.752  1.00  0.00    -0.008 A 
HETATM    2  C5  UNL     1      27.105   4.472  49.335  1.00  0.00     0.046 A 
HETATM    3  C6  UNL     1      27.018   5.721  48.704  1.00  0.00     0.083 A 
HETATM    4  C17 UNL     1      25.731   6.264  48.531  1.00  0.00     0.097 A 
HETATM    5  C19 UNL     1      24.611   5.593  48.969  1.00  0.00     0.069 A 
HETATM    6  C20 UNL     1      24.692   4.390  49.577  1.00  0.00     0.043 A 
ENDROOT
BRANCH   3   7
HETATM    7  N1  UNL     1      28.092   6.430  48.144  1.00  0.00    -0.186 N 
HETATM    8  C7  UNL     1      29.390   6.109  48.154  1.00  0.00     0.726 A 
HETATM    9  N2  UNL     1      29.944   7.374  48.582  1.00  0.00    -0.064 NA
HETATM   10  N3  UNL     1      30.150   4.871  47.882  1.00  0.00    -0.063 NA
HETATM   11  C8  UNL     1      31.254   7.678  48.824  1.00  0.00     0.216 A 
HETATM   12  C9  UNL     1      31.365   6.433  48.463  1.00  0.00     0.066 A 
HETATM   13  N4  UNL     1      32.791   7.442  48.861  1.00  0.00    -0.354 N 
HETATM   14  C10 UNL     1      31.430   5.107  48.076  1.00  0.00     0.085 A 
HETATM   15  C11 UNL     1      32.858   5.133  48.207  1.00  0.00    -0.002 A 
HETATM   16  C12 UNL     1      33.614   6.221  48.571  1.00  0.00     0.038 A 
HETATM   17  C16 UNL     1      33.132   3.737  47.795  1.00  0.00     0.047 A 
HETATM   18  C13 UNL     1      35.037   6.180  48.599  1.00  0.00     0.026 A 
HETATM   19  C14 UNL     1      35.294   4.916  48.204  1.00  0.00    -0.024 A 
HETATM   20  C15 UNL     1      34.669   3.636  47.776  1.00  0.00     0.032 A 
HETATM   21  H15 UNL     1      33.076   8.414  49.053  1.00  0.00     0.162 HD
HETATM   22  H7  UNL     1      27.784   7.295  47.589  1.00  0.00     0.184 HD
ENDBRANCH   3   7
BRANCH   4  23
HETATM   23  O1  UNL     1      25.700   7.504  47.898  1.00  0.00    -0.354 OA
HETATM   24  C18 UNL     1      25.187   8.600  48.621  1.00  0.00     0.210 C 
ENDBRANCH   4  23
BRANCH   1  25
HETATM   25  C3  UNL     1      26.059   2.474  50.290  1.00  0.00     0.009 C 
HETATM   26  C2  UNL     1      26.419   2.002  51.457  1.00  0.00    -0.030 C 
HETATM   27  C1  UNL     1      26.534   0.622  51.959  1.00  0.00     0.036 C 
ENDBRANCH   1  25
BRANCH   6  28
HETATM   28  N5  UNL     1      23.447   3.854  50.001  1.00  0.00    -0.383 N 
HETATM   29  C21 UNL     1      22.595   3.168  49.042  1.00  0.00     0.150 C 
BRANCH  28  30
HETATM   30  C22 UNL     1      22.829   3.911  51.307  1.00  0.00     0.152 C 
BRANCH  30  31
HETATM   31  C23 UNL     1      21.715   4.909  51.439  1.00  0.00     0.288 C 
BRANCH  31  32
HETATM   32  N6  UNL     1      22.179   6.245  51.581  1.00  0.00     0.080 N 
HETATM   33  C24 UNL     1      21.559   7.219  50.736  1.00  0.00     0.306 C 
HETATM   34  H27 UNL     1      23.219   6.255  51.538  1.00  0.00     0.315 HD
ENDBRANCH  31  32
ENDBRANCH  30  31
ENDBRANCH  28  30
ENDBRANCH   6  28
TORSDOF 7
ENDMDL
MODEL 2
REMARK VINA RESULT:      -8.2      2.929      5.033
REMARK  7 active torsions:
REMARK  status: ('A' for Active; 'I' for Inactive)
REMARK    1  A    between atoms: C3_3  and  C4_4 
REMARK    2  A    between atoms: C6_6  and  N1_7 
REMARK    3  A    between atoms: C17_21  and  O1_22 
REMARK    4  A    between atoms: C20_25  and  N5_26 
REMARK    5  A    between atoms: N5_26  and  C22_28 
REMARK    6  A    between atoms: C22_28  and  C23_29 
REMARK    7  A    between atoms: C23_29  and  N6_30 
ROOT
HETATM    1  C4  UNL     1      25.700   1.011  52.073  1.00  0.00    -0.008 A 
HETATM    2  C5  UNL     1      25.941   2.038  51.158  1.00  0.00     0.046 A 
HETATM    3  C6  UNL     1      24.873   2.841  50.735  1.00  0.00     0.083 A 
HETATM    4  C17 UNL     1      23.604   2.555  51.273  1.00  0.00     0.097 A 
HETATM    5  C19 UNL     1      23.429   1.531  52.177  1.00  0.00     0.069 A 
HETATM    6  C20 UNL     1      24.456   0.756  52.586  1.00  0.00     0.043 A 
ENDROOT
BRANCH   3   7
HETATM    7  N1  UNL     1      24.940   3.840  49.752  1.00  0.00    -0.186 N 
HETATM    8  C7  UNL     1      26.020   4.496  49.312  1.00  0.00     0.726 A 
HETATM    9  N2  UNL     1      25.518   5.850  49.380  1.00  0.00    -0.064 NA
HETATM   10  N3  UNL     1      27.379   4.088  48.899  1.00  0.00    -0.063 NA
HETATM   11  C8  UNL     1      26.184   7.007  49.089  1.00  0.00     0.216 A 
HETATM   12  C9  UNL     1      27.113   6.133  48.836  1.00  0.00     0.066 A 
HETATM   13  N4  UNL     1      27.360   7.888  48.579  1.00  0.00    -0.354 N 
HETATM   14  C10 UNL     1      28.067   5.164  48.582  1.00  0.00     0.085 A 
HETATM   15  C11 UNL     1      28.996   6.178  48.173  1.00  0.00    -0.002 A 
HETATM   16  C12 UNL     1      28.744   7.528  48.124  1.00  0.00     0.038 A 
HETATM   17  C16 UNL     1      30.132   5.294  47.827  1.00  0.00     0.047 A 
HETATM   18  C13 UNL     1      29.700   8.459  47.627  1.00  0.00     0.026 A 
HETATM   19  C14 UNL     1      30.731   7.657  47.290  1.00  0.00    -0.024 A 
HETATM   20  C15 UNL     1      31.197   6.246  47.250  1.00  0.00     0.032 A 
HETATM   21  H15 UNL     1      26.859   8.789  48.555  1.00  0.00     0.162 HD
HETATM   22  H7  UNL     1      24.000   4.023  49.270  1.00  0.00     0.184 HD
ENDBRANCH   3   7
BRANCH   4  23
HETATM   23  O1  UNL     1      22.577   3.381  50.820  1.00  0.00    -0.354 OA
HETATM   24  C18 UNL     1      22.041   4.321  51.723  1.00  0.00     0.210 C 
ENDBRANCH   4  23
BRANCH   1  25
HETATM   25  C3  UNL     1      26.821   0.112  52.389  1.00  0.00     0.009 C 
HETATM   26  C2  UNL     1      27.937   0.273  53.054  1.00  0.00    -0.030 C 
HETATM   27  C1  UNL     1      29.041  -0.657  53.349  1.00  0.00     0.036 C 
ENDBRANCH   1  25
BRANCH   6  28
HETATM   28  N5  UNL     1      24.110  -0.228  53.550  1.00  0.00    -0.383 N 
HETATM   29  C21 UNL     1      24.981  -0.454  54.692  1.00  0.00     0.150 C 
BRANCH  28  30
HETATM   30  C22 UNL     1      22.976  -1.124  53.568  1.00  0.00     0.152 C 
BRANCH  30  31
HETATM   31  C23 UNL     1      22.205  -1.146  54.857  1.00  0.00     0.288 C 
BRANCH  31  32
HETATM   32  N6  UNL     1      21.110  -0.239  54.865  1.00  0.00     0.080 N 
HETATM   33  C24 UNL     1      20.341  -0.172  53.661  1.00  0.00     0.306 C 
HETATM   34  H27 UNL     1      21.435   0.688  55.207  1.00  0.00     0.315 HD
ENDBRANCH  31  32
ENDBRANCH  30  31
ENDBRANCH  28  30
ENDBRANCH   6  28
TORSDOF 7
ENDMDL
MODEL 3
REMARK VINA RESULT:      -8.1      2.896      8.255
REMARK  7 active torsions:
REMARK  status: ('A' for Active; 'I' for Inactive)
REMARK    1  A    between atoms: C3_3  and  C4_4 
REMARK    2  A    between atoms: C6_6  and  N1_7 
REMARK    3  A    between atoms: C17_21  and  O1_22 
REMARK    4  A    between atoms: C20_25  and  N5_26 
REMARK    5  A    between atoms: N5_26  and  C22_28 
REMARK    6  A    between atoms: C22_28  and  C23_29 
REMARK    7  A    between atoms: C23_29  and  N6_30 
ROOT
HETATM    1  C4  UNL     1      25.543   7.150  48.840  1.00  0.00    -0.008 A 
HETATM    2  C5  UNL     1      25.619   5.881  49.417  1.00  0.00     0.046 A 
HETATM    3  C6  UNL     1      26.775   5.112  49.225  1.00  0.00     0.083 A 
HETATM    4  C17 UNL     1      27.804   5.682  48.452  1.00  0.00     0.097 A 
HETATM    5  C19 UNL     1      27.673   6.943  47.913  1.00  0.00     0.069 A 
HETATM    6  C20 UNL     1      26.560   7.686  48.096  1.00  0.00     0.043 A 
ENDROOT
BRANCH   3   7
HETATM    7  N1  UNL     1      26.958   3.789  49.655  1.00  0.00    -0.186 N 
HETATM    8  C7  UNL     1      26.109   3.019  50.346  1.00  0.00     0.726 A 
HETATM    9  N2  UNL     1      27.010   2.528  51.364  1.00  0.00    -0.064 NA
HETATM   10  N3  UNL     1      24.666   2.717  50.238  1.00  0.00    -0.063 NA
HETATM   11  C8  UNL     1      26.720   1.707  52.417  1.00  0.00     0.216 A 
HETATM   12  C9  UNL     1      25.550   1.787  51.853  1.00  0.00     0.066 A 
HETATM   13  N4  UNL     1      25.845   0.768  53.296  1.00  0.00    -0.354 N 
HETATM   14  C10 UNL     1      24.328   1.906  51.217  1.00  0.00     0.085 A 
HETATM   15  C11 UNL     1      23.736   1.020  52.177  1.00  0.00    -0.002 A 
HETATM   16  C12 UNL     1      24.391   0.405  53.216  1.00  0.00     0.038 A 
HETATM   17  C16 UNL     1      22.361   1.003  51.627  1.00  0.00     0.047 A 
HETATM   18  C13 UNL     1      23.742  -0.526  54.077  1.00  0.00     0.026 A 
HETATM   19  C14 UNL     1      22.493  -0.561  53.568  1.00  0.00    -0.024 A 
HETATM   20  C15 UNL     1      21.609  -0.017  52.503  1.00  0.00     0.032 A 
HETATM   21  H15 UNL     1      26.599   0.393  53.892  1.00  0.00     0.162 HD
HETATM   22  H7  UNL     1      27.874   3.354  49.308  1.00  0.00     0.184 HD
ENDBRANCH   3   7
BRANCH   4  23
HETATM   23  O1  UNL     1      28.930   4.878  48.292  1.00  0.00    -0.354 OA
HETATM   24  C18 UNL     1      30.147   5.507  47.960  1.00  0.00     0.210 C 
ENDBRANCH   4  23
BRANCH   1  25
HETATM   25  C3  UNL     1      24.263   7.868  48.955  1.00  0.00     0.009 C 
HETATM   26  C2  UNL     1      23.139   7.602  49.572  1.00  0.00    -0.030 C 
HETATM   27  C1  UNL     1      21.874   8.350  49.664  1.00  0.00     0.036 C 
ENDBRANCH   1  25
BRANCH   6  28
HETATM   28  N5  UNL     1      26.605   8.977  47.505  1.00  0.00    -0.383 N 
HETATM   29  C21 UNL     1      25.984   9.197  46.208  1.00  0.00     0.150 C 
BRANCH  28  30
HETATM   30  C22 UNL     1      27.235  10.181  47.997  1.00  0.00     0.152 C 
BRANCH  30  31
HETATM   31  C23 UNL     1      27.709  10.113  49.421  1.00  0.00     0.288 C 
BRANCH  31  32
HETATM   32  N6  UNL     1      29.079  10.463  49.568  1.00  0.00     0.080 N 
HETATM   33  C24 UNL     1      30.025   9.423  49.302  1.00  0.00     0.306 C 
HETATM   34  H27 UNL     1      29.218  10.931  50.487  1.00  0.00     0.315 HD
ENDBRANCH  31  32
ENDBRANCH  30  31
ENDBRANCH  28  30
ENDBRANCH   6  28
TORSDOF 7
ENDMDL
MODEL 4
REMARK VINA RESULT:      -7.9      1.382      2.103
REMARK  7 active torsions:
REMARK  status: ('A' for Active; 'I' for Inactive)
REMARK    1  A    between atoms: C3_3  and  C4_4 
REMARK    2  A    between atoms: C6_6  and  N1_7 
REMARK    3  A    between atoms: C17_21  and  O1_22 
REMARK    4  A    between atoms: C20_25  and  N5_26 
REMARK    5  A    between atoms: N5_26  and  C22_28 
REMARK    6  A    between atoms: C22_28  and  C23_29 
REMARK    7  A    between atoms: C23_29  and  N6_30 
ROOT
HETATM    1  C4  UNL     1      25.881   3.318  50.147  1.00  0.00    -0.008 A 
HETATM    2  C5  UNL     1      26.892   4.116  49.609  1.00  0.00     0.046 A 
HETATM    3  C6  UNL     1      26.550   5.320  48.978  1.00  0.00     0.083 A 
HETATM    4  C17 UNL     1      25.183   5.652  48.929  1.00  0.00     0.097 A 
HETATM    5  C19 UNL     1      24.230   4.826  49.484  1.00  0.00     0.069 A 
HETATM    6  C20 UNL     1      24.558   3.666  50.093  1.00  0.00     0.043 A 
ENDROOT
BRANCH   3   7
HETATM    7  N1  UNL     1      27.439   6.172  48.306  1.00  0.00    -0.186 N 
HETATM    8  C7  UNL     1      28.775   6.110  48.267  1.00  0.00     0.726 A 
HETATM    9  N2  UNL     1      29.085   7.490  48.566  1.00  0.00    -0.064 NA
HETATM   10  N3  UNL     1      29.752   5.024  48.047  1.00  0.00    -0.063 NA
HETATM   11  C8  UNL     1      30.318   8.061  48.710  1.00  0.00     0.216 A 
HETATM   12  C9  UNL     1      30.658   6.835  48.440  1.00  0.00     0.066 A 
HETATM   13  N4  UNL     1      31.872   8.130  48.679  1.00  0.00    -0.354 N 
HETATM   14  C10 UNL     1      30.967   5.518  48.150  1.00  0.00     0.085 A 
HETATM   15  C11 UNL     1      32.366   5.831  48.199  1.00  0.00    -0.002 A 
HETATM   16  C12 UNL     1      32.907   7.071  48.436  1.00  0.00     0.038 A 
HETATM   17  C16 UNL     1      32.893   4.484  47.879  1.00  0.00     0.047 A 
HETATM   18  C13 UNL     1      34.310   7.308  48.387  1.00  0.00     0.026 A 
HETATM   19  C14 UNL     1      34.794   6.089  48.075  1.00  0.00    -0.024 A 
HETATM   20  C15 UNL     1      34.418   4.681  47.781  1.00  0.00     0.032 A 
HETATM   21  H15 UNL     1      31.967   9.152  48.780  1.00  0.00     0.162 HD
HETATM   22  H7  UNL     1      26.945   6.911  47.706  1.00  0.00     0.184 HD
ENDBRANCH   3   7
BRANCH   4  23
HETATM   23  O1  UNL     1      24.896   6.856  48.291  1.00  0.00    -0.354 OA
HETATM   24  C18 UNL     1      24.214   7.846  49.028  1.00  0.00     0.210 C 
ENDBRANCH   4  23
BRANCH   1  25
HETATM   25  C3  UNL     1      26.271   2.004  50.684  1.00  0.00     0.009 C 
HETATM   26  C2  UNL     1      26.711   1.609  51.852  1.00  0.00    -0.030 C 
HETATM   27  C1  UNL     1      27.094   0.278  52.352  1.00  0.00     0.036 C 
ENDBRANCH   1  25
BRANCH   6  28
HETATM   28  N5  UNL     1      23.459   2.955  50.644  1.00  0.00    -0.383 N 
HETATM   29  C21 UNL     1      22.693   2.049  49.803  1.00  0.00     0.150 C 
BRANCH  28  30
HETATM   30  C22 UNL     1      22.920   3.010  51.984  1.00  0.00     0.152 C 
BRANCH  30  31
HETATM   31  C23 UNL     1      22.494   1.686  52.552  1.00  0.00     0.288 C 
BRANCH  31  32
HETATM   32  N6  UNL     1      23.530   1.031  53.271  1.00  0.00     0.080 N 
HETATM   33  C24 UNL     1      23.522  -0.399  53.219  1.00  0.00     0.306 C 
HETATM   34  H27 UNL     1      23.575   1.414  54.237  1.00  0.00     0.315 HD
ENDBRANCH  31  32
ENDBRANCH  30  31
ENDBRANCH  28  30
ENDBRANCH   6  28
TORSDOF 7
ENDMDL
MODEL 5
REMARK VINA RESULT:      -7.8      6.750      8.901
REMARK  7 active torsions:
REMARK  status: ('A' for Active; 'I' for Inactive)
REMARK    1  A    between atoms: C3_3  and  C4_4 
REMARK    2  A    between atoms: C6_6  and  N1_7 
REMARK    3  A    between atoms: C17_21  and  O1_22 
REMARK    4  A    between atoms: C20_25  and  N5_26 
REMARK    5  A    between atoms: N5_26  and  C22_28 
REMARK    6  A    between atoms: C22_28  and  C23_29 
REMARK    7  A    between atoms: C23_29  and  N6_30 
ROOT
HETATM    1  C4  UNL     1      18.414   0.585  51.964  1.00  0.00    -0.008 A 
HETATM    2  C5  UNL     1      19.753   0.983  51.985  1.00  0.00     0.046 A 
HETATM    3  C6  UNL     1      20.083   2.290  51.602  1.00  0.00     0.083 A 
HETATM    4  C17 UNL     1      19.024   3.132  51.216  1.00  0.00     0.097 A 
HETATM    5  C19 UNL     1      17.721   2.685  51.221  1.00  0.00     0.069 A 
HETATM    6  C20 UNL     1      17.400   1.426  51.590  1.00  0.00     0.043 A 
ENDROOT
BRANCH   3   7
HETATM    7  N1  UNL     1      21.384   2.801  51.477  1.00  0.00    -0.186 N 
HETATM    8  C7  UNL     1      22.535   2.236  51.859  1.00  0.00     0.726 A 
HETATM    9  N2  UNL     1      23.126   3.354  52.561  1.00  0.00    -0.064 NA
HETATM   10  N3  UNL     1      23.121   0.887  51.717  1.00  0.00    -0.063 NA
HETATM   11  C8  UNL     1      24.318   3.391  53.227  1.00  0.00     0.216 A 
HETATM   12  C9  UNL     1      24.328   2.163  52.799  1.00  0.00     0.066 A 
HETATM   13  N4  UNL     1      25.696   2.863  53.718  1.00  0.00    -0.354 N 
HETATM   14  C10 UNL     1      24.289   0.865  52.322  1.00  0.00     0.085 A 
HETATM   15  C11 UNL     1      25.580   0.611  52.894  1.00  0.00    -0.002 A 
HETATM   16  C12 UNL     1      26.350   1.519  53.579  1.00  0.00     0.038 A 
HETATM   17  C16 UNL     1      25.732  -0.794  52.452  1.00  0.00     0.047 A 
HETATM   18  C13 UNL     1      27.658   1.205  54.045  1.00  0.00     0.026 A 
HETATM   19  C14 UNL     1      27.811  -0.069  53.627  1.00  0.00    -0.024 A 
HETATM   20  C15 UNL     1      27.151  -1.187  52.903  1.00  0.00     0.032 A 
HETATM   21  H15 UNL     1      26.064   3.754  54.084  1.00  0.00     0.162 HD
HETATM   22  H7  UNL     1      21.424   3.730  50.942  1.00  0.00     0.184 HD
ENDBRANCH   3   7
BRANCH   4  23
HETATM   23  O1  UNL     1      19.405   4.419  50.845  1.00  0.00    -0.354 OA
HETATM   24  C18 UNL     1      19.004   4.885  49.576  1.00  0.00     0.210 C 
ENDBRANCH   4  23
BRANCH   1  25
HETATM   25  C3  UNL     1      18.126  -0.830  52.247  1.00  0.00     0.009 C 
HETATM   26  C2  UNL     1      17.917  -1.497  53.354  1.00  0.00    -0.030 C 
HETATM   27  C1  UNL     1      17.632  -2.921  53.597  1.00  0.00     0.036 C 
ENDBRANCH   1  25
BRANCH   6  28
HETATM   28  N5  UNL     1      16.009   1.140  51.575  1.00  0.00    -0.383 N 
HETATM   29  C21 UNL     1      15.388   0.648  50.355  1.00  0.00     0.150 C 
BRANCH  28  30
HETATM   30  C22 UNL     1      15.037   1.299  52.633  1.00  0.00     0.152 C 
BRANCH  30  31
HETATM   31  C23 UNL     1      14.188   2.534  52.534  1.00  0.00     0.288 C 
BRANCH  31  32
HETATM   32  N6  UNL     1      14.627   3.580  53.390  1.00  0.00     0.080 N 
HETATM   33  C24 UNL     1      13.601   4.405  53.951  1.00  0.00     0.306 C 
HETATM   34  H27 UNL     1      15.384   4.116  52.919  1.00  0.00     0.315 HD
ENDBRANCH  31  32
ENDBRANCH  30  31
ENDBRANCH  28  30
ENDBRANCH   6  28
TORSDOF 7
ENDMDL
MODEL 6
REMARK VINA RESULT:      -7.7      5.858     11.324
REMARK  7 active torsions:
REMARK  status: ('A' for Active; 'I' for Inactive)
REMARK    1  A    between atoms: C3_3  and  C4_4 
REMARK    2  A    between atoms: C6_6  and  N1_7 
REMARK    3  A    between atoms: C17_21  and  O1_22 
REMARK    4  A    between atoms: C20_25  and  N5_26 
REMARK    5  A    between atoms: N5_26  and  C22_28 
REMARK    6  A    between atoms: C22_28  and  C23_29 
REMARK    7  A    between atoms: C23_29  and  N6_30 
ROOT
HETATM    1  C4  UNL     1      23.320   1.218  52.795  1.00  0.00    -0.008 A 
HETATM    2  C5  UNL     1      22.265   2.063  52.444  1.00  0.00     0.046 A 
HETATM    3  C6  UNL     1      22.551   3.340  51.941  1.00  0.00     0.083 A 
HETATM    4  C17 UNL     1      23.908   3.692  51.818  1.00  0.00     0.097 A 
HETATM    5  C19 UNL     1      24.906   2.812  52.175  1.00  0.00     0.069 A 
HETATM    6  C20 UNL     1      24.634   1.582  52.660  1.00  0.00     0.043 A 
ENDROOT
BRANCH   3   7
HETATM    7  N1  UNL     1      21.604   4.331  51.641  1.00  0.00    -0.186 N 
HETATM    8  C7  UNL     1      20.291   4.184  51.430  1.00  0.00     0.726 A 
HETATM    9  N2  UNL     1      20.159   4.954  50.213  1.00  0.00    -0.064 NA
HETATM   10  N3  UNL     1      19.210   3.450  52.120  1.00  0.00    -0.063 NA
HETATM   11  C8  UNL     1      19.035   5.152  49.463  1.00  0.00     0.216 A 
HETATM   12  C9  UNL     1      18.551   4.413  50.418  1.00  0.00     0.066 A 
HETATM   13  N4  UNL     1      17.522   5.074  49.110  1.00  0.00    -0.354 N 
HETATM   14  C10 UNL     1      18.088   3.623  51.454  1.00  0.00     0.085 A 
HETATM   15  C11 UNL     1      16.761   3.682  50.912  1.00  0.00    -0.002 A 
HETATM   16  C12 UNL     1      16.381   4.371  49.786  1.00  0.00     0.038 A 
HETATM   17  C16 UNL     1      16.076   2.870  51.945  1.00  0.00     0.047 A 
HETATM   18  C13 UNL     1      15.023   4.442  49.363  1.00  0.00     0.026 A 
HETATM   19  C14 UNL     1      14.391   3.721  50.311  1.00  0.00    -0.024 A 
HETATM   20  C15 UNL     1      14.587   2.934  51.558  1.00  0.00     0.032 A 
HETATM   21  H15 UNL     1      17.528   5.739  48.322  1.00  0.00     0.162 HD
HETATM   22  H7  UNL     1      22.009   5.323  51.661  1.00  0.00     0.184 HD
ENDBRANCH   3   7
BRANCH   4  23
HETATM   23  O1  UNL     1      24.137   4.970  51.314  1.00  0.00    -0.354 OA
HETATM   24  C18 UNL     1      25.095   5.113  50.290  1.00  0.00     0.210 C 
ENDBRANCH   4  23
BRANCH   1  25
HETATM   25  C3  UNL     1      22.976  -0.059  53.439  1.00  0.00     0.009 C 
HETATM   26  C2  UNL     1      21.846  -0.581  53.847  1.00  0.00    -0.030 C 
HETATM   27  C1  UNL     1      21.542  -1.869  54.492  1.00  0.00     0.036 C 
ENDBRANCH   1  25
BRANCH   6  28
HETATM   28  N5  UNL     1      25.778   0.789  52.942  1.00  0.00    -0.383 N 
HETATM   29  C21 UNL     1      26.459   0.097  51.859  1.00  0.00     0.150 C 
BRANCH  28  30
HETATM   30  C22 UNL     1      26.399   0.510  54.217  1.00  0.00     0.152 C 
BRANCH  30  31
HETATM   31  C23 UNL     1      27.883   0.741  54.263  1.00  0.00     0.288 C 
BRANCH  31  32
HETATM   32  N6  UNL     1      28.613  -0.413  54.658  1.00  0.00     0.080 N 
HETATM   33  C24 UNL     1      29.543  -0.926  53.700  1.00  0.00     0.306 C 
HETATM   34  H27 UNL     1      27.953  -1.128  55.026  1.00  0.00     0.315 HD
ENDBRANCH  31  32
ENDBRANCH  30  31
ENDBRANCH  28  30
ENDBRANCH   6  28
TORSDOF 7
ENDMDL
MODEL 7
REMARK VINA RESULT:      -7.7      1.050      1.760
REMARK  7 active torsions:
REMARK  status: ('A' for Active; 'I' for Inactive)
REMARK    1  A    between atoms: C3_3  and  C4_4 
REMARK    2  A    between atoms: C6_6  and  N1_7 
REMARK    3  A    between atoms: C17_21  and  O1_22 
REMARK    4  A    between atoms: C20_25  and  N5_26 
REMARK    5  A    between atoms: N5_26  and  C22_28 
REMARK    6  A    between atoms: C22_28  and  C23_29 
REMARK    7  A    between atoms: C23_29  and  N6_30 
ROOT
HETATM    1  C4  UNL     1      25.903   3.591  49.838  1.00  0.00    -0.008 A 
HETATM    2  C5  UNL     1      27.003   4.330  49.399  1.00  0.00     0.046 A 
HETATM    3  C6  UNL     1      26.790   5.557  48.755  1.00  0.00     0.083 A 
HETATM    4  C17 UNL     1      25.455   5.972  48.594  1.00  0.00     0.097 A 
HETATM    5  C19 UNL     1      24.410   5.202  49.055  1.00  0.00     0.069 A 
HETATM    6  C20 UNL     1      24.612   4.020  49.675  1.00  0.00     0.043 A 
ENDROOT
BRANCH   3   7
HETATM    7  N1  UNL     1      27.783   6.358  48.173  1.00  0.00    -0.186 N 
HETATM    8  C7  UNL     1      29.108   6.172  48.183  1.00  0.00     0.726 A 
HETATM    9  N2  UNL     1      29.531   7.496  48.579  1.00  0.00    -0.064 NA
HETATM   10  N3  UNL     1      29.989   5.012  47.935  1.00  0.00    -0.063 NA
HETATM   11  C8  UNL     1      30.804   7.938  48.806  1.00  0.00     0.216 A 
HETATM   12  C9  UNL     1      31.041   6.703  48.474  1.00  0.00     0.066 A 
HETATM   13  N4  UNL     1      32.357   7.861  48.840  1.00  0.00    -0.354 N 
HETATM   14  C10 UNL     1      31.239   5.382  48.116  1.00  0.00     0.085 A 
HETATM   15  C11 UNL     1      32.658   5.556  48.239  1.00  0.00    -0.002 A 
HETATM   16  C12 UNL     1      33.299   6.724  48.573  1.00  0.00     0.038 A 
HETATM   17  C16 UNL     1      33.071   4.186  47.857  1.00  0.00     0.047 A 
HETATM   18  C13 UNL     1      34.719   6.829  48.594  1.00  0.00     0.026 A 
HETATM   19  C14 UNL     1      35.102   5.589  48.226  1.00  0.00    -0.024 A 
HETATM   20  C15 UNL     1      34.610   4.242  47.832  1.00  0.00     0.032 A 
HETATM   21  H15 UNL     1      32.542   8.861  49.008  1.00  0.00     0.162 HD
HETATM   22  H7  UNL     1      27.387   7.174  47.601  1.00  0.00     0.184 HD
ENDBRANCH   3   7
BRANCH   4  23
HETATM   23  O1  UNL     1      25.297   7.197  47.949  1.00  0.00    -0.354 OA
HETATM   24  C18 UNL     1      24.623   8.224  48.641  1.00  0.00     0.210 C 
ENDBRANCH   4  23
BRANCH   1  25
HETATM   25  C3  UNL     1      26.165   2.252  50.389  1.00  0.00     0.009 C 
HETATM   26  C2  UNL     1      26.472   1.821  51.587  1.00  0.00    -0.030 C 
HETATM   27  C1  UNL     1      26.729   0.465  52.101  1.00  0.00     0.036 C 
ENDBRANCH   1  25
BRANCH   6  28
HETATM   28  N5  UNL     1      23.430   3.373  50.121  1.00  0.00    -0.383 N 
HETATM   29  C21 UNL     1      22.782   3.822  51.344  1.00  0.00     0.150 C 
BRANCH  28  30
HETATM   30  C22 UNL     1      22.735   2.246  49.541  1.00  0.00     0.152 C 
BRANCH  30  31
HETATM   31  C23 UNL     1      22.074   2.520  48.220  1.00  0.00     0.288 C 
BRANCH  31  32
HETATM   32  N6  UNL     1      20.750   2.008  48.144  1.00  0.00     0.080 N 
HETATM   33  C24 UNL     1      19.747   2.925  47.695  1.00  0.00     0.306 C 
HETATM   34  H27 UNL     1      20.512   1.534  49.039  1.00  0.00     0.315 HD
ENDBRANCH  31  32
ENDBRANCH  30  31
ENDBRANCH  28  30
ENDBRANCH   6  28
TORSDOF 7
ENDMDL
MODEL 8
REMARK VINA RESULT:      -7.5      4.950      8.490
REMARK  7 active torsions:
REMARK  status: ('A' for Active; 'I' for Inactive)
REMARK    1  A    between atoms: C3_3  and  C4_4 
REMARK    2  A    between atoms: C6_6  and  N1_7 
REMARK    3  A    between atoms: C17_21  and  O1_22 
REMARK    4  A    between atoms: C20_25  and  N5_26 
REMARK    5  A    between atoms: N5_26  and  C22_28 
REMARK    6  A    between atoms: C22_28  and  C23_29 
REMARK    7  A    between atoms: C23_29  and  N6_30 
ROOT
HETATM    1  C4  UNL     1      23.742   1.009  52.190  1.00  0.00    -0.008 A 
HETATM    2  C5  UNL     1      23.015   2.026  51.568  1.00  0.00     0.046 A 
HETATM    3  C6  UNL     1      23.699   3.121  51.025  1.00  0.00     0.083 A 
HETATM    4  C17 UNL     1      25.102   3.123  51.142  1.00  0.00     0.097 A 
HETATM    5  C19 UNL     1      25.765   2.087  51.761  1.00  0.00     0.069 A 
HETATM    6  C20 UNL     1      25.108   1.030  52.286  1.00  0.00     0.043 A 
ENDROOT
BRANCH   3   7
HETATM    7  N1  UNL     1      23.103   4.260  50.462  1.00  0.00    -0.186 N 
HETATM    8  C7  UNL     1      22.758   4.469  49.187  1.00  0.00     0.726 A 
HETATM    9  N2  UNL     1      23.340   5.778  48.994  1.00  0.00    -0.064 NA
HETATM   10  N3  UNL     1      22.046   3.671  48.166  1.00  0.00    -0.063 NA
HETATM   11  C8  UNL     1      23.359   6.528  47.853  1.00  0.00     0.216 A 
HETATM   12  C9  UNL     1      22.701   5.486  47.436  1.00  0.00     0.066 A 
HETATM   13  N4  UNL     1      23.008   6.902  46.384  1.00  0.00    -0.354 N 
HETATM   14  C10 UNL     1      22.009   4.355  47.043  1.00  0.00     0.085 A 
HETATM   15  C11 UNL     1      21.832   4.913  45.733  1.00  0.00    -0.002 A 
HETATM   16  C12 UNL     1      22.269   6.148  45.318  1.00  0.00     0.038 A 
HETATM   17  C16 UNL     1      21.056   3.803  45.136  1.00  0.00     0.047 A 
HETATM   18  C13 UNL     1      21.979   6.657  44.020  1.00  0.00     0.026 A 
HETATM   19  C14 UNL     1      21.253   5.658  43.478  1.00  0.00    -0.024 A 
HETATM   20  C15 UNL     1      20.683   4.308  43.729  1.00  0.00     0.032 A 
HETATM   21  H15 UNL     1      23.356   7.873  46.401  1.00  0.00     0.162 HD
HETATM   22  H7  UNL     1      22.847   5.006  51.189  1.00  0.00     0.184 HD
ENDBRANCH   3   7
BRANCH   4  23
HETATM   23  O1  UNL     1      25.734   4.234  50.587  1.00  0.00    -0.354 OA
HETATM   24  C18 UNL     1      26.588   4.024  49.485  1.00  0.00     0.210 C 
ENDBRANCH   4  23
BRANCH   1  25
HETATM   25  C3  UNL     1      22.978  -0.055  52.860  1.00  0.00     0.009 C 
HETATM   26  C2  UNL     1      22.342  -0.117  54.003  1.00  0.00    -0.030 C 
HETATM   27  C1  UNL     1      21.586  -1.207  54.642  1.00  0.00     0.036 C 
ENDBRANCH   1  25
BRANCH   6  28
HETATM   28  N5  UNL     1      25.945   0.033  52.853  1.00  0.00    -0.383 N 
HETATM   29  C21 UNL     1      26.445  -1.048  52.018  1.00  0.00     0.150 C 
BRANCH  28  30
HETATM   30  C22 UNL     1      26.386  -0.113  54.222  1.00  0.00     0.152 C 
BRANCH  30  31
HETATM   31  C23 UNL     1      27.725   0.496  54.526  1.00  0.00     0.288 C 
BRANCH  31  32
HETATM   32  N6  UNL     1      28.751  -0.473  54.696  1.00  0.00     0.080 N 
HETATM   33  C24 UNL     1      29.754  -0.511  53.676  1.00  0.00     0.306 C 
HETATM   34  H27 UNL     1      28.320  -1.399  54.894  1.00  0.00     0.315 HD
ENDBRANCH  31  32
ENDBRANCH  30  31
ENDBRANCH  28  30
ENDBRANCH   6  28
TORSDOF 7
ENDMDL
MODEL 9
REMARK VINA RESULT:      -7.4      5.858     11.837
REMARK  7 active torsions:
REMARK  status: ('A' for Active; 'I' for Inactive)
REMARK    1  A    between atoms: C3_3  and  C4_4 
REMARK    2  A    between atoms: C6_6  and  N1_7 
REMARK    3  A    between atoms: C17_21  and  O1_22 
REMARK    4  A    between atoms: C20_25  and  N5_26 
REMARK    5  A    between atoms: N5_26  and  C22_28 
REMARK    6  A    between atoms: C22_28  and  C23_29 
REMARK    7  A    between atoms: C23_29  and  N6_30 
ROOT
HETATM    1  C4  UNL     1      24.550   1.667  51.978  1.00  0.00    -0.008 A 
HETATM    2  C5  UNL     1      23.293   2.265  52.093  1.00  0.00     0.046 A 
HETATM    3  C6  UNL     1      22.327   1.672  52.918  1.00  0.00     0.083 A 
HETATM    4  C17 UNL     1      22.696   0.493  53.592  1.00  0.00     0.097 A 
HETATM    5  C19 UNL     1      23.955  -0.047  53.444  1.00  0.00     0.069 A 
HETATM    6  C20 UNL     1      24.887   0.522  52.649  1.00  0.00     0.043 A 
ENDROOT
BRANCH   3   7
HETATM    7  N1  UNL     1      20.997   2.097  53.056  1.00  0.00    -0.186 N 
HETATM    8  C7  UNL     1      19.959   1.838  52.253  1.00  0.00     0.726 A 
HETATM    9  N2  UNL     1      19.430   3.176  52.110  1.00  0.00    -0.064 NA
HETATM   10  N3  UNL     1      19.434   0.618  51.603  1.00  0.00    -0.063 NA
HETATM   11  C8  UNL     1      18.365   3.581  51.357  1.00  0.00     0.216 A 
HETATM   12  C9  UNL     1      18.353   2.305  51.110  1.00  0.00     0.066 A 
HETATM   13  N4  UNL     1      17.119   3.417  50.441  1.00  0.00    -0.354 N 
HETATM   14  C10 UNL     1      18.386   0.942  50.877  1.00  0.00     0.085 A 
HETATM   15  C11 UNL     1      17.223   1.051  50.043  1.00  0.00    -0.002 A 
HETATM   16  C12 UNL     1      16.528   2.206  49.779  1.00  0.00     0.038 A 
HETATM   17  C16 UNL     1      17.080  -0.381  49.695  1.00  0.00     0.047 A 
HETATM   18  C13 UNL     1      15.335   2.211  49.003  1.00  0.00     0.026 A 
HETATM   19  C14 UNL     1      15.186   0.905  48.699  1.00  0.00    -0.024 A 
HETATM   20  C15 UNL     1      15.779  -0.448  48.873  1.00  0.00     0.032 A 
HETATM   21  H15 UNL     1      16.767   4.383  50.510  1.00  0.00     0.162 HD
HETATM   22  H7  UNL     1      20.817   2.636  53.965  1.00  0.00     0.184 HD
ENDBRANCH   3   7
BRANCH   4  23
HETATM   23  O1  UNL     1      21.702  -0.056  54.398  1.00  0.00    -0.354 OA
HETATM   24  C18 UNL     1      21.441  -1.436  54.276  1.00  0.00     0.210 C 
ENDBRANCH   4  23
BRANCH   1  25
HETATM   25  C3  UNL     1      25.486   2.247  51.003  1.00  0.00     0.009 C 
HETATM   26  C2  UNL     1      25.514   3.386  50.356  1.00  0.00    -0.030 C 
HETATM   27  C1  UNL     1      26.474   3.932  49.382  1.00  0.00     0.036 C 
ENDBRANCH   1  25
BRANCH   6  28
HETATM   28  N5  UNL     1      26.143  -0.141  52.640  1.00  0.00    -0.383 N 
HETATM   29  C21 UNL     1      26.216  -1.539  52.247  1.00  0.00     0.150 C 
BRANCH  28  30
HETATM   30  C22 UNL     1      27.443   0.369  53.012  1.00  0.00     0.152 C 
BRANCH  30  31
HETATM   31  C23 UNL     1      27.776   0.254  54.472  1.00  0.00     0.288 C 
BRANCH  31  32
HETATM   32  N6  UNL     1      28.972  -0.476  54.713  1.00  0.00     0.080 N 
HETATM   33  C24 UNL     1      29.710  -0.873  53.554  1.00  0.00     0.306 C 
HETATM   34  H27 UNL     1      28.772  -1.257  55.370  1.00  0.00     0.315 HD
ENDBRANCH  31  32
ENDBRANCH  30  31
ENDBRANCH  28  30
ENDBRANCH   6  28
TORSDOF 7
ENDMDL
