MODEL 1
REMARK VINA RESULT:      -8.2      0.000      0.000
REMARK  7 active torsions:
REMARK  status: ('A' for Active; 'I' for Inactive)
REMARK    1  A    between atoms: O1_2  and  C2_3 
REMARK    2  A    between atoms: C4_5  and  C5_6 
REMARK    3  A    between atoms: C5_6  and  N1_7 
REMARK    4  A    between atoms: C9_11  and  C10_12 
REMARK    5  A    between atoms: C15_19  and  N3_20 
REMARK    6  A    between atoms: C18_24  and  O2_25 
REMARK    7  A    between atoms: C20_27  and  O3_28 
ROOT
HETATM    1  N1  UNL     1      25.055   4.001  50.599  1.00  0.00    -0.337 N 
HETATM    2  C6  UNL     1      25.787   3.079  49.910  1.00  0.00     0.094 A 
HETATM    3  C7  UNL     1      26.676   3.782  49.127  1.00  0.00     0.034 A 
HETATM    4  C8  UNL     1      26.482   5.130  49.340  1.00  0.00     0.037 A 
HETATM    5  C9  UNL     1      27.139   6.202  48.776  1.00  0.00     0.063 A 
HETATM    6  N2  UNL     1      26.677   7.408  49.227  1.00  0.00    -0.221 NA
HETATM    7  C15 UNL     1      25.685   7.519  50.128  1.00  0.00     0.201 A 
HETATM    8  N4  UNL     1      25.039   6.477  50.685  1.00  0.00    -0.200 NA
HETATM    9  C16 UNL     1      25.455   5.245  50.275  1.00  0.00     0.145 A 
ENDROOT
BRANCH   1  10
HETATM   10  C5  UNL     1      24.041   3.579  51.513  1.00  0.00     0.168 C 
BRANCH  10  11
HETATM   11  C4  UNL     1      24.422   2.396  52.339  1.00  0.00    -0.034 A 
HETATM   12  C3  UNL     1      23.559   1.338  52.303  1.00  0.00     0.048 A 
HETATM   13  C2  UNL     1      23.846   0.184  53.043  1.00  0.00     0.104 A 
HETATM   14  C20 UNL     1      25.026   0.196  53.787  1.00  0.00     0.135 A 
HETATM   15  C18 UNL     1      25.895   1.277  53.816  1.00  0.00     0.104 A 
HETATM   16  C17 UNL     1      25.594   2.402  53.082  1.00  0.00     0.048 A 
BRANCH  13  17
HETATM   17  O1  UNL     1      23.219  -1.002  53.219  1.00  0.00    -0.353 OA
HETATM   18  C1  UNL     1      22.013  -1.364  53.758  1.00  0.00     0.210 C 
ENDBRANCH  13  17
BRANCH  14  19
HETATM   19  O3  UNL     1      25.513  -0.849  54.599  1.00  0.00    -0.351 OA
HETATM   20  C21 UNL     1      25.096  -1.029  55.932  1.00  0.00     0.210 C 
ENDBRANCH  14  19
BRANCH  15  21
HETATM   21  O2  UNL     1      27.072   1.337  54.534  1.00  0.00    -0.353 OA
HETATM   22  C19 UNL     1      28.330   1.037  54.031  1.00  0.00     0.210 C 
ENDBRANCH  15  21
ENDBRANCH  10  11
ENDBRANCH   1  10
BRANCH   5  23
HETATM   23  C10 UNL     1      28.220   6.165  47.789  1.00  0.00     0.085 A 
HETATM   24  C11 UNL     1      28.636   7.453  47.229  1.00  0.00    -0.011 A 
HETATM   25  C12 UNL     1      29.892   7.707  47.554  1.00  0.00     0.016 A 
HETATM   26  C13 UNL     1      30.474   6.631  48.365  1.00  0.00     0.007 A 
HETATM   27 BR1  UNL     1      32.151   6.270  49.193  1.00  0.00    -0.051 Br
HETATM   28  C14 UNL     1      29.478   5.725  48.496  1.00  0.00     0.007 A 
ENDBRANCH   5  23
BRANCH   7  29
HETATM   29  N3  UNL     1      25.316   8.846  50.492  1.00  0.00    -0.271 NA
HETATM   30  H13 UNL     1      24.338   9.167  50.304  1.00  0.00     0.127 HD
HETATM   31  H14 UNL     1      24.408   9.346  50.389  1.00  0.00     0.127 HD
ENDBRANCH   7  29
TORSDOF 7
ENDMDL
MODEL 2
REMARK VINA RESULT:      -8.1      0.194      2.354
REMARK  7 active torsions:
REMARK  status: ('A' for Active; 'I' for Inactive)
REMARK    1  A    between atoms: O1_2  and  C2_3 
REMARK    2  A    between atoms: C4_5  and  C5_6 
REMARK    3  A    between atoms: C5_6  and  N1_7 
REMARK    4  A    between atoms: C9_11  and  C10_12 
REMARK    5  A    between atoms: C15_19  and  N3_20 
REMARK    6  A    between atoms: C18_24  and  O2_25 
REMARK    7  A    between atoms: C20_27  and  O3_28 
ROOT
HETATM    1  N1  UNL     1      25.051   3.927  50.673  1.00  0.00    -0.337 N 
HETATM    2  C6  UNL     1      25.793   3.008  49.989  1.00  0.00     0.094 A 
HETATM    3  C7  UNL     1      26.665   3.716  49.192  1.00  0.00     0.034 A 
HETATM    4  C8  UNL     1      26.452   5.062  49.391  1.00  0.00     0.037 A 
HETATM    5  C9  UNL     1      27.088   6.138  48.809  1.00  0.00     0.063 A 
HETATM    6  N2  UNL     1      26.610   7.342  49.248  1.00  0.00    -0.221 NA
HETATM    7  C15 UNL     1      25.623   7.448  50.155  1.00  0.00     0.201 A 
HETATM    8  N4  UNL     1      24.997   6.403  50.729  1.00  0.00    -0.200 NA
HETATM    9  C16 UNL     1      25.429   5.173  50.331  1.00  0.00     0.145 A 
ENDROOT
BRANCH   1  10
HETATM   10  C5  UNL     1      24.050   3.500  51.599  1.00  0.00     0.168 C 
BRANCH  10  11
HETATM   11  C4  UNL     1      24.439   2.307  52.407  1.00  0.00    -0.034 A 
HETATM   12  C3  UNL     1      25.611   2.410  53.100  1.00  0.00     0.048 A 
HETATM   13  C2  UNL     1      26.046   1.339  53.891  1.00  0.00     0.104 A 
HETATM   14  C20 UNL     1      25.227   0.208  53.916  1.00  0.00     0.135 A 
HETATM   15  C18 UNL     1      24.039   0.116  53.208  1.00  0.00     0.104 A 
HETATM   16  C17 UNL     1      23.630   1.180  52.436  1.00  0.00     0.048 A 
BRANCH  13  17
HETATM   17  O1  UNL     1      27.125   1.126  54.678  1.00  0.00    -0.353 OA
HETATM   18  C1  UNL     1      28.420   0.756  54.427  1.00  0.00     0.210 C 
ENDBRANCH  13  17
BRANCH  14  19
HETATM   19  O3  UNL     1      25.464  -0.978  54.640  1.00  0.00    -0.351 OA
HETATM   20  C21 UNL     1      24.957  -1.187  55.937  1.00  0.00     0.210 C 
ENDBRANCH  14  19
BRANCH  15  21
HETATM   21  O2  UNL     1      23.196  -0.977  53.200  1.00  0.00    -0.353 OA
HETATM   22  C19 UNL     1      21.825  -0.930  53.414  1.00  0.00     0.210 C 
ENDBRANCH  15  21
ENDBRANCH  10  11
ENDBRANCH   1  10
BRANCH   5  23
HETATM   23  C10 UNL     1      28.162   6.106  47.814  1.00  0.00     0.085 A 
HETATM   24  C11 UNL     1      28.548   7.392  47.230  1.00  0.00    -0.011 A 
HETATM   25  C12 UNL     1      29.801   7.676  47.542  1.00  0.00     0.016 A 
HETATM   26  C13 UNL     1      30.411   6.625  48.366  1.00  0.00     0.007 A 
HETATM   27 BR1  UNL     1      32.100   6.312  49.188  1.00  0.00    -0.051 Br
HETATM   28  C14 UNL     1      29.433   5.702  48.520  1.00  0.00     0.007 A 
ENDBRANCH   5  23
BRANCH   7  29
HETATM   29  N3  UNL     1      25.235   8.774  50.506  1.00  0.00    -0.271 NA
HETATM   30  H13 UNL     1      25.901   9.559  50.317  1.00  0.00     0.127 HD
HETATM   31  H14 UNL     1      25.747   9.675  50.402  1.00  0.00     0.127 HD
ENDBRANCH   7  29
TORSDOF 7
ENDMDL
MODEL 3
REMARK VINA RESULT:      -7.7      1.125      1.441
REMARK  7 active torsions:
REMARK  status: ('A' for Active; 'I' for Inactive)
REMARK    1  A    between atoms: O1_2  and  C2_3 
REMARK    2  A    between atoms: C4_5  and  C5_6 
REMARK    3  A    between atoms: C5_6  and  N1_7 
REMARK    4  A    between atoms: C9_11  and  C10_12 
REMARK    5  A    between atoms: C15_19  and  N3_20 
REMARK    6  A    between atoms: C18_24  and  O2_25 
REMARK    7  A    between atoms: C20_27  and  O3_28 
ROOT
HETATM    1  N1  UNL     1      24.811   4.834  50.448  1.00  0.00    -0.337 N 
HETATM    2  C6  UNL     1      25.323   3.793  49.729  1.00  0.00     0.094 A 
HETATM    3  C7  UNL     1      26.354   4.302  48.972  1.00  0.00     0.034 A 
HETATM    4  C8  UNL     1      26.468   5.650  49.230  1.00  0.00     0.037 A 
HETATM    5  C9  UNL     1      27.355   6.564  48.703  1.00  0.00     0.063 A 
HETATM    6  N2  UNL     1      27.173   7.828  49.193  1.00  0.00    -0.221 NA
HETATM    7  C15 UNL     1      26.224   8.131  50.095  1.00  0.00     0.201 A 
HETATM    8  N4  UNL     1      25.354   7.245  50.617  1.00  0.00    -0.200 NA
HETATM    9  C16 UNL     1      25.484   5.965  50.166  1.00  0.00     0.145 A 
ENDROOT
BRANCH   1  10
HETATM   10  C5  UNL     1      23.720   4.623  51.345  1.00  0.00     0.168 C 
BRANCH  10  11
HETATM   11  C4  UNL     1      23.618   3.226  51.861  1.00  0.00    -0.034 A 
HETATM   12  C3  UNL     1      22.506   2.528  51.486  1.00  0.00     0.048 A 
HETATM   13  C2  UNL     1      22.337   1.207  51.920  1.00  0.00     0.104 A 
HETATM   14  C20 UNL     1      23.346   0.681  52.728  1.00  0.00     0.135 A 
HETATM   15  C18 UNL     1      24.471   1.399  53.103  1.00  0.00     0.104 A 
HETATM   16  C17 UNL     1      24.618   2.697  52.666  1.00  0.00     0.048 A 
BRANCH  13  17
HETATM   17  O1  UNL     1      21.380   0.270  51.733  1.00  0.00    -0.353 OA
HETATM   18  C1  UNL     1      20.066   0.172  52.109  1.00  0.00     0.210 C 
ENDBRANCH  13  17
BRANCH  14  19
HETATM   19  O3  UNL     1      23.386  -0.619  53.274  1.00  0.00    -0.351 OA
HETATM   20  C21 UNL     1      22.783  -0.941  54.505  1.00  0.00     0.210 C 
ENDBRANCH  14  19
BRANCH  15  21
HETATM   21  O2  UNL     1      25.494   0.925  53.898  1.00  0.00    -0.353 OA
HETATM   22  C19 UNL     1      26.805   1.382  53.870  1.00  0.00     0.210 C 
ENDBRANCH  15  21
ENDBRANCH  10  11
ENDBRANCH   1  10
BRANCH   5  23
HETATM   23  C10 UNL     1      28.409   6.316  47.717  1.00  0.00     0.085 A 
HETATM   24  C11 UNL     1      28.947   7.490  47.027  1.00  0.00    -0.011 A 
HETATM   25  C12 UNL     1      30.228   7.642  47.316  1.00  0.00     0.016 A 
HETATM   26  C13 UNL     1      30.709   6.597  48.227  1.00  0.00     0.007 A 
HETATM   27 BR1  UNL     1      32.354   6.147  49.076  1.00  0.00    -0.051 Br
HETATM   28  C14 UNL     1      29.627   5.818  48.457  1.00  0.00     0.007 A 
ENDBRANCH   5  23
BRANCH   7  29
HETATM   29  N3  UNL     1      26.161   9.495  50.503  1.00  0.00    -0.271 NA
HETATM   30  H13 UNL     1      25.251   9.873  50.858  1.00  0.00     0.127 HD
HETATM   31  H14 UNL     1      25.363  10.051  50.877  1.00  0.00     0.127 HD
ENDBRANCH   7  29
TORSDOF 7
ENDMDL
MODEL 4
REMARK VINA RESULT:      -7.7      4.560      8.658
REMARK  7 active torsions:
REMARK  status: ('A' for Active; 'I' for Inactive)
REMARK    1  A    between atoms: O1_2  and  C2_3 
REMARK    2  A    between atoms: C4_5  and  C5_6 
REMARK    3  A    between atoms: C5_6  and  N1_7 
REMARK    4  A    between atoms: C9_11  and  C10_12 
REMARK    5  A    between atoms: C15_19  and  N3_20 
REMARK    6  A    between atoms: C18_24  and  O2_25 
REMARK    7  A    between atoms: C20_27  and  O3_28 
ROOT
HETATM    1  N1  UNL     1      26.638   5.709  48.884  1.00  0.00    -0.337 N 
HETATM    2  C6  UNL     1      27.285   4.513  48.765  1.00  0.00     0.094 A 
HETATM    3  C7  UNL     1      26.608   3.615  49.560  1.00  0.00     0.034 A 
HETATM    4  C8  UNL     1      25.552   4.264  50.161  1.00  0.00     0.037 A 
HETATM    5  C9  UNL     1      24.609   3.766  51.035  1.00  0.00     0.063 A 
HETATM    6  N2  UNL     1      23.702   4.709  51.433  1.00  0.00    -0.221 NA
HETATM    7  C15 UNL     1      23.738   5.983  51.007  1.00  0.00     0.201 A 
HETATM    8  N4  UNL     1      24.654   6.478  50.153  1.00  0.00    -0.200 NA
HETATM    9  C16 UNL     1      25.589   5.585  49.719  1.00  0.00     0.145 A 
ENDROOT
BRANCH   1  10
HETATM   10  C5  UNL     1      27.101   6.854  48.166  1.00  0.00     0.168 C 
BRANCH  10  11
HETATM   11  C4  UNL     1      28.533   7.190  48.417  1.00  0.00    -0.034 A 
HETATM   12  C3  UNL     1      28.781   8.459  48.856  1.00  0.00     0.048 A 
HETATM   13  C2  UNL     1      30.098   8.855  49.125  1.00  0.00     0.104 A 
HETATM   14  C20 UNL     1      31.092   7.898  48.919  1.00  0.00     0.135 A 
HETATM   15  C18 UNL     1      30.828   6.612  48.473  1.00  0.00     0.104 A 
HETATM   16  C17 UNL     1      29.527   6.243  48.215  1.00  0.00     0.048 A 
BRANCH  13  17
HETATM   17  O1  UNL     1      30.666  10.004  49.559  1.00  0.00    -0.353 OA
HETATM   18  C1  UNL     1      30.697  11.285  49.076  1.00  0.00     0.210 C 
ENDBRANCH  13  17
BRANCH  14  19
HETATM   19  O3  UNL     1      32.476   8.073  49.126  1.00  0.00    -0.351 OA
HETATM   20  C21 UNL     1      33.353   8.456  48.093  1.00  0.00     0.210 C 
ENDBRANCH  14  19
BRANCH  15  21
HETATM   21  O2  UNL     1      31.774   5.631  48.256  1.00  0.00    -0.353 OA
HETATM   22  C19 UNL     1      31.601   4.522  47.438  1.00  0.00     0.210 C 
ENDBRANCH  15  21
ENDBRANCH  10  11
ENDBRANCH   1  10
BRANCH   5  23
HETATM   23  C10 UNL     1      24.505   2.399  51.548  1.00  0.00     0.085 A 
HETATM   24  C11 UNL     1      24.150   2.259  52.962  1.00  0.00    -0.011 A 
HETATM   25  C12 UNL     1      22.987   1.641  53.080  1.00  0.00     0.016 A 
HETATM   26  C13 UNL     1      22.421   1.288  51.772  1.00  0.00     0.007 A 
HETATM   27 BR1  UNL     1      20.848   0.428  51.128  1.00  0.00    -0.051 Br
HETATM   28  C14 UNL     1      23.327   1.740  50.875  1.00  0.00     0.007 A 
ENDBRANCH   5  23
BRANCH   7  29
HETATM   29  N3  UNL     1      22.723   6.843  51.519  1.00  0.00    -0.271 NA
HETATM   30  H13 UNL     1      22.428   6.737  52.518  1.00  0.00     0.127 HD
HETATM   31  H14 UNL     1      22.298   6.894  52.468  1.00  0.00     0.127 HD
ENDBRANCH   7  29
TORSDOF 7
ENDMDL
MODEL 5
REMARK VINA RESULT:      -7.6      6.986      9.894
REMARK  7 active torsions:
REMARK  status: ('A' for Active; 'I' for Inactive)
REMARK    1  A    between atoms: O1_2  and  C2_3 
REMARK    2  A    between atoms: C4_5  and  C5_6 
REMARK    3  A    between atoms: C5_6  and  N1_7 
REMARK    4  A    between atoms: C9_11  and  C10_12 
REMARK    5  A    between atoms: C15_19  and  N3_20 
REMARK    6  A    between atoms: C18_24  and  O2_25 
REMARK    7  A    between atoms: C20_27  and  O3_28 
ROOT
HETATM    1  N1  UNL     1      31.583   9.207  48.078  1.00  0.00    -0.337 N 
HETATM    2  C6  UNL     1      31.791   9.263  46.731  1.00  0.00     0.094 A 
HETATM    3  C7  UNL     1      32.025   7.972  46.311  1.00  0.00     0.034 A 
HETATM    4  C8  UNL     1      31.961   7.134  47.402  1.00  0.00     0.037 A 
HETATM    5  C9  UNL     1      32.131   5.767  47.459  1.00  0.00     0.063 A 
HETATM    6  N2  UNL     1      31.996   5.265  48.724  1.00  0.00    -0.221 NA
HETATM    7  C15 UNL     1      31.725   6.038  49.791  1.00  0.00     0.201 A 
HETATM    8  N4  UNL     1      31.557   7.374  49.744  1.00  0.00    -0.200 NA
HETATM    9  C16 UNL     1      31.680   7.934  48.507  1.00  0.00     0.145 A 
ENDROOT
BRANCH   1  10
HETATM   10  C5  UNL     1      31.304  10.398  48.815  1.00  0.00     0.168 C 
BRANCH  10  11
HETATM   11  C4  UNL     1      29.878  10.833  48.750  1.00  0.00    -0.034 A 
HETATM   12  C3  UNL     1      29.666  12.148  48.449  1.00  0.00     0.048 A 
HETATM   13  C2  UNL     1      28.357  12.637  48.359  1.00  0.00     0.104 A 
HETATM   14  C20 UNL     1      27.330  11.720  48.591  1.00  0.00     0.135 A 
HETATM   15  C18 UNL     1      27.558  10.387  48.896  1.00  0.00     0.104 A 
HETATM   16  C17 UNL     1      28.853   9.926  48.980  1.00  0.00     0.048 A 
BRANCH  13  17
HETATM   17  O1  UNL     1      27.820  13.848  48.088  1.00  0.00    -0.353 OA
HETATM   18  C1  UNL     1      28.150  14.857  47.222  1.00  0.00     0.210 C 
ENDBRANCH  13  17
BRANCH  14  19
HETATM   19  O3  UNL     1      25.946  11.987  48.552  1.00  0.00    -0.351 OA
HETATM   20  C21 UNL     1      25.219  12.037  47.348  1.00  0.00     0.210 C 
ENDBRANCH  14  19
BRANCH  15  21
HETATM   21  O2  UNL     1      26.579   9.442  49.133  1.00  0.00    -0.353 OA
HETATM   22  C19 UNL     1      26.660   8.428  50.078  1.00  0.00     0.210 C 
ENDBRANCH  15  21
ENDBRANCH  10  11
ENDBRANCH   1  10
BRANCH   5  23
HETATM   23  C10 UNL     1      32.431   4.860  46.350  1.00  0.00     0.085 A 
HETATM   24  C11 UNL     1      33.843   4.530  46.142  1.00  0.00    -0.011 A 
HETATM   25  C12 UNL     1      34.040   3.236  46.328  1.00  0.00     0.016 A 
HETATM   26  C13 UNL     1      32.797   2.539  46.679  1.00  0.00     0.007 A 
HETATM   27 BR1  UNL     1      32.277   0.753  47.090  1.00  0.00    -0.051 Br
HETATM   28  C14 UNL     1      31.853   3.508  46.688  1.00  0.00     0.007 A 
ENDBRANCH   5  23
BRANCH   7  29
HETATM   29  N3  UNL     1      31.620   5.364  51.042  1.00  0.00    -0.271 NA
HETATM   30  H13 UNL     1      32.430   4.791  51.375  1.00  0.00     0.127 HD
HETATM   31  H14 UNL     1      32.303   4.755  51.539  1.00  0.00     0.127 HD
ENDBRANCH   7  29
TORSDOF 7
ENDMDL
MODEL 6
REMARK VINA RESULT:      -7.6      2.331      3.864
REMARK  7 active torsions:
REMARK  status: ('A' for Active; 'I' for Inactive)
REMARK    1  A    between atoms: O1_2  and  C2_3 
REMARK    2  A    between atoms: C4_5  and  C5_6 
REMARK    3  A    between atoms: C5_6  and  N1_7 
REMARK    4  A    between atoms: C9_11  and  C10_12 
REMARK    5  A    between atoms: C15_19  and  N3_20 
REMARK    6  A    between atoms: C18_24  and  O2_25 
REMARK    7  A    between atoms: C20_27  and  O3_28 
ROOT
HETATM    1  N1  UNL     1      25.567   4.739  49.212  1.00  0.00    -0.337 N 
HETATM    2  C6  UNL     1      24.673   5.727  49.506  1.00  0.00     0.094 A 
HETATM    3  C7  UNL     1      25.346   6.922  49.381  1.00  0.00     0.034 A 
HETATM    4  C8  UNL     1      26.648   6.660  49.013  1.00  0.00     0.037 A 
HETATM    5  C9  UNL     1      27.679   7.544  48.777  1.00  0.00     0.063 A 
HETATM    6  N2  UNL     1      28.846   6.921  48.429  1.00  0.00    -0.221 NA
HETATM    7  C15 UNL     1      28.958   5.585  48.331  1.00  0.00     0.201 A 
HETATM    8  N4  UNL     1      27.956   4.714  48.559  1.00  0.00    -0.200 NA
HETATM    9  C16 UNL     1      26.765   5.275  48.911  1.00  0.00     0.145 A 
ENDROOT
BRANCH   1  10
HETATM   10  C5  UNL     1      25.164   3.369  49.246  1.00  0.00     0.168 C 
BRANCH  10  11
HETATM   11  C4  UNL     1      25.303   2.729  50.587  1.00  0.00    -0.034 A 
HETATM   12  C3  UNL     1      26.578   2.577  51.050  1.00  0.00     0.048 A 
HETATM   13  C2  UNL     1      26.797   1.993  52.304  1.00  0.00     0.104 A 
HETATM   14  C20 UNL     1      25.663   1.595  53.014  1.00  0.00     0.135 A 
HETATM   15  C18 UNL     1      24.372   1.754  52.534  1.00  0.00     0.104 A 
HETATM   16  C17 UNL     1      24.179   2.330  51.298  1.00  0.00     0.048 A 
BRANCH  13  17
HETATM   17  O1  UNL     1      27.902   1.707  53.030  1.00  0.00    -0.353 OA
HETATM   18  C1  UNL     1      28.838   2.475  53.670  1.00  0.00     0.210 C 
ENDBRANCH  13  17
BRANCH  14  19
HETATM   19  O3  UNL     1      25.644   0.991  54.288  1.00  0.00    -0.351 OA
HETATM   20  C21 UNL     1      25.702  -0.405  54.465  1.00  0.00     0.210 C 
ENDBRANCH  14  19
BRANCH  15  21
HETATM   21  O2  UNL     1      23.221   1.378  53.196  1.00  0.00    -0.353 OA
HETATM   22  C19 UNL     1      22.347   0.383  52.777  1.00  0.00     0.210 C 
ENDBRANCH  15  21
ENDBRANCH  10  11
ENDBRANCH   1  10
BRANCH   5  23
HETATM   23  C10 UNL     1      27.638   9.004  48.868  1.00  0.00     0.085 A 
HETATM   24  C11 UNL     1      28.872   9.666  49.297  1.00  0.00    -0.011 A 
HETATM   25  C12 UNL     1      29.334  10.441  48.331  1.00  0.00     0.016 A 
HETATM   26  C13 UNL     1      28.474  10.401  47.142  1.00  0.00     0.007 A 
HETATM   27 BR1  UNL     1      28.463  11.198  45.412  1.00  0.00    -0.051 Br
HETATM   28  C14 UNL     1      27.476   9.550  47.470  1.00  0.00     0.007 A 
ENDBRANCH   5  23
BRANCH   7  29
HETATM   29  N3  UNL     1      30.243   5.090  47.961  1.00  0.00    -0.271 NA
HETATM   30  H13 UNL     1      30.662   5.404  47.055  1.00  0.00     0.127 HD
HETATM   31  H14 UNL     1      30.820   5.279  47.114  1.00  0.00     0.127 HD
ENDBRANCH   7  29
TORSDOF 7
ENDMDL
MODEL 7
REMARK VINA RESULT:      -7.5      2.235      2.987
REMARK  7 active torsions:
REMARK  status: ('A' for Active; 'I' for Inactive)
REMARK    1  A    between atoms: O1_2  and  C2_3 
REMARK    2  A    between atoms: C4_5  and  C5_6 
REMARK    3  A    between atoms: C5_6  and  N1_7 
REMARK    4  A    between atoms: C9_11  and  C10_12 
REMARK    5  A    between atoms: C15_19  and  N3_20 
REMARK    6  A    between atoms: C18_24  and  O2_25 
REMARK    7  A    between atoms: C20_27  and  O3_28 
ROOT
HETATM    1  N1  UNL     1      25.803   4.436  49.351  1.00  0.00    -0.337 N 
HETATM    2  C6  UNL     1      24.820   5.350  49.596  1.00  0.00     0.094 A 
HETATM    3  C7  UNL     1      25.363   6.592  49.353  1.00  0.00     0.034 A 
HETATM    4  C8  UNL     1      26.674   6.432  48.962  1.00  0.00     0.037 A 
HETATM    5  C9  UNL     1      27.603   7.392  48.620  1.00  0.00     0.063 A 
HETATM    6  N2  UNL     1      28.818   6.863  48.282  1.00  0.00    -0.221 NA
HETATM    7  C15 UNL     1      29.065   5.542  48.287  1.00  0.00     0.201 A 
HETATM    8  N4  UNL     1      28.164   4.596  48.619  1.00  0.00    -0.200 NA
HETATM    9  C16 UNL     1      26.931   5.062  48.967  1.00  0.00     0.145 A 
ENDROOT
BRANCH   1  10
HETATM   10  C5  UNL     1      25.545   3.040  49.509  1.00  0.00     0.168 C 
BRANCH  10  11
HETATM   11  C4  UNL     1      25.661   2.555  50.916  1.00  0.00    -0.034 A 
HETATM   12  C3  UNL     1      24.527   2.027  51.463  1.00  0.00     0.048 A 
HETATM   13  C2  UNL     1      24.552   1.541  52.776  1.00  0.00     0.104 A 
HETATM   14  C20 UNL     1      25.769   1.634  53.454  1.00  0.00     0.135 A 
HETATM   15  C18 UNL     1      26.914   2.173  52.888  1.00  0.00     0.104 A 
HETATM   16  C17 UNL     1      26.868   2.645  51.596  1.00  0.00     0.048 A 
BRANCH  13  17
HETATM   17  O1  UNL     1      23.631   0.974  53.588  1.00  0.00    -0.353 OA
HETATM   18  C1  UNL     1      22.865  -0.159  53.504  1.00  0.00     0.210 C 
ENDBRANCH  13  17
BRANCH  14  19
HETATM   19  O3  UNL     1      26.024   1.209  54.774  1.00  0.00    -0.351 OA
HETATM   20  C21 UNL     1      26.280  -0.137  55.100  1.00  0.00     0.210 C 
ENDBRANCH  14  19
BRANCH  15  21
HETATM   21  O2  UNL     1      28.138   2.286  53.515  1.00  0.00    -0.353 OA
HETATM   22  C19 UNL     1      29.153   1.340  53.463  1.00  0.00     0.210 C 
ENDBRANCH  15  21
ENDBRANCH  10  11
ENDBRANCH   1  10
BRANCH   5  23
HETATM   23  C10 UNL     1      27.414   8.844  48.595  1.00  0.00     0.085 A 
HETATM   24  C11 UNL     1      28.239   9.625  49.520  1.00  0.00    -0.011 A 
HETATM   25  C12 UNL     1      29.047  10.425  48.845  1.00  0.00     0.016 A 
HETATM   26  C13 UNL     1      28.866  10.286  47.394  1.00  0.00     0.007 A 
HETATM   27 BR1  UNL     1      29.623  11.052  45.823  1.00  0.00    -0.051 Br
HETATM   28  C14 UNL     1      27.899   9.351  47.259  1.00  0.00     0.007 A 
ENDBRANCH   5  23
BRANCH   7  29
HETATM   29  N3  UNL     1      30.383   5.150  47.914  1.00  0.00    -0.271 NA
HETATM   30  H13 UNL     1      30.696   5.311  46.928  1.00  0.00     0.127 HD
HETATM   31  H14 UNL     1      30.874   5.223  46.998  1.00  0.00     0.127 HD
ENDBRANCH   7  29
TORSDOF 7
ENDMDL
MODEL 8
REMARK VINA RESULT:      -7.4      4.090      7.980
REMARK  7 active torsions:
REMARK  status: ('A' for Active; 'I' for Inactive)
REMARK    1  A    between atoms: O1_2  and  C2_3 
REMARK    2  A    between atoms: C4_5  and  C5_6 
REMARK    3  A    between atoms: C5_6  and  N1_7 
REMARK    4  A    between atoms: C9_11  and  C10_12 
REMARK    5  A    between atoms: C15_19  and  N3_20 
REMARK    6  A    between atoms: C18_24  and  O2_25 
REMARK    7  A    between atoms: C20_27  and  O3_28 
ROOT
HETATM    1  N1  UNL     1      25.889   4.561  49.591  1.00  0.00    -0.337 N 
HETATM    2  C6  UNL     1      26.763   3.515  49.516  1.00  0.00     0.094 A 
HETATM    3  C7  UNL     1      26.470   2.675  50.567  1.00  0.00     0.034 A 
HETATM    4  C8  UNL     1      25.419   3.210  51.280  1.00  0.00     0.037 A 
HETATM    5  C9  UNL     1      24.793   2.719  52.406  1.00  0.00     0.063 A 
HETATM    6  N2  UNL     1      23.780   3.524  52.847  1.00  0.00    -0.221 NA
HETATM    7  C15 UNL     1      23.442   4.673  52.235  1.00  0.00     0.201 A 
HETATM    8  N4  UNL     1      24.047   5.160  51.135  1.00  0.00    -0.200 NA
HETATM    9  C16 UNL     1      25.068   4.400  50.646  1.00  0.00     0.145 A 
ENDROOT
BRANCH   1  10
HETATM   10  C5  UNL     1      25.936   5.610  48.624  1.00  0.00     0.168 C 
BRANCH  10  11
HETATM   11  C4  UNL     1      27.222   6.367  48.609  1.00  0.00    -0.034 A 
HETATM   12  C3  UNL     1      28.323   5.668  48.202  1.00  0.00     0.048 A 
HETATM   13  C2  UNL     1      29.569   6.305  48.150  1.00  0.00     0.104 A 
HETATM   14  C20 UNL     1      29.600   7.648  48.529  1.00  0.00     0.135 A 
HETATM   15  C18 UNL     1      28.476   8.348  48.941  1.00  0.00     0.104 A 
HETATM   16  C17 UNL     1      27.260   7.702  48.985  1.00  0.00     0.048 A 
BRANCH  13  17
HETATM   17  O1  UNL     1      30.815   5.910  47.803  1.00  0.00    -0.353 OA
HETATM   18  C1  UNL     1      31.366   4.702  47.469  1.00  0.00     0.210 C 
ENDBRANCH  13  17
BRANCH  14  19
HETATM   19  O3  UNL     1      30.736   8.484  48.553  1.00  0.00    -0.351 OA
HETATM   20  C21 UNL     1      31.681   8.446  49.596  1.00  0.00     0.210 C 
ENDBRANCH  14  19
BRANCH  15  21
HETATM   21  O2  UNL     1      28.454   9.673  49.325  1.00  0.00    -0.353 OA
HETATM   22  C19 UNL     1      27.953  10.718  48.560  1.00  0.00     0.210 C 
ENDBRANCH  15  21
ENDBRANCH  10  11
ENDBRANCH   1  10
BRANCH   5  23
HETATM   23  C10 UNL     1      25.105   1.485  53.131  1.00  0.00     0.085 A 
HETATM   24  C11 UNL     1      25.389   0.303  52.315  1.00  0.00    -0.011 A 
HETATM   25  C12 UNL     1      26.632  -0.099  52.513  1.00  0.00     0.016 A 
HETATM   26  C13 UNL     1      27.334   0.753  53.481  1.00  0.00     0.007 A 
HETATM   27 BR1  UNL     1      29.073   0.830  54.256  1.00  0.00    -0.051 Br
HETATM   28  C14 UNL     1      26.422   1.685  53.840  1.00  0.00     0.007 A 
ENDBRANCH   5  23
BRANCH   7  29
HETATM   29  N3  UNL     1      22.365   5.400  52.821  1.00  0.00    -0.271 NA
HETATM   30  H13 UNL     1      21.453   4.911  52.978  1.00  0.00     0.127 HD
HETATM   31  H14 UNL     1      21.395   5.099  53.054  1.00  0.00     0.127 HD
ENDBRANCH   7  29
TORSDOF 7
ENDMDL
MODEL 9
REMARK VINA RESULT:      -7.4      4.588      8.802
REMARK  7 active torsions:
REMARK  status: ('A' for Active; 'I' for Inactive)
REMARK    1  A    between atoms: O1_2  and  C2_3 
REMARK    2  A    between atoms: C4_5  and  C5_6 
REMARK    3  A    between atoms: C5_6  and  N1_7 
REMARK    4  A    between atoms: C9_11  and  C10_12 
REMARK    5  A    between atoms: C15_19  and  N3_20 
REMARK    6  A    between atoms: C18_24  and  O2_25 
REMARK    7  A    between atoms: C20_27  and  O3_28 
ROOT
HETATM    1  N1  UNL     1      26.193   6.003  48.837  1.00  0.00    -0.337 N 
HETATM    2  C6  UNL     1      27.166   5.087  48.559  1.00  0.00     0.094 A 
HETATM    3  C7  UNL     1      26.935   4.002  49.374  1.00  0.00     0.034 A 
HETATM    4  C8  UNL     1      25.823   4.257  50.146  1.00  0.00     0.037 A 
HETATM    5  C9  UNL     1      25.226   3.461  51.100  1.00  0.00     0.063 A 
HETATM    6  N2  UNL     1      24.129   4.046  51.672  1.00  0.00    -0.221 NA
HETATM    7  C15 UNL     1      23.693   5.270  51.328  1.00  0.00     0.201 A 
HETATM    8  N4  UNL     1      24.269   6.054  50.397  1.00  0.00    -0.200 NA
HETATM    9  C16 UNL     1      25.370   5.526  49.790  1.00  0.00     0.145 A 
ENDROOT
BRANCH   1  10
HETATM   10  C5  UNL     1      26.156   7.249  48.141  1.00  0.00     0.168 C 
BRANCH  10  11
HETATM   11  C4  UNL     1      27.286   8.165  48.475  1.00  0.00    -0.034 A 
HETATM   12  C3  UNL     1      26.955   9.474  48.678  1.00  0.00     0.048 A 
HETATM   13  C2  UNL     1      27.955  10.400  49.005  1.00  0.00     0.104 A 
HETATM   14  C20 UNL     1      29.256   9.905  49.101  1.00  0.00     0.135 A 
HETATM   15  C18 UNL     1      29.580   8.573  48.892  1.00  0.00     0.104 A 
HETATM   16  C17 UNL     1      28.582   7.680  48.572  1.00  0.00     0.048 A 
BRANCH  13  17
HETATM   17  O1  UNL     1      27.961  11.728  49.261  1.00  0.00    -0.353 OA
HETATM   18  C1  UNL     1      27.757  12.841  48.491  1.00  0.00     0.210 C 
ENDBRANCH  13  17
BRANCH  14  19
HETATM   19  O3  UNL     1      30.412  10.649  49.417  1.00  0.00    -0.351 OA
HETATM   20  C21 UNL     1      31.177  11.312  48.439  1.00  0.00     0.210 C 
ENDBRANCH  14  19
BRANCH  15  21
HETATM   21  O2  UNL     1      30.849   8.036  48.976  1.00  0.00    -0.353 OA
HETATM   22  C19 UNL     1      31.419   7.184  48.040  1.00  0.00     0.210 C 
ENDBRANCH  15  21
ENDBRANCH  10  11
ENDBRANCH   1  10
BRANCH   5  23
HETATM   23  C10 UNL     1      25.641   2.126  51.533  1.00  0.00     0.085 A 
HETATM   24  C11 UNL     1      26.328   2.043  52.824  1.00  0.00    -0.011 A 
HETATM   25  C12 UNL     1      25.612   1.328  53.675  1.00  0.00     0.016 A 
HETATM   26  C13 UNL     1      24.367   0.842  53.068  1.00  0.00     0.007 A 
HETATM   27 BR1  UNL     1      22.871  -0.200  53.619  1.00  0.00    -0.051 Br
HETATM   28  C14 UNL     1      24.395   1.318  51.802  1.00  0.00     0.007 A 
ENDBRANCH   5  23
BRANCH   7  29
HETATM   29  N3  UNL     1      22.538   5.740  52.020  1.00  0.00    -0.271 NA
HETATM   30  H13 UNL     1      21.726   5.091  52.143  1.00  0.00     0.127 HD
HETATM   31  H14 UNL     1      21.642   5.258  52.242  1.00  0.00     0.127 HD
ENDBRANCH   7  29
TORSDOF 7
ENDMDL
