MODEL 1
REMARK VINA RESULT:      -7.1      0.000      0.000
REMARK  7 active torsions:
REMARK  status: ('A' for Active; 'I' for Inactive)
REMARK    1  A    between atoms: C2_2  and  N1_3 
REMARK    2  A    between atoms: C4_7  and  N4_8 
REMARK    3  A    between atoms: N4_8  and  C5_9 
REMARK    4  A    between atoms: C6_10  and  C7_11 
REMARK    5  A    between atoms: C8_12  and  C9_13 
REMARK    6  A    between atoms: C11_17  and  C12_18 
REMARK    7  A    between atoms: C12_18  and  N6_19 
ROOT
HETATM    1  N1  UNL     1      25.210  -0.618  53.854  1.00  0.00    -0.231 N 
HETATM    2  N2  UNL     1      25.274  -1.040  55.208  1.00  0.00    -0.159 NA
HETATM    3  C3  UNL     1      24.280  -1.444  55.957  1.00  0.00     0.275 C 
HETATM    4  N3  UNL     1      22.905  -1.576  55.658  1.00  0.00    -0.056 NA
HETATM    5  C4  UNL     1      22.229  -1.182  54.639  1.00  0.00     0.707 C 
HETATM    6  N5  UNL     1      22.699  -0.471  53.476  1.00  0.00    -0.173 N 
HETATM    7  C10 UNL     1      24.052  -0.071  53.237  1.00  0.00     0.141 C 
HETATM    8  C11 UNL     1      24.217   0.902  52.370  1.00  0.00     0.054 C 
HETATM    9  H12 UNL     1      21.984  -0.232  52.751  1.00  0.00     0.186 HD
ENDROOT
BRANCH   5  10
HETATM   10  N4  UNL     1      20.842  -1.477  54.643  1.00  0.00    -0.200 N 
HETATM   11  H5  UNL     1      20.452  -1.887  55.526  1.00  0.00     0.183 HD
BRANCH  10  12
HETATM   12  C5  UNL     1      20.076  -1.207  53.480  1.00  0.00     0.106 C 
HETATM   13  C6  UNL     1      19.278  -0.184  53.227  1.00  0.00     0.017 C 
BRANCH  13  14
HETATM   14  C7  UNL     1      18.606  -0.155  51.938  1.00  0.00    -0.000 C 
HETATM   15  C8  UNL     1      19.156   0.446  50.898  1.00  0.00     0.004 C 
BRANCH  15  16
HETATM   16  C9  UNL     1      20.448   1.162  50.783  1.00  0.00     0.249 C 
HETATM   17  F1  UNL     1      21.427   0.207  50.515  1.00  0.00    -0.251 F 
ENDBRANCH  15  16
ENDBRANCH  13  14
ENDBRANCH  10  12
ENDBRANCH   5  10
BRANCH   1  18
HETATM   18  C2  UNL     1      26.348  -0.722  52.974  1.00  0.00     0.094 C 
HETATM   19  C1  UNL     1      26.949  -1.844  52.550  1.00  0.00     0.052 C 
ENDBRANCH   1  18
BRANCH   8  20
HETATM   20  C12 UNL     1      25.228   1.745  51.712  1.00  0.00     0.303 C 
BRANCH  20  21
HETATM   21  N6  UNL     1      24.648   3.078  51.488  1.00  0.00     0.091 N 
HETATM   22  C13 UNL     1      23.729   2.937  50.381  1.00  0.00     0.272 C 
HETATM   23  C14 UNL     1      22.794   4.093  50.202  1.00  0.00     0.030 C 
HETATM   24  C15 UNL     1      22.213   4.629  51.477  1.00  0.00     0.003 C 
HETATM   25  C16 UNL     1      23.346   4.850  52.452  1.00  0.00     0.030 C 
HETATM   26  C17 UNL     1      23.994   3.518  52.703  1.00  0.00     0.272 C 
ENDBRANCH  20  21
ENDBRANCH   8  20
TORSDOF 7
ENDMDL
MODEL 2
REMARK VINA RESULT:      -6.9      4.035      8.126
REMARK  7 active torsions:
REMARK  status: ('A' for Active; 'I' for Inactive)
REMARK    1  A    between atoms: C2_2  and  N1_3 
REMARK    2  A    between atoms: C4_7  and  N4_8 
REMARK    3  A    between atoms: N4_8  and  C5_9 
REMARK    4  A    between atoms: C6_10  and  C7_11 
REMARK    5  A    between atoms: C8_12  and  C9_13 
REMARK    6  A    between atoms: C11_17  and  C12_18 
REMARK    7  A    between atoms: C12_18  and  N6_19 
ROOT
HETATM    1  N1  UNL     1      24.021   2.326  51.625  1.00  0.00    -0.231 N 
HETATM    2  N2  UNL     1      23.529   3.657  51.644  1.00  0.00    -0.159 NA
HETATM    3  C3  UNL     1      24.068   4.707  51.078  1.00  0.00     0.275 C 
HETATM    4  N3  UNL     1      25.250   4.826  50.313  1.00  0.00    -0.056 NA
HETATM    5  C4  UNL     1      26.201   3.986  50.105  1.00  0.00     0.707 C 
HETATM    6  N5  UNL     1      26.332   2.642  50.611  1.00  0.00    -0.173 N 
HETATM    7  C10 UNL     1      25.389   1.977  51.458  1.00  0.00     0.141 C 
HETATM    8  C11 UNL     1      25.855   0.958  52.143  1.00  0.00     0.054 C 
HETATM    9  H12 UNL     1      27.192   2.117  50.330  1.00  0.00     0.186 HD
ENDROOT
BRANCH   5  10
HETATM   10  N4  UNL     1      27.263   4.422  49.274  1.00  0.00    -0.200 N 
HETATM   11  H5  UNL     1      28.090   3.781  49.194  1.00  0.00     0.183 HD
BRANCH  10  12
HETATM   12  C5  UNL     1      27.153   5.671  48.611  1.00  0.00     0.106 C 
HETATM   13  C6  UNL     1      28.108   6.444  48.123  1.00  0.00     0.017 C 
BRANCH  13  14
HETATM   14  C7  UNL     1      27.710   7.689  47.486  1.00  0.00    -0.000 C 
HETATM   15  C8  UNL     1      27.833   8.844  48.116  1.00  0.00     0.004 C 
BRANCH  15  16
HETATM   16  C9  UNL     1      28.347   9.140  49.473  1.00  0.00     0.249 C 
HETATM   17  F1  UNL     1      27.358   8.765  50.380  1.00  0.00    -0.251 F 
ENDBRANCH  15  16
ENDBRANCH  13  14
ENDBRANCH  10  12
ENDBRANCH   5  10
BRANCH   1  18
HETATM   18  C2  UNL     1      23.143   1.190  51.775  1.00  0.00     0.094 C 
HETATM   19  C1  UNL     1      21.825   1.210  52.025  1.00  0.00     0.052 C 
ENDBRANCH   1  18
BRANCH   8  20
HETATM   20  C12 UNL     1      25.490  -0.078  53.122  1.00  0.00     0.303 C 
BRANCH  20  21
HETATM   21  N6  UNL     1      26.715  -0.530  53.799  1.00  0.00     0.091 N 
HETATM   22  C13 UNL     1      27.432  -1.337  52.838  1.00  0.00     0.272 C 
HETATM   23  C14 UNL     1      28.855  -1.624  53.210  1.00  0.00     0.030 C 
HETATM   24  C15 UNL     1      29.601  -0.451  53.776  1.00  0.00     0.003 C 
HETATM   25  C16 UNL     1      28.752   0.164  54.864  1.00  0.00     0.030 C 
HETATM   26  C17 UNL     1      27.470   0.627  54.231  1.00  0.00     0.272 C 
ENDBRANCH  20  21
ENDBRANCH   8  20
TORSDOF 7
ENDMDL
MODEL 3
REMARK VINA RESULT:      -6.9      2.300      4.298
REMARK  7 active torsions:
REMARK  status: ('A' for Active; 'I' for Inactive)
REMARK    1  A    between atoms: C2_2  and  N1_3 
REMARK    2  A    between atoms: C4_7  and  N4_8 
REMARK    3  A    between atoms: N4_8  and  C5_9 
REMARK    4  A    between atoms: C6_10  and  C7_11 
REMARK    5  A    between atoms: C8_12  and  C9_13 
REMARK    6  A    between atoms: C11_17  and  C12_18 
REMARK    7  A    between atoms: C12_18  and  N6_19 
ROOT
HETATM    1  N1  UNL     1      26.535   2.464  51.702  1.00  0.00    -0.231 N 
HETATM    2  N2  UNL     1      27.813   2.564  52.312  1.00  0.00    -0.159 NA
HETATM    3  C3  UNL     1      28.236   1.919  53.369  1.00  0.00     0.275 C 
HETATM    4  N3  UNL     1      27.578   0.972  54.185  1.00  0.00    -0.056 NA
HETATM    5  C4  UNL     1      26.345   0.611  54.221  1.00  0.00     0.707 C 
HETATM    6  N5  UNL     1      25.251   1.087  53.411  1.00  0.00    -0.173 N 
HETATM    7  C10 UNL     1      25.348   2.076  52.381  1.00  0.00     0.141 C 
HETATM    8  C11 UNL     1      24.226   2.674  52.055  1.00  0.00     0.054 C 
HETATM    9  H12 UNL     1      24.311   0.669  53.601  1.00  0.00     0.186 HD
ENDROOT
BRANCH   5  10
HETATM   10  N4  UNL     1      26.001  -0.382  55.173  1.00  0.00    -0.200 N 
HETATM   11  H5  UNL     1      26.673  -0.526  55.966  1.00  0.00     0.183 HD
BRANCH  10  12
HETATM   12  C5  UNL     1      24.794  -1.108  55.006  1.00  0.00     0.106 C 
HETATM   13  C6  UNL     1      23.681  -1.051  55.718  1.00  0.00     0.017 C 
BRANCH  13  14
HETATM   14  C7  UNL     1      22.582  -1.917  55.323  1.00  0.00    -0.000 C 
HETATM   15  C8  UNL     1      21.563  -1.446  54.626  1.00  0.00     0.004 C 
BRANCH  15  16
HETATM   16  C9  UNL     1      21.303  -0.078  54.122  1.00  0.00     0.249 C 
HETATM   17  F1  UNL     1      20.553   0.584  55.092  1.00  0.00    -0.251 F 
ENDBRANCH  15  16
ENDBRANCH  13  14
ENDBRANCH  10  12
ENDBRANCH   5  10
BRANCH   1  18
HETATM   18  C2  UNL     1      26.339   2.753  50.301  1.00  0.00     0.094 C 
HETATM   19  C1  UNL     1      26.838   3.787  49.608  1.00  0.00     0.052 C 
ENDBRANCH   1  18
BRANCH   8  20
HETATM   20  C12 UNL     1      23.641   3.699  51.174  1.00  0.00     0.303 C 
BRANCH  20  21
HETATM   21  N6  UNL     1      22.371   3.183  50.642  1.00  0.00     0.091 N 
HETATM   22  C13 UNL     1      22.718   2.102  49.747  1.00  0.00     0.272 C 
HETATM   23  C14 UNL     1      21.565   1.231  49.353  1.00  0.00     0.030 C 
HETATM   24  C15 UNL     1      20.631   0.886  50.475  1.00  0.00     0.003 C 
HETATM   25  C16 UNL     1      20.269   2.164  51.194  1.00  0.00     0.030 C 
HETATM   26  C17 UNL     1      21.538   2.750  51.744  1.00  0.00     0.272 C 
ENDBRANCH  20  21
ENDBRANCH   8  20
TORSDOF 7
ENDMDL
MODEL 4
REMARK VINA RESULT:      -6.9      3.309      7.421
REMARK  7 active torsions:
REMARK  status: ('A' for Active; 'I' for Inactive)
REMARK    1  A    between atoms: C2_2  and  N1_3 
REMARK    2  A    between atoms: C4_7  and  N4_8 
REMARK    3  A    between atoms: N4_8  and  C5_9 
REMARK    4  A    between atoms: C6_10  and  C7_11 
REMARK    5  A    between atoms: C8_12  and  C9_13 
REMARK    6  A    between atoms: C11_17  and  C12_18 
REMARK    7  A    between atoms: C12_18  and  N6_19 
ROOT
HETATM    1  N1  UNL     1      22.595   2.776  51.430  1.00  0.00    -0.231 N 
HETATM    2  N2  UNL     1      21.418   3.569  51.459  1.00  0.00    -0.159 NA
HETATM    3  C3  UNL     1      21.346   4.875  51.501  1.00  0.00     0.275 C 
HETATM    4  N3  UNL     1      22.373   5.845  51.530  1.00  0.00    -0.056 NA
HETATM    5  C4  UNL     1      23.641   5.718  51.693  1.00  0.00     0.707 C 
HETATM    6  N5  UNL     1      24.398   4.507  51.898  1.00  0.00    -0.173 N 
HETATM    7  C10 UNL     1      23.853   3.185  51.951  1.00  0.00     0.141 C 
HETATM    8  C11 UNL     1      24.596   2.283  52.549  1.00  0.00     0.054 C 
HETATM    9  H12 UNL     1      25.432   4.615  52.018  1.00  0.00     0.186 HD
ENDROOT
BRANCH   5  10
HETATM   10  N4  UNL     1      24.409   6.910  51.670  1.00  0.00    -0.200 N 
HETATM   11  H5  UNL     1      24.441   7.465  52.559  1.00  0.00     0.183 HD
BRANCH  10  12
HETATM   12  C5  UNL     1      25.075   7.277  50.473  1.00  0.00     0.106 C 
HETATM   13  C6  UNL     1      25.994   6.614  49.793  1.00  0.00     0.017 C 
BRANCH  13  14
HETATM   14  C7  UNL     1      26.517   7.230  48.584  1.00  0.00    -0.000 C 
HETATM   15  C8  UNL     1      27.613   6.771  48.007  1.00  0.00     0.004 C 
BRANCH  15  16
HETATM   16  C9  UNL     1      28.493   5.643  48.392  1.00  0.00     0.249 C 
HETATM   17  F1  UNL     1      27.736   4.477  48.295  1.00  0.00    -0.251 F 
ENDBRANCH  15  16
ENDBRANCH  13  14
ENDBRANCH  10  12
ENDBRANCH   5  10
BRANCH   1  18
HETATM   18  C2  UNL     1      22.605   1.455  50.847  1.00  0.00     0.094 C 
HETATM   19  C1  UNL     1      21.564   0.621  50.708  1.00  0.00     0.052 C 
ENDBRANCH   1  18
BRANCH   8  20
HETATM   20  C12 UNL     1      24.655   0.865  52.941  1.00  0.00     0.303 C 
BRANCH  20  21
HETATM   21  N6  UNL     1      25.994   0.350  52.622  1.00  0.00     0.091 N 
HETATM   22  C13 UNL     1      26.934   1.301  53.171  1.00  0.00     0.272 C 
HETATM   23  C14 UNL     1      28.346   0.806  53.243  1.00  0.00     0.030 C 
HETATM   24  C15 UNL     1      28.486  -0.610  53.719  1.00  0.00     0.003 C 
HETATM   25  C16 UNL     1      27.532  -1.470  52.923  1.00  0.00     0.030 C 
HETATM   26  C17 UNL     1      26.141  -0.973  53.194  1.00  0.00     0.272 C 
ENDBRANCH  20  21
ENDBRANCH   8  20
TORSDOF 7
ENDMDL
MODEL 5
REMARK VINA RESULT:      -6.8      2.486      5.482
REMARK  7 active torsions:
REMARK  status: ('A' for Active; 'I' for Inactive)
REMARK    1  A    between atoms: C2_2  and  N1_3 
REMARK    2  A    between atoms: C4_7  and  N4_8 
REMARK    3  A    between atoms: N4_8  and  C5_9 
REMARK    4  A    between atoms: C6_10  and  C7_11 
REMARK    5  A    between atoms: C8_12  and  C9_13 
REMARK    6  A    between atoms: C11_17  and  C12_18 
REMARK    7  A    between atoms: C12_18  and  N6_19 
ROOT
HETATM    1  N1  UNL     1      24.372   3.197  50.018  1.00  0.00    -0.231 N 
HETATM    2  N2  UNL     1      23.647   3.122  48.800  1.00  0.00    -0.159 NA
HETATM    3  C3  UNL     1      22.446   2.632  48.626  1.00  0.00     0.275 C 
HETATM    4  N3  UNL     1      21.551   2.055  49.555  1.00  0.00    -0.056 NA
HETATM    5  C4  UNL     1      21.727   1.701  50.778  1.00  0.00     0.707 C 
HETATM    6  N5  UNL     1      22.927   1.795  51.571  1.00  0.00    -0.173 N 
HETATM    7  C10 UNL     1      24.179   2.327  51.125  1.00  0.00     0.141 C 
HETATM    8  C11 UNL     1      25.235   1.955  51.810  1.00  0.00     0.054 C 
HETATM    9  H12 UNL     1      22.869   1.442  52.554  1.00  0.00     0.186 HD
ENDROOT
BRANCH   5  10
HETATM   10  N4  UNL     1      20.607   1.144  51.446  1.00  0.00    -0.200 N 
HETATM   11  H5  UNL     1      19.665   1.522  51.180  1.00  0.00     0.183 HD
BRANCH  10  12
HETATM   12  C5  UNL     1      20.817   0.130  52.415  1.00  0.00     0.106 C 
HETATM   13  C6  UNL     1      20.918   0.240  53.729  1.00  0.00     0.017 C 
BRANCH  13  14
HETATM   14  C7  UNL     1      21.136  -0.978  54.494  1.00  0.00    -0.000 C 
HETATM   15  C8  UNL     1      22.357  -1.379  54.799  1.00  0.00     0.004 C 
BRANCH  15  16
HETATM   16  C9  UNL     1      23.669  -0.768  54.483  1.00  0.00     0.249 C 
HETATM   17  F1  UNL     1      23.905  -0.978  53.126  1.00  0.00    -0.251 F 
ENDBRANCH  15  16
ENDBRANCH  13  14
ENDBRANCH  10  12
ENDBRANCH   5  10
BRANCH   1  18
HETATM   18  C2  UNL     1      25.390   4.198  50.233  1.00  0.00     0.094 C 
HETATM   19  C1  UNL     1      26.210   4.733  49.316  1.00  0.00     0.052 C 
ENDBRANCH   1  18
BRANCH   8  20
HETATM   20  C12 UNL     1      26.699   2.091  51.900  1.00  0.00     0.303 C 
BRANCH  20  21
HETATM   21  N6  UNL     1      27.190   1.160  52.926  1.00  0.00     0.091 N 
HETATM   22  C13 UNL     1      27.071  -0.165  52.359  1.00  0.00     0.272 C 
HETATM   23  C14 UNL     1      27.816  -1.227  53.107  1.00  0.00     0.030 C 
HETATM   24  C15 UNL     1      29.188  -0.825  53.562  1.00  0.00     0.003 C 
HETATM   25  C16 UNL     1      29.078   0.510  54.260  1.00  0.00     0.030 C 
HETATM   26  C17 UNL     1      28.557   1.503  53.260  1.00  0.00     0.272 C 
ENDBRANCH  20  21
ENDBRANCH   8  20
TORSDOF 7
ENDMDL
MODEL 6
REMARK VINA RESULT:      -6.7      2.695      3.247
REMARK  7 active torsions:
REMARK  status: ('A' for Active; 'I' for Inactive)
REMARK    1  A    between atoms: C2_2  and  N1_3 
REMARK    2  A    between atoms: C4_7  and  N4_8 
REMARK    3  A    between atoms: N4_8  and  C5_9 
REMARK    4  A    between atoms: C6_10  and  C7_11 
REMARK    5  A    between atoms: C8_12  and  C9_13 
REMARK    6  A    between atoms: C11_17  and  C12_18 
REMARK    7  A    between atoms: C12_18  and  N6_19 
ROOT
HETATM    1  N1  UNL     1      24.154  -0.249  53.835  1.00  0.00    -0.231 N 
HETATM    2  N2  UNL     1      23.956  -1.105  54.950  1.00  0.00    -0.159 NA
HETATM    3  C3  UNL     1      22.818  -1.576  55.392  1.00  0.00     0.275 C 
HETATM    4  N3  UNL     1      21.502  -1.382  54.914  1.00  0.00    -0.056 NA
HETATM    5  C4  UNL     1      21.043  -0.568  54.032  1.00  0.00     0.707 C 
HETATM    6  N5  UNL     1      21.767   0.409  53.256  1.00  0.00    -0.173 N 
HETATM    7  C10 UNL     1      23.176   0.649  53.327  1.00  0.00     0.141 C 
HETATM    8  C11 UNL     1      23.580   1.817  52.885  1.00  0.00     0.054 C 
HETATM    9  H12 UNL     1      21.205   0.987  52.589  1.00  0.00     0.186 HD
ENDROOT
BRANCH   5  10
HETATM   10  N4  UNL     1      19.649  -0.625  53.778  1.00  0.00    -0.200 N 
HETATM   11  H5  UNL     1      19.178   0.281  53.537  1.00  0.00     0.183 HD
BRANCH  10  12
HETATM   12  C5  UNL     1      18.985  -1.875  53.860  1.00  0.00     0.106 C 
HETATM   13  C6  UNL     1      17.785  -2.212  53.419  1.00  0.00     0.017 C 
BRANCH  13  14
HETATM   14  C7  UNL     1      17.343  -3.579  53.639  1.00  0.00    -0.000 C 
HETATM   15  C8  UNL     1      16.198  -4.012  53.141  1.00  0.00     0.004 C 
BRANCH  15  16
HETATM   16  C9  UNL     1      15.185  -3.304  52.324  1.00  0.00     0.249 C 
HETATM   17  F1  UNL     1      14.736  -4.200  51.357  1.00  0.00    -0.251 F 
ENDBRANCH  15  16
ENDBRANCH  13  14
ENDBRANCH  10  12
ENDBRANCH   5  10
BRANCH   1  18
HETATM   18  C2  UNL     1      25.400  -0.228  53.107  1.00  0.00     0.094 C 
HETATM   19  C1  UNL     1      26.624  -0.500  53.584  1.00  0.00     0.052 C 
ENDBRANCH   1  18
BRANCH   8  20
HETATM   20  C12 UNL     1      24.769   2.663  52.685  1.00  0.00     0.303 C 
BRANCH  20  21
HETATM   21  N6  UNL     1      24.958   2.864  51.241  1.00  0.00     0.091 N 
HETATM   22  C13 UNL     1      24.241   4.073  50.905  1.00  0.00     0.272 C 
HETATM   23  C14 UNL     1      24.573   4.635  49.556  1.00  0.00     0.030 C 
HETATM   24  C15 UNL     1      26.033   4.618  49.215  1.00  0.00     0.003 C 
HETATM   25  C16 UNL     1      26.564   3.230  49.493  1.00  0.00     0.030 C 
HETATM   26  C17 UNL     1      26.376   2.960  50.959  1.00  0.00     0.272 C 
ENDBRANCH  20  21
ENDBRANCH   8  20
TORSDOF 7
ENDMDL
MODEL 7
REMARK VINA RESULT:      -6.7      1.821      2.280
REMARK  7 active torsions:
REMARK  status: ('A' for Active; 'I' for Inactive)
REMARK    1  A    between atoms: C2_2  and  N1_3 
REMARK    2  A    between atoms: C4_7  and  N4_8 
REMARK    3  A    between atoms: N4_8  and  C5_9 
REMARK    4  A    between atoms: C6_10  and  C7_11 
REMARK    5  A    between atoms: C8_12  and  C9_13 
REMARK    6  A    between atoms: C11_17  and  C12_18 
REMARK    7  A    between atoms: C12_18  and  N6_19 
ROOT
HETATM    1  N1  UNL     1      25.185  -0.559  54.194  1.00  0.00    -0.231 N 
HETATM    2  N2  UNL     1      25.088  -1.245  55.433  1.00  0.00    -0.159 NA
HETATM    3  C3  UNL     1      24.001  -1.705  55.998  1.00  0.00     0.275 C 
HETATM    4  N3  UNL     1      22.657  -1.659  55.564  1.00  0.00    -0.056 NA
HETATM    5  C4  UNL     1      22.111  -1.015  54.595  1.00  0.00     0.707 C 
HETATM    6  N5  UNL     1      22.739  -0.129  53.646  1.00  0.00    -0.173 N 
HETATM    7  C10 UNL     1      24.133   0.196  53.609  1.00  0.00     0.141 C 
HETATM    8  C11 UNL     1      24.444   1.304  52.977  1.00  0.00     0.054 C 
HETATM    9  H12 UNL     1      22.116   0.309  52.929  1.00  0.00     0.186 HD
ENDROOT
BRANCH   5  10
HETATM   10  N4  UNL     1      20.714  -1.188  54.423  1.00  0.00    -0.200 N 
HETATM   11  H5  UNL     1      20.239  -1.852  55.081  1.00  0.00     0.183 HD
BRANCH  10  12
HETATM   12  C5  UNL     1      20.053  -0.469  53.395  1.00  0.00     0.106 C 
HETATM   13  C6  UNL     1      18.898  -0.730  52.806  1.00  0.00     0.017 C 
BRANCH  13  14
HETATM   14  C7  UNL     1      18.448   0.183  51.768  1.00  0.00    -0.000 C 
HETATM   15  C8  UNL     1      17.176   0.231  51.411  1.00  0.00     0.004 C 
BRANCH  15  16
HETATM   16  C9  UNL     1      16.015  -0.538  51.913  1.00  0.00     0.249 C 
HETATM   17  F1  UNL     1      15.591   0.075  53.090  1.00  0.00    -0.251 F 
ENDBRANCH  15  16
ENDBRANCH  13  14
ENDBRANCH  10  12
ENDBRANCH   5  10
BRANCH   1  18
HETATM   18  C2  UNL     1      26.396  -0.580  53.409  1.00  0.00     0.094 C 
HETATM   19  C1  UNL     1      26.730  -1.462  52.454  1.00  0.00     0.052 C 
ENDBRANCH   1  18
BRANCH   8  20
HETATM   20  C12 UNL     1      25.569   2.174  52.593  1.00  0.00     0.303 C 
BRANCH  20  21
HETATM   21  N6  UNL     1      25.420   2.524  51.172  1.00  0.00     0.091 N 
HETATM   22  C13 UNL     1      24.265   3.389  51.089  1.00  0.00     0.272 C 
HETATM   23  C14 UNL     1      24.133   4.120  49.788  1.00  0.00     0.030 C 
HETATM   24  C15 UNL     1      25.417   4.681  49.253  1.00  0.00     0.003 C 
HETATM   25  C16 UNL     1      26.456   3.584  49.283  1.00  0.00     0.030 C 
HETATM   26  C17 UNL     1      26.635   3.169  50.716  1.00  0.00     0.272 C 
ENDBRANCH  20  21
ENDBRANCH   8  20
TORSDOF 7
ENDMDL
MODEL 8
REMARK VINA RESULT:      -6.5      1.922      5.396
REMARK  7 active torsions:
REMARK  status: ('A' for Active; 'I' for Inactive)
REMARK    1  A    between atoms: C2_2  and  N1_3 
REMARK    2  A    between atoms: C4_7  and  N4_8 
REMARK    3  A    between atoms: N4_8  and  C5_9 
REMARK    4  A    between atoms: C6_10  and  C7_11 
REMARK    5  A    between atoms: C8_12  and  C9_13 
REMARK    6  A    between atoms: C11_17  and  C12_18 
REMARK    7  A    between atoms: C12_18  and  N6_19 
ROOT
HETATM    1  N1  UNL     1      26.599   2.482  51.963  1.00  0.00    -0.231 N 
HETATM    2  N2  UNL     1      26.739   3.018  50.656  1.00  0.00    -0.159 NA
HETATM    3  C3  UNL     1      26.023   3.969  50.111  1.00  0.00     0.275 C 
HETATM    4  N3  UNL     1      24.944   4.715  50.637  1.00  0.00    -0.056 NA
HETATM    5  C4  UNL     1      24.264   4.557  51.716  1.00  0.00     0.707 C 
HETATM    6  N5  UNL     1      24.415   3.539  52.726  1.00  0.00    -0.173 N 
HETATM    7  C10 UNL     1      25.390   2.491  52.710  1.00  0.00     0.141 C 
HETATM    8  C11 UNL     1      25.118   1.445  53.456  1.00  0.00     0.054 C 
HETATM    9  H12 UNL     1      23.751   3.577  53.533  1.00  0.00     0.186 HD
ENDROOT
BRANCH   5  10
HETATM   10  N4  UNL     1      23.229   5.495  51.958  1.00  0.00    -0.200 N 
HETATM   11  H5  UNL     1      23.526   6.481  52.161  1.00  0.00     0.183 HD
BRANCH  10  12
HETATM   12  C5  UNL     1      21.880   5.059  51.914  1.00  0.00     0.106 C 
HETATM   13  C6  UNL     1      21.246   4.406  50.956  1.00  0.00     0.017 C 
BRANCH  13  14
HETATM   14  C7  UNL     1      19.845   4.080  51.173  1.00  0.00    -0.000 C 
HETATM   15  C8  UNL     1      19.486   2.887  51.614  1.00  0.00     0.004 C 
BRANCH  15  16
HETATM   16  C9  UNL     1      20.314   1.710  51.963  1.00  0.00     0.249 C 
HETATM   17  F1  UNL     1      20.861   1.948  53.222  1.00  0.00    -0.251 F 
ENDBRANCH  15  16
ENDBRANCH  13  14
ENDBRANCH  10  12
ENDBRANCH   5  10
BRANCH   1  18
HETATM   18  C2  UNL     1      27.710   1.874  52.655  1.00  0.00     0.094 C 
HETATM   19  C1  UNL     1      28.570   2.471  53.494  1.00  0.00     0.052 C 
ENDBRANCH   1  18
BRANCH   8  20
HETATM   20  C12 UNL     1      25.615   0.123  53.872  1.00  0.00     0.303 C 
BRANCH  20  21
HETATM   21  N6  UNL     1      24.482  -0.813  53.897  1.00  0.00     0.091 N 
HETATM   22  C13 UNL     1      24.145  -1.001  55.290  1.00  0.00     0.272 C 
HETATM   23  C14 UNL     1      22.818  -1.656  55.523  1.00  0.00     0.030 C 
HETATM   24  C15 UNL     1      21.713  -1.161  54.637  1.00  0.00     0.003 C 
HETATM   25  C16 UNL     1      22.211  -1.181  53.210  1.00  0.00     0.030 C 
HETATM   26  C17 UNL     1      23.389  -0.253  53.129  1.00  0.00     0.272 C 
ENDBRANCH  20  21
ENDBRANCH   8  20
TORSDOF 7
ENDMDL
MODEL 9
REMARK VINA RESULT:      -6.5      5.330      9.537
REMARK  7 active torsions:
REMARK  status: ('A' for Active; 'I' for Inactive)
REMARK    1  A    between atoms: C2_2  and  N1_3 
REMARK    2  A    between atoms: C4_7  and  N4_8 
REMARK    3  A    between atoms: N4_8  and  C5_9 
REMARK    4  A    between atoms: C6_10  and  C7_11 
REMARK    5  A    between atoms: C8_12  and  C9_13 
REMARK    6  A    between atoms: C11_17  and  C12_18 
REMARK    7  A    between atoms: C12_18  and  N6_19 
ROOT
HETATM    1  N1  UNL     1      24.860   4.288  49.592  1.00  0.00    -0.231 N 
HETATM    2  N2  UNL     1      24.328   5.595  49.444  1.00  0.00    -0.159 NA
HETATM    3  C3  UNL     1      24.939   6.645  48.957  1.00  0.00     0.275 C 
HETATM    4  N3  UNL     1      26.252   6.788  48.456  1.00  0.00    -0.056 NA
HETATM    5  C4  UNL     1      27.254   5.984  48.493  1.00  0.00     0.707 C 
HETATM    6  N5  UNL     1      27.322   4.667  49.077  1.00  0.00    -0.173 N 
HETATM    7  C10 UNL     1      26.244   3.993  49.735  1.00  0.00     0.141 C 
HETATM    8  C11 UNL     1      26.588   3.023  50.550  1.00  0.00     0.054 C 
HETATM    9  H12 UNL     1      28.240   4.171  49.009  1.00  0.00     0.186 HD
ENDROOT
BRANCH   5  10
HETATM   10  N4  UNL     1      28.454   6.435  47.886  1.00  0.00    -0.200 N 
HETATM   11  H5  UNL     1      28.362   7.199  47.174  1.00  0.00     0.183 HD
BRANCH  10  12
HETATM   12  C5  UNL     1      29.685   5.841  48.268  1.00  0.00     0.106 C 
HETATM   13  C6  UNL     1      30.824   5.781  47.600  1.00  0.00     0.017 C 
BRANCH  13  14
HETATM   14  C7  UNL     1      31.943   5.104  48.233  1.00  0.00    -0.000 C 
HETATM   15  C8  UNL     1      32.442   3.992  47.722  1.00  0.00     0.004 C 
BRANCH  15  16
HETATM   16  C9  UNL     1      32.041   3.235  46.513  1.00  0.00     0.249 C 
HETATM   17  F1  UNL     1      32.531   3.929  45.410  1.00  0.00    -0.251 F 
ENDBRANCH  15  16
ENDBRANCH  13  14
ENDBRANCH  10  12
ENDBRANCH   5  10
BRANCH   1  18
HETATM   18  C2  UNL     1      24.011   3.121  49.605  1.00  0.00     0.094 C 
HETATM   19  C1  UNL     1      22.672   3.091  49.690  1.00  0.00     0.052 C 
ENDBRANCH   1  18
BRANCH   8  20
HETATM   20  C12 UNL     1      26.059   2.009  51.476  1.00  0.00     0.303 C 
BRANCH  20  21
HETATM   21  N6  UNL     1      27.192   1.265  52.047  1.00  0.00     0.091 N 
HETATM   22  C13 UNL     1      27.779   2.130  53.046  1.00  0.00     0.272 C 
HETATM   23  C14 UNL     1      28.737   1.444  53.971  1.00  0.00     0.030 C 
HETATM   24  C15 UNL     1      28.287   0.095  54.449  1.00  0.00     0.003 C 
HETATM   25  C16 UNL     1      27.854  -0.708  53.245  1.00  0.00     0.030 C 
HETATM   26  C17 UNL     1      26.706   0.019  52.605  1.00  0.00     0.272 C 
ENDBRANCH  20  21
ENDBRANCH   8  20
TORSDOF 7
ENDMDL
