MODEL 1
REMARK VINA RESULT:      -7.2      0.000      0.000
REMARK  11 active torsions:
REMARK  status: ('A' for Active; 'I' for Inactive)
REMARK    1  A    between atoms: C2_2  and  C3_3 
REMARK       I    between atoms: C3_3  and  N1_5 
REMARK    2  A    between atoms: N1_5  and  C4_6 
REMARK    3  A    between atoms: C6_8  and  N2_9 
REMARK    4  A    between atoms: N2_9  and  C7_10 
REMARK    5  A    between atoms: C10_14  and  C11_15 
REMARK    6  A    between atoms: C11_15  and  C12_16 
REMARK    7  A    between atoms: C14_19  and  O2_20 
REMARK    8  A    between atoms: C17_23  and  N5_24 
REMARK    9  A    between atoms: N5_24  and  C19_26 
REMARK   10  A    between atoms: C19_26  and  C20_27 
REMARK   11  A    between atoms: C20_27  and  N6_28 
ROOT
HETATM    1  C4  UNL     1      23.925   1.752  51.591  1.00  0.00     0.064 A 
HETATM    2  C5  UNL     1      22.572   1.981  51.654  1.00  0.00     0.065 A 
HETATM    3  C6  UNL     1      21.751   1.365  52.570  1.00  0.00     0.085 A 
HETATM    4  C14 UNL     1      22.324   0.474  53.460  1.00  0.00     0.097 A 
HETATM    5  C16 UNL     1      23.679   0.257  53.382  1.00  0.00     0.070 A 
HETATM    6  C17 UNL     1      24.539   0.875  52.461  1.00  0.00     0.059 A 
ENDROOT
BRANCH   3   7
HETATM    7  N2  UNL     1      20.357   1.655  52.591  1.00  0.00    -0.185 N 
HETATM    8  H6  UNL     1      20.038   2.327  53.350  1.00  0.00     0.184 HD
BRANCH   7   9
HETATM    9  C7  UNL     1      19.350   1.148  51.714  1.00  0.00     0.727 A 
HETATM   10  N3  UNL     1      18.995   1.400  50.435  1.00  0.00    -0.075 NA
HETATM   11  C8  UNL     1      17.949   0.733  49.870  1.00  0.00     0.138 A 
HETATM   12  C9  UNL     1      17.226  -0.206  50.576  1.00  0.00     0.047 A 
HETATM   13  C10 UNL     1      17.590  -0.463  51.879  1.00  0.00     0.055 A 
HETATM   14  N4  UNL     1      18.618   0.213  52.383  1.00  0.00    -0.067 NA
BRANCH  13  15
HETATM   15  C11 UNL     1      16.850  -1.484  52.698  1.00  0.00     0.059 C 
BRANCH  15  16
HETATM   16  C12 UNL     1      17.815  -2.336  53.489  1.00  0.00     0.002 C 
HETATM   17  C13 UNL     1      17.258  -3.755  53.655  1.00  0.00     0.005 C 
ENDBRANCH  15  16
ENDBRANCH  13  15
ENDBRANCH   7   9
ENDBRANCH   3   7
BRANCH   4  18
HETATM   18  O2  UNL     1      21.464  -0.129  54.365  1.00  0.00    -0.354 OA
HETATM   19  C15 UNL     1      21.592  -1.486  54.743  1.00  0.00     0.210 C 
ENDBRANCH   4  18
BRANCH   1  20
HETATM   20  N1  UNL     1      24.835   2.305  50.645  1.00  0.00    -0.322 N 
HETATM   21  C3  UNL     1      24.825   3.731  50.797  1.00  0.00     0.244 C 
HETATM   22  O1  UNL     1      24.281   4.626  51.494  1.00  0.00    -0.268 OA
HETATM   23  H4  UNL     1      25.491   1.986  49.911  1.00  0.00     0.169 HD
BRANCH  21  24
HETATM   24  C2  UNL     1      25.643   4.607  49.956  1.00  0.00     0.064 C 
HETATM   25  C1  UNL     1      26.438   3.612  49.511  1.00  0.00     0.017 C 
ENDBRANCH  21  24
ENDBRANCH   1  20
BRANCH   6  26
HETATM   26  N5  UNL     1      25.884   0.482  52.718  1.00  0.00    -0.382 N 
HETATM   27  C18 UNL     1      26.418  -0.836  52.392  1.00  0.00     0.150 C 
BRANCH  26  28
HETATM   28  C19 UNL     1      26.951   1.247  53.392  1.00  0.00     0.141 C 
BRANCH  28  29
HETATM   29  C20 UNL     1      27.571   0.348  54.443  1.00  0.00     0.135 C 
BRANCH  29  30
HETATM   30  N6  UNL     1      28.979   0.427  54.559  1.00  0.00    -0.419 N 
HETATM   31  C21 UNL     1      29.492   1.778  54.470  1.00  0.00     0.142 C 
HETATM   32  C22 UNL     1      29.755  -0.523  53.837  1.00  0.00     0.142 C 
ENDBRANCH  29  30
ENDBRANCH  28  29
ENDBRANCH  26  28
ENDBRANCH   6  26
TORSDOF 11
ENDMDL
MODEL 2
REMARK VINA RESULT:      -6.9      4.986      8.608
REMARK  11 active torsions:
REMARK  status: ('A' for Active; 'I' for Inactive)
REMARK    1  A    between atoms: C2_2  and  C3_3 
REMARK       I    between atoms: C3_3  and  N1_5 
REMARK    2  A    between atoms: N1_5  and  C4_6 
REMARK    3  A    between atoms: C6_8  and  N2_9 
REMARK    4  A    between atoms: N2_9  and  C7_10 
REMARK    5  A    between atoms: C10_14  and  C11_15 
REMARK    6  A    between atoms: C11_15  and  C12_16 
REMARK    7  A    between atoms: C14_19  and  O2_20 
REMARK    8  A    between atoms: C17_23  and  N5_24 
REMARK    9  A    between atoms: N5_24  and  C19_26 
REMARK   10  A    between atoms: C19_26  and  C20_27 
REMARK   11  A    between atoms: C20_27  and  N6_28 
ROOT
HETATM    1  C4  UNL     1      28.410   6.086  48.222  1.00  0.00     0.064 A 
HETATM    2  C5  UNL     1      27.716   4.947  48.556  1.00  0.00     0.065 A 
HETATM    3  C6  UNL     1      26.538   4.972  49.266  1.00  0.00     0.085 A 
HETATM    4  C14 UNL     1      26.041   6.202  49.659  1.00  0.00     0.097 A 
HETATM    5  C16 UNL     1      26.750   7.329  49.316  1.00  0.00     0.070 A 
HETATM    6  C17 UNL     1      27.950   7.332  48.589  1.00  0.00     0.059 A 
ENDROOT
BRANCH   3   7
HETATM    7  N2  UNL     1      25.860   3.757  49.570  1.00  0.00    -0.185 N 
HETATM    8  H6  UNL     1      25.109   3.463  48.879  1.00  0.00     0.184 HD
BRANCH   7   9
HETATM    9  C7  UNL     1      26.077   2.898  50.692  1.00  0.00     0.727 A 
HETATM   10  N3  UNL     1      27.161   2.540  51.414  1.00  0.00    -0.075 NA
HETATM   11  C8  UNL     1      27.035   1.665  52.451  1.00  0.00     0.138 A 
HETATM   12  C9  UNL     1      25.813   1.122  52.793  1.00  0.00     0.047 A 
HETATM   13  C10 UNL     1      24.709   1.489  52.057  1.00  0.00     0.055 A 
HETATM   14  N4  UNL     1      24.885   2.346  51.056  1.00  0.00    -0.067 NA
BRANCH  13  15
HETATM   15  C11 UNL     1      23.348   0.941  52.386  1.00  0.00     0.059 C 
BRANCH  15  16
HETATM   16  C12 UNL     1      23.456  -0.214  53.353  1.00  0.00     0.002 C 
HETATM   17  C13 UNL     1      22.121  -0.963  53.440  1.00  0.00     0.005 C 
ENDBRANCH  15  16
ENDBRANCH  13  15
ENDBRANCH   7   9
ENDBRANCH   3   7
BRANCH   4  18
HETATM   18  O2  UNL     1      24.855   6.185  50.375  1.00  0.00    -0.354 OA
HETATM   19  C15 UNL     1      24.277   7.359  50.912  1.00  0.00     0.210 C 
ENDBRANCH   4  18
BRANCH   1  20
HETATM   20  N1  UNL     1      29.658   6.147  47.537  1.00  0.00    -0.322 N 
HETATM   21  C3  UNL     1      30.695   5.810  48.469  1.00  0.00     0.244 C 
HETATM   22  O1  UNL     1      30.844   5.479  49.673  1.00  0.00    -0.268 OA
HETATM   23  H4  UNL     1      30.021   6.344  46.589  1.00  0.00     0.169 HD
BRANCH  21  24
HETATM   24  C2  UNL     1      32.108   5.798  48.086  1.00  0.00     0.064 C 
HETATM   25  C1  UNL     1      32.071   4.544  47.590  1.00  0.00     0.017 C 
ENDBRANCH  21  24
ENDBRANCH   1  20
BRANCH   6  26
HETATM   26  N5  UNL     1      28.362   8.674  48.343  1.00  0.00    -0.382 N 
HETATM   27  C18 UNL     1      27.873   9.480  47.230  1.00  0.00     0.150 C 
BRANCH  26  28
HETATM   28  C19 UNL     1      29.366   9.473  49.073  1.00  0.00     0.141 C 
BRANCH  28  29
HETATM   29  C20 UNL     1      30.578   9.624  48.176  1.00  0.00     0.135 C 
BRANCH  29  30
HETATM   30  N6  UNL     1      31.158  10.915  48.147  1.00  0.00    -0.419 N 
HETATM   31  C21 UNL     1      30.483  11.871  48.999  1.00  0.00     0.142 C 
HETATM   32  C22 UNL     1      31.525  11.445  46.878  1.00  0.00     0.142 C 
ENDBRANCH  29  30
ENDBRANCH  28  29
ENDBRANCH  26  28
ENDBRANCH   6  26
TORSDOF 11
ENDMDL
MODEL 3
REMARK VINA RESULT:      -6.9      2.069      3.186
REMARK  11 active torsions:
REMARK  status: ('A' for Active; 'I' for Inactive)
REMARK    1  A    between atoms: C2_2  and  C3_3 
REMARK       I    between atoms: C3_3  and  N1_5 
REMARK    2  A    between atoms: N1_5  and  C4_6 
REMARK    3  A    between atoms: C6_8  and  N2_9 
REMARK    4  A    between atoms: N2_9  and  C7_10 
REMARK    5  A    between atoms: C10_14  and  C11_15 
REMARK    6  A    between atoms: C11_15  and  C12_16 
REMARK    7  A    between atoms: C14_19  and  O2_20 
REMARK    8  A    between atoms: C17_23  and  N5_24 
REMARK    9  A    between atoms: N5_24  and  C19_26 
REMARK   10  A    between atoms: C19_26  and  C20_27 
REMARK   11  A    between atoms: C20_27  and  N6_28 
ROOT
HETATM    1  C4  UNL     1      23.899   2.568  52.431  1.00  0.00     0.064 A 
HETATM    2  C5  UNL     1      22.533   2.713  52.434  1.00  0.00     0.065 A 
HETATM    3  C6  UNL     1      21.674   1.684  52.744  1.00  0.00     0.085 A 
HETATM    4  C14 UNL     1      22.220   0.453  53.061  1.00  0.00     0.097 A 
HETATM    5  C16 UNL     1      23.589   0.328  53.052  1.00  0.00     0.070 A 
HETATM    6  C17 UNL     1      24.488   1.361  52.745  1.00  0.00     0.059 A 
ENDROOT
BRANCH   3   7
HETATM    7  N2  UNL     1      20.266   1.902  52.741  1.00  0.00    -0.185 N 
HETATM    8  H6  UNL     1      19.724   1.420  53.518  1.00  0.00     0.184 HD
BRANCH   7   9
HETATM    9  C7  UNL     1      19.510   2.689  51.819  1.00  0.00     0.727 A 
HETATM   10  N3  UNL     1      18.535   3.616  51.943  1.00  0.00    -0.075 NA
HETATM   11  C8  UNL     1      17.995   4.194  50.833  1.00  0.00     0.138 A 
HETATM   12  C9  UNL     1      18.418   3.856  49.565  1.00  0.00     0.047 A 
HETATM   13  C10 UNL     1      19.412   2.913  49.440  1.00  0.00     0.055 A 
HETATM   14  N4  UNL     1      19.907   2.379  50.553  1.00  0.00    -0.067 NA
BRANCH  13  15
HETATM   15  C11 UNL     1      19.925   2.509  48.085  1.00  0.00     0.059 C 
BRANCH  15  16
HETATM   16  C12 UNL     1      21.287   1.866  48.199  1.00  0.00     0.002 C 
HETATM   17  C13 UNL     1      22.291   2.582  47.289  1.00  0.00     0.005 C 
ENDBRANCH  15  16
ENDBRANCH  13  15
ENDBRANCH   7   9
ENDBRANCH   3   7
BRANCH   4  18
HETATM   18  O2  UNL     1      21.322  -0.558  53.364  1.00  0.00    -0.354 OA
HETATM   19  C15 UNL     1      21.570  -1.515  54.376  1.00  0.00     0.210 C 
ENDBRANCH   4  18
BRANCH   1  20
HETATM   20  N1  UNL     1      24.855   3.561  52.073  1.00  0.00    -0.322 N 
HETATM   21  C3  UNL     1      25.018   3.532  50.648  1.00  0.00     0.244 C 
HETATM   22  O1  UNL     1      24.585   2.922  49.638  1.00  0.00    -0.268 OA
HETATM   23  H4  UNL     1      25.440   4.284  52.527  1.00  0.00     0.169 HD
BRANCH  21  24
HETATM   24  C2  UNL     1      25.950   4.423  49.955  1.00  0.00     0.064 C 
HETATM   25  C1  UNL     1      25.084   5.455  49.895  1.00  0.00     0.017 C 
ENDBRANCH  21  24
ENDBRANCH   1  20
BRANCH   6  26
HETATM   26  N5  UNL     1      25.826   0.902  52.913  1.00  0.00    -0.382 N 
HETATM   27  C18 UNL     1      26.455  -0.093  52.052  1.00  0.00     0.150 C 
BRANCH  26  28
HETATM   28  C19 UNL     1      26.790   1.256  53.972  1.00  0.00     0.141 C 
BRANCH  28  29
HETATM   29  C20 UNL     1      27.488  -0.016  54.408  1.00  0.00     0.135 C 
BRANCH  29  30
HETATM   30  N6  UNL     1      28.895   0.072  54.535  1.00  0.00    -0.419 N 
HETATM   31  C21 UNL     1      29.396   1.428  54.474  1.00  0.00     0.142 C 
HETATM   32  C22 UNL     1      29.683  -0.859  53.801  1.00  0.00     0.142 C 
ENDBRANCH  29  30
ENDBRANCH  28  29
ENDBRANCH  26  28
ENDBRANCH   6  26
TORSDOF 11
ENDMDL
MODEL 4
REMARK VINA RESULT:      -6.8      2.009      2.562
REMARK  11 active torsions:
REMARK  status: ('A' for Active; 'I' for Inactive)
REMARK    1  A    between atoms: C2_2  and  C3_3 
REMARK       I    between atoms: C3_3  and  N1_5 
REMARK    2  A    between atoms: N1_5  and  C4_6 
REMARK    3  A    between atoms: C6_8  and  N2_9 
REMARK    4  A    between atoms: N2_9  and  C7_10 
REMARK    5  A    between atoms: C10_14  and  C11_15 
REMARK    6  A    between atoms: C11_15  and  C12_16 
REMARK    7  A    between atoms: C14_19  and  O2_20 
REMARK    8  A    between atoms: C17_23  and  N5_24 
REMARK    9  A    between atoms: N5_24  and  C19_26 
REMARK   10  A    between atoms: C19_26  and  C20_27 
REMARK   11  A    between atoms: C20_27  and  N6_28 
ROOT
HETATM    1  C4  UNL     1      23.938   3.037  52.117  1.00  0.00     0.064 A 
HETATM    2  C5  UNL     1      22.571   3.163  52.173  1.00  0.00     0.065 A 
HETATM    3  C6  UNL     1      21.752   2.178  52.675  1.00  0.00     0.085 A 
HETATM    4  C14 UNL     1      22.340   1.014  53.137  1.00  0.00     0.097 A 
HETATM    5  C16 UNL     1      23.709   0.907  53.071  1.00  0.00     0.070 A 
HETATM    6  C17 UNL     1      24.568   1.897  52.568  1.00  0.00     0.059 A 
ENDROOT
BRANCH   3   7
HETATM    7  N2  UNL     1      20.341   2.374  52.719  1.00  0.00    -0.185 N 
HETATM    8  H6  UNL     1      19.929   2.542  53.684  1.00  0.00     0.184 HD
BRANCH   7   9
HETATM    9  C7  UNL     1      19.429   2.370  51.619  1.00  0.00     0.727 A 
HETATM   10  N3  UNL     1      19.398   1.753  50.418  1.00  0.00    -0.075 NA
HETATM   11  C8  UNL     1      18.360   1.972  49.562  1.00  0.00     0.138 A 
HETATM   12  C9  UNL     1      17.323   2.820  49.888  1.00  0.00     0.047 A 
HETATM   13  C10 UNL     1      17.355   3.447  51.112  1.00  0.00     0.055 A 
HETATM   14  N4  UNL     1      18.389   3.200  51.912  1.00  0.00    -0.067 NA
BRANCH  13  15
HETATM   15  C11 UNL     1      16.248   4.376  51.532  1.00  0.00     0.059 C 
BRANCH  15  16
HETATM   16  C12 UNL     1      15.487   3.804  52.705  1.00  0.00     0.002 C 
HETATM   17  C13 UNL     1      14.402   2.837  52.215  1.00  0.00     0.005 C 
ENDBRANCH  15  16
ENDBRANCH  13  15
ENDBRANCH   7   9
ENDBRANCH   3   7
BRANCH   4  18
HETATM   18  O2  UNL     1      21.481   0.045  53.631  1.00  0.00    -0.354 OA
HETATM   19  C15 UNL     1      21.867  -1.308  53.775  1.00  0.00     0.210 C 
ENDBRANCH   4  18
BRANCH   1  20
HETATM   20  N1  UNL     1      24.853   3.981  51.567  1.00  0.00    -0.322 N 
HETATM   21  C3  UNL     1      24.853   3.825  50.141  1.00  0.00     0.244 C 
HETATM   22  O1  UNL     1      24.306   3.135  49.244  1.00  0.00    -0.268 OA
HETATM   23  H4  UNL     1      25.488   4.732  51.886  1.00  0.00     0.169 HD
BRANCH  21  24
HETATM   24  C2  UNL     1      25.706   4.637  49.272  1.00  0.00     0.064 C 
HETATM   25  C1  UNL     1      26.774   3.819  49.378  1.00  0.00     0.017 C 
ENDBRANCH  21  24
ENDBRANCH   1  20
BRANCH   6  26
HETATM   26  N5  UNL     1      25.923   1.486  52.728  1.00  0.00    -0.382 N 
HETATM   27  C18 UNL     1      26.648   0.691  51.743  1.00  0.00     0.150 C 
BRANCH  26  28
HETATM   28  C19 UNL     1      26.816   1.699  53.883  1.00  0.00     0.141 C 
BRANCH  28  29
HETATM   29  C20 UNL     1      27.325   0.343  54.330  1.00  0.00     0.135 C 
BRANCH  29  30
HETATM   30  N6  UNL     1      28.723   0.253  54.533  1.00  0.00    -0.419 N 
HETATM   31  C21 UNL     1      29.396   1.534  54.495  1.00  0.00     0.142 C 
HETATM   32  C22 UNL     1      29.424  -0.778  53.847  1.00  0.00     0.142 C 
ENDBRANCH  29  30
ENDBRANCH  28  29
ENDBRANCH  26  28
ENDBRANCH   6  26
TORSDOF 11
ENDMDL
MODEL 5
REMARK VINA RESULT:      -6.8      4.045     10.187
REMARK  11 active torsions:
REMARK  status: ('A' for Active; 'I' for Inactive)
REMARK    1  A    between atoms: C2_2  and  C3_3 
REMARK       I    between atoms: C3_3  and  N1_5 
REMARK    2  A    between atoms: N1_5  and  C4_6 
REMARK    3  A    between atoms: C6_8  and  N2_9 
REMARK    4  A    between atoms: N2_9  and  C7_10 
REMARK    5  A    between atoms: C10_14  and  C11_15 
REMARK    6  A    between atoms: C11_15  and  C12_16 
REMARK    7  A    between atoms: C14_19  and  O2_20 
REMARK    8  A    between atoms: C17_23  and  N5_24 
REMARK    9  A    between atoms: N5_24  and  C19_26 
REMARK   10  A    between atoms: C19_26  and  C20_27 
REMARK   11  A    between atoms: C20_27  and  N6_28 
ROOT
HETATM    1  C4  UNL     1      25.947   3.773  49.994  1.00  0.00     0.064 A 
HETATM    2  C5  UNL     1      26.972   4.191  49.179  1.00  0.00     0.065 A 
HETATM    3  C6  UNL     1      27.124   5.499  48.784  1.00  0.00     0.085 A 
HETATM    4  C14 UNL     1      26.198   6.426  49.228  1.00  0.00     0.097 A 
HETATM    5  C16 UNL     1      25.180   5.989  50.042  1.00  0.00     0.070 A 
HETATM    6  C17 UNL     1      25.003   4.662  50.464  1.00  0.00     0.059 A 
ENDROOT
BRANCH   3   7
HETATM    7  N2  UNL     1      28.216   5.872  47.948  1.00  0.00    -0.185 N 
HETATM    8  H6  UNL     1      28.009   5.905  46.906  1.00  0.00     0.184 HD
BRANCH   7   9
HETATM    9  C7  UNL     1      29.546   6.203  48.352  1.00  0.00     0.727 A 
HETATM   10  N3  UNL     1      30.115   7.272  48.949  1.00  0.00    -0.075 NA
HETATM   11  C8  UNL     1      31.455   7.286  49.198  1.00  0.00     0.138 A 
HETATM   12  C9  UNL     1      32.264   6.224  48.851  1.00  0.00     0.047 A 
HETATM   13  C10 UNL     1      31.683   5.134  48.243  1.00  0.00     0.055 A 
HETATM   14  N4  UNL     1      30.372   5.170  48.024  1.00  0.00    -0.067 NA
BRANCH  13  15
HETATM   15  C11 UNL     1      32.509   3.940  47.851  1.00  0.00     0.059 C 
BRANCH  15  16
HETATM   16  C12 UNL     1      31.888   3.225  46.674  1.00  0.00     0.002 C 
HETATM   17  C13 UNL     1      32.230   1.731  46.718  1.00  0.00     0.005 C 
ENDBRANCH  15  16
ENDBRANCH  13  15
ENDBRANCH   7   9
ENDBRANCH   3   7
BRANCH   4  18
HETATM   18  O2  UNL     1      26.384   7.733  48.805  1.00  0.00    -0.354 OA
HETATM   19  C15 UNL     1      26.679   8.785  49.702  1.00  0.00     0.210 C 
ENDBRANCH   4  18
BRANCH   1  20
HETATM   20  N1  UNL     1      25.685   2.435  50.407  1.00  0.00    -0.322 N 
HETATM   21  C3  UNL     1      26.667   2.071  51.388  1.00  0.00     0.244 C 
HETATM   22  O1  UNL     1      27.660   2.555  51.989  1.00  0.00    -0.268 OA
HETATM   23  H4  UNL     1      25.007   1.677  50.221  1.00  0.00     0.169 HD
BRANCH  21  24
HETATM   24  C2  UNL     1      26.692   0.744  52.006  1.00  0.00     0.064 C 
HETATM   25  C1  UNL     1      26.088   1.147  53.143  1.00  0.00     0.017 C 
ENDBRANCH  21  24
ENDBRANCH   1  20
BRANCH   6  26
HETATM   26  N5  UNL     1      23.899   4.584  51.361  1.00  0.00    -0.382 N 
HETATM   27  C18 UNL     1      24.038   4.525  52.812  1.00  0.00     0.150 C 
BRANCH  26  28
HETATM   28  C19 UNL     1      22.463   4.479  51.040  1.00  0.00     0.141 C 
BRANCH  28  29
HETATM   29  C20 UNL     1      21.893   3.325  51.840  1.00  0.00     0.135 C 
BRANCH  29  30
HETATM   30  N6  UNL     1      21.868   2.075  51.177  1.00  0.00    -0.419 N 
HETATM   31  C21 UNL     1      22.567   1.028  51.891  1.00  0.00     0.142 C 
HETATM   32  C22 UNL     1      22.114   2.068  49.774  1.00  0.00     0.142 C 
ENDBRANCH  29  30
ENDBRANCH  28  29
ENDBRANCH  26  28
ENDBRANCH   6  26
TORSDOF 11
ENDMDL
MODEL 6
REMARK VINA RESULT:      -6.6      4.516      8.737
REMARK  11 active torsions:
REMARK  status: ('A' for Active; 'I' for Inactive)
REMARK    1  A    between atoms: C2_2  and  C3_3 
REMARK       I    between atoms: C3_3  and  N1_5 
REMARK    2  A    between atoms: N1_5  and  C4_6 
REMARK    3  A    between atoms: C6_8  and  N2_9 
REMARK    4  A    between atoms: N2_9  and  C7_10 
REMARK    5  A    between atoms: C10_14  and  C11_15 
REMARK    6  A    between atoms: C11_15  and  C12_16 
REMARK    7  A    between atoms: C14_19  and  O2_20 
REMARK    8  A    between atoms: C17_23  and  N5_24 
REMARK    9  A    between atoms: N5_24  and  C19_26 
REMARK   10  A    between atoms: C19_26  and  C20_27 
REMARK   11  A    between atoms: C20_27  and  N6_28 
ROOT
HETATM    1  C4  UNL     1      28.448   6.090  48.194  1.00  0.00     0.064 A 
HETATM    2  C5  UNL     1      27.823   4.918  48.544  1.00  0.00     0.065 A 
HETATM    3  C6  UNL     1      26.638   4.883  49.242  1.00  0.00     0.085 A 
HETATM    4  C14 UNL     1      26.060   6.087  49.604  1.00  0.00     0.097 A 
HETATM    5  C16 UNL     1      26.701   7.250  49.245  1.00  0.00     0.070 A 
HETATM    6  C17 UNL     1      27.907   7.313  48.530  1.00  0.00     0.059 A 
ENDROOT
BRANCH   3   7
HETATM    7  N2  UNL     1      26.033   3.634  49.564  1.00  0.00    -0.185 N 
HETATM    8  H6  UNL     1      25.373   3.239  48.832  1.00  0.00     0.184 HD
BRANCH   7   9
HETATM    9  C7  UNL     1      26.216   2.862  50.752  1.00  0.00     0.727 A 
HETATM   10  N3  UNL     1      27.270   2.589  51.551  1.00  0.00    -0.075 NA
HETATM   11  C8  UNL     1      27.116   1.783  52.639  1.00  0.00     0.138 A 
HETATM   12  C9  UNL     1      25.895   1.225  52.955  1.00  0.00     0.047 A 
HETATM   13  C10 UNL     1      24.821   1.504  52.142  1.00  0.00     0.055 A 
HETATM   14  N4  UNL     1      25.024   2.297  51.093  1.00  0.00    -0.067 NA
BRANCH  13  15
HETATM   15  C11 UNL     1      23.460   0.935  52.439  1.00  0.00     0.059 C 
BRANCH  15  16
HETATM   16  C12 UNL     1      23.571  -0.267  53.348  1.00  0.00     0.002 C 
HETATM   17  C13 UNL     1      22.189  -0.657  53.884  1.00  0.00     0.005 C 
ENDBRANCH  15  16
ENDBRANCH  13  15
ENDBRANCH   7   9
ENDBRANCH   3   7
BRANCH   4  18
HETATM   18  O2  UNL     1      24.869   6.011  50.308  1.00  0.00    -0.354 OA
HETATM   19  C15 UNL     1      24.277   7.139  50.921  1.00  0.00     0.210 C 
ENDBRANCH   4  18
BRANCH   1  20
HETATM   20  N1  UNL     1      29.697   6.216  47.521  1.00  0.00    -0.322 N 
HETATM   21  C3  UNL     1      30.738   5.854  48.440  1.00  0.00     0.244 C 
HETATM   22  O1  UNL     1      30.888   5.463  49.625  1.00  0.00    -0.268 OA
HETATM   23  H4  UNL     1      30.061   6.472  46.587  1.00  0.00     0.169 HD
BRANCH  21  24
HETATM   24  C2  UNL     1      32.152   5.894  48.065  1.00  0.00     0.064 C 
HETATM   25  C1  UNL     1      32.016   5.016  47.050  1.00  0.00     0.017 C 
ENDBRANCH  21  24
ENDBRANCH   1  20
BRANCH   6  26
HETATM   26  N5  UNL     1      28.238   8.673  48.261  1.00  0.00    -0.382 N 
HETATM   27  C18 UNL     1      28.859   9.562  49.236  1.00  0.00     0.150 C 
BRANCH  26  28
HETATM   28  C19 UNL     1      27.976   9.456  47.038  1.00  0.00     0.141 C 
BRANCH  28  29
HETATM   29  C20 UNL     1      27.009  10.566  47.397  1.00  0.00     0.135 C 
BRANCH  29  30
HETATM   30  N6  UNL     1      25.638  10.218  47.359  1.00  0.00    -0.419 N 
HETATM   31  C21 UNL     1      25.291   9.358  46.247  1.00  0.00     0.142 C 
HETATM   32  C22 UNL     1      24.688  11.251  47.596  1.00  0.00     0.142 C 
ENDBRANCH  29  30
ENDBRANCH  28  29
ENDBRANCH  26  28
ENDBRANCH   6  26
TORSDOF 11
ENDMDL
MODEL 7
REMARK VINA RESULT:      -6.5      3.076      6.521
REMARK  11 active torsions:
REMARK  status: ('A' for Active; 'I' for Inactive)
REMARK    1  A    between atoms: C2_2  and  C3_3 
REMARK       I    between atoms: C3_3  and  N1_5 
REMARK    2  A    between atoms: N1_5  and  C4_6 
REMARK    3  A    between atoms: C6_8  and  N2_9 
REMARK    4  A    between atoms: N2_9  and  C7_10 
REMARK    5  A    between atoms: C10_14  and  C11_15 
REMARK    6  A    between atoms: C11_15  and  C12_16 
REMARK    7  A    between atoms: C14_19  and  O2_20 
REMARK    8  A    between atoms: C17_23  and  N5_24 
REMARK    9  A    between atoms: N5_24  and  C19_26 
REMARK   10  A    between atoms: C19_26  and  C20_27 
REMARK   11  A    between atoms: C20_27  and  N6_28 
ROOT
HETATM    1  C4  UNL     1      23.767   4.444  49.693  1.00  0.00     0.064 A 
HETATM    2  C5  UNL     1      23.358   3.146  49.883  1.00  0.00     0.065 A 
HETATM    3  C6  UNL     1      22.300   2.807  50.694  1.00  0.00     0.085 A 
HETATM    4  C14 UNL     1      21.628   3.826  51.345  1.00  0.00     0.097 A 
HETATM    5  C16 UNL     1      22.052   5.118  51.143  1.00  0.00     0.070 A 
HETATM    6  C17 UNL     1      23.124   5.491  50.318  1.00  0.00     0.059 A 
ENDROOT
BRANCH   3   7
HETATM    7  N2  UNL     1      21.917   1.443  50.839  1.00  0.00    -0.185 N 
HETATM    8  H6  UNL     1      21.469   0.997  49.985  1.00  0.00     0.184 HD
BRANCH   7   9
HETATM    9  C7  UNL     1      22.067   0.617  51.996  1.00  0.00     0.727 A 
HETATM   10  N3  UNL     1      21.221  -0.115  52.752  1.00  0.00    -0.075 NA
HETATM   11  C8  UNL     1      21.688  -0.805  53.830  1.00  0.00     0.138 A 
HETATM   12  C9  UNL     1      23.022  -0.779  54.181  1.00  0.00     0.047 A 
HETATM   13  C10 UNL     1      23.884  -0.034  53.409  1.00  0.00     0.055 A 
HETATM   14  N4  UNL     1      23.378   0.621  52.367  1.00  0.00    -0.067 NA
BRANCH  13  15
HETATM   15  C11 UNL     1      25.352   0.027  53.732  1.00  0.00     0.059 C 
BRANCH  15  16
HETATM   16  C12 UNL     1      26.180  -0.332  52.521  1.00  0.00     0.002 C 
HETATM   17  C13 UNL     1      27.561  -0.839  52.953  1.00  0.00     0.005 C 
ENDBRANCH  15  16
ENDBRANCH  13  15
ENDBRANCH   7   9
ENDBRANCH   3   7
BRANCH   4  18
HETATM   18  O2  UNL     1      20.570   3.445  52.156  1.00  0.00    -0.354 OA
HETATM   19  C15 UNL     1      19.229   3.451  51.706  1.00  0.00     0.210 C 
ENDBRANCH   4  18
BRANCH   1  20
HETATM   20  N1  UNL     1      24.880   4.876  48.915  1.00  0.00    -0.322 N 
HETATM   21  C3  UNL     1      26.068   4.306  49.481  1.00  0.00     0.244 C 
HETATM   22  O1  UNL     1      26.426   3.555  50.424  1.00  0.00    -0.268 OA
HETATM   23  H4  UNL     1      25.073   5.453  48.079  1.00  0.00     0.169 HD
BRANCH  21  24
HETATM   24  C2  UNL     1      27.396   4.570  48.925  1.00  0.00     0.064 C 
HETATM   25  C1  UNL     1      27.087   5.814  48.502  1.00  0.00     0.017 C 
ENDBRANCH  21  24
ENDBRANCH   1  20
BRANCH   6  26
HETATM   26  N5  UNL     1      23.232   6.911  50.278  1.00  0.00    -0.382 N 
HETATM   27  C18 UNL     1      22.208   7.785  49.715  1.00  0.00     0.150 C 
BRANCH  26  28
HETATM   28  C19 UNL     1      24.362   7.758  50.706  1.00  0.00     0.141 C 
BRANCH  28  29
HETATM   29  C20 UNL     1      24.929   8.431  49.473  1.00  0.00     0.135 C 
BRANCH  29  30
HETATM   30  N6  UNL     1      25.877   9.453  49.717  1.00  0.00    -0.419 N 
HETATM   31  C21 UNL     1      25.944  10.443  48.663  1.00  0.00     0.142 C 
HETATM   32  C22 UNL     1      27.154   9.064  50.212  1.00  0.00     0.142 C 
ENDBRANCH  29  30
ENDBRANCH  28  29
ENDBRANCH  26  28
ENDBRANCH   6  26
TORSDOF 11
ENDMDL
MODEL 8
REMARK VINA RESULT:      -6.5      2.621      8.447
REMARK  11 active torsions:
REMARK  status: ('A' for Active; 'I' for Inactive)
REMARK    1  A    between atoms: C2_2  and  C3_3 
REMARK       I    between atoms: C3_3  and  N1_5 
REMARK    2  A    between atoms: N1_5  and  C4_6 
REMARK    3  A    between atoms: C6_8  and  N2_9 
REMARK    4  A    between atoms: N2_9  and  C7_10 
REMARK    5  A    between atoms: C10_14  and  C11_15 
REMARK    6  A    between atoms: C11_15  and  C12_16 
REMARK    7  A    between atoms: C14_19  and  O2_20 
REMARK    8  A    between atoms: C17_23  and  N5_24 
REMARK    9  A    between atoms: N5_24  and  C19_26 
REMARK   10  A    between atoms: C19_26  and  C20_27 
REMARK   11  A    between atoms: C20_27  and  N6_28 
ROOT
HETATM    1  C4  UNL     1      23.725   2.275  52.458  1.00  0.00     0.064 A 
HETATM    2  C5  UNL     1      24.291   3.517  52.298  1.00  0.00     0.065 A 
HETATM    3  C6  UNL     1      23.552   4.646  52.032  1.00  0.00     0.085 A 
HETATM    4  C14 UNL     1      22.179   4.514  51.921  1.00  0.00     0.097 A 
HETATM    5  C16 UNL     1      21.631   3.263  52.084  1.00  0.00     0.070 A 
HETATM    6  C17 UNL     1      22.361   2.096  52.360  1.00  0.00     0.059 A 
ENDROOT
BRANCH   3   7
HETATM    7  N2  UNL     1      24.198   5.907  51.889  1.00  0.00    -0.185 N 
HETATM    8  H6  UNL     1      24.398   6.428  52.794  1.00  0.00     0.184 HD
BRANCH   7   9
HETATM    9  C7  UNL     1      24.602   6.543  50.675  1.00  0.00     0.727 A 
HETATM   10  N3  UNL     1      24.170   7.618  49.980  1.00  0.00    -0.075 NA
HETATM   11  C8  UNL     1      24.782   7.971  48.814  1.00  0.00     0.138 A 
HETATM   12  C9  UNL     1      25.846   7.252  48.311  1.00  0.00     0.047 A 
HETATM   13  C10 UNL     1      26.286   6.158  49.021  1.00  0.00     0.055 A 
HETATM   14  N4  UNL     1      25.656   5.856  50.153  1.00  0.00    -0.067 NA
BRANCH  13  15
HETATM   15  C11 UNL     1      27.449   5.339  48.532  1.00  0.00     0.059 C 
BRANCH  15  16
HETATM   16  C12 UNL     1      28.562   6.234  48.039  1.00  0.00     0.002 C 
HETATM   17  C13 UNL     1      29.894   5.473  48.035  1.00  0.00     0.005 C 
ENDBRANCH  15  16
ENDBRANCH  13  15
ENDBRANCH   7   9
ENDBRANCH   3   7
BRANCH   4  18
HETATM   18  O2  UNL     1      21.469   5.673  51.650  1.00  0.00    -0.354 OA
HETATM   19  C15 UNL     1      20.834   5.899  50.407  1.00  0.00     0.210 C 
ENDBRANCH   4  18
BRANCH   1  20
HETATM   20  N1  UNL     1      24.418   1.051  52.682  1.00  0.00    -0.322 N 
HETATM   21  C3  UNL     1      25.535   1.321  53.540  1.00  0.00     0.244 C 
HETATM   22  O1  UNL     1      26.078   2.277  54.149  1.00  0.00    -0.268 OA
HETATM   23  H4  UNL     1      24.345   0.052  52.423  1.00  0.00     0.169 HD
BRANCH  21  24
HETATM   24  C2  UNL     1      26.469   0.271  53.951  1.00  0.00     0.064 C 
HETATM   25  C1  UNL     1      26.554  -0.281  52.723  1.00  0.00     0.017 C 
ENDBRANCH  21  24
ENDBRANCH   1  20
BRANCH   6  26
HETATM   26  N5  UNL     1      21.469   1.001  52.547  1.00  0.00    -0.382 N 
HETATM   27  C18 UNL     1      21.116   0.459  53.855  1.00  0.00     0.150 C 
BRANCH  26  28
HETATM   28  C19 UNL     1      20.801   0.178  51.522  1.00  0.00     0.141 C 
BRANCH  28  29
HETATM   29  C20 UNL     1      19.320   0.147  51.845  1.00  0.00     0.135 C 
BRANCH  29  30
HETATM   30  N6  UNL     1      18.531   1.118  51.183  1.00  0.00    -0.419 N 
HETATM   31  C21 UNL     1      17.108   0.868  51.278  1.00  0.00     0.142 C 
HETATM   32  C22 UNL     1      18.949   1.536  49.888  1.00  0.00     0.142 C 
ENDBRANCH  29  30
ENDBRANCH  28  29
ENDBRANCH  26  28
ENDBRANCH   6  26
TORSDOF 11
ENDMDL
MODEL 9
REMARK VINA RESULT:      -6.4      2.458      4.504
REMARK  11 active torsions:
REMARK  status: ('A' for Active; 'I' for Inactive)
REMARK    1  A    between atoms: C2_2  and  C3_3 
REMARK       I    between atoms: C3_3  and  N1_5 
REMARK    2  A    between atoms: N1_5  and  C4_6 
REMARK    3  A    between atoms: C6_8  and  N2_9 
REMARK    4  A    between atoms: N2_9  and  C7_10 
REMARK    5  A    between atoms: C10_14  and  C11_15 
REMARK    6  A    between atoms: C11_15  and  C12_16 
REMARK    7  A    between atoms: C14_19  and  O2_20 
REMARK    8  A    between atoms: C17_23  and  N5_24 
REMARK    9  A    between atoms: N5_24  and  C19_26 
REMARK   10  A    between atoms: C19_26  and  C20_27 
REMARK   11  A    between atoms: C20_27  and  N6_28 
ROOT
HETATM    1  C4  UNL     1      22.635   1.475  52.609  1.00  0.00     0.064 A 
HETATM    2  C5  UNL     1      21.418   2.068  52.367  1.00  0.00     0.065 A 
HETATM    3  C6  UNL     1      21.282   3.413  52.111  1.00  0.00     0.085 A 
HETATM    4  C14 UNL     1      22.424   4.194  52.103  1.00  0.00     0.097 A 
HETATM    5  C16 UNL     1      23.631   3.583  52.348  1.00  0.00     0.070 A 
HETATM    6  C17 UNL     1      23.799   2.213  52.607  1.00  0.00     0.059 A 
ENDROOT
BRANCH   3   7
HETATM    7  N2  UNL     1      19.994   3.966  51.856  1.00  0.00    -0.185 N 
HETATM    8  H6  UNL     1      19.871   4.988  52.117  1.00  0.00     0.184 HD
BRANCH   7   9
HETATM    9  C7  UNL     1      18.860   3.303  51.291  1.00  0.00     0.727 A 
HETATM   10  N3  UNL     1      18.684   2.424  50.281  1.00  0.00    -0.075 NA
HETATM   11  C8  UNL     1      17.435   1.973  49.975  1.00  0.00     0.138 A 
HETATM   12  C9  UNL     1      16.324   2.395  50.675  1.00  0.00     0.047 A 
HETATM   13  C10 UNL     1      16.505   3.290  51.705  1.00  0.00     0.055 A 
HETATM   14  N4  UNL     1      17.744   3.699  51.965  1.00  0.00    -0.067 NA
BRANCH  13  15
HETATM   15  C11 UNL     1      15.335   3.780  52.514  1.00  0.00     0.059 C 
BRANCH  15  16
HETATM   16  C12 UNL     1      14.114   3.946  51.641  1.00  0.00     0.002 C 
HETATM   17  C13 UNL     1      12.885   3.332  52.323  1.00  0.00     0.005 C 
ENDBRANCH  15  16
ENDBRANCH  13  15
ENDBRANCH   7   9
ENDBRANCH   3   7
BRANCH   4  18
HETATM   18  O2  UNL     1      22.244   5.544  51.846  1.00  0.00    -0.354 OA
HETATM   19  C15 UNL     1      22.747   6.167  50.680  1.00  0.00     0.210 C 
ENDBRANCH   4  18
BRANCH   1  20
HETATM   20  N1  UNL     1      22.860   0.107  52.932  1.00  0.00    -0.322 N 
HETATM   21  C3  UNL     1      22.006  -0.238  54.033  1.00  0.00     0.244 C 
HETATM   22  O1  UNL     1      21.136   0.276  54.780  1.00  0.00    -0.268 OA
HETATM   23  H4  UNL     1      23.432  -0.691  52.607  1.00  0.00     0.169 HD
BRANCH  21  24
HETATM   24  C2  UNL     1      22.007  -1.577  54.625  1.00  0.00     0.064 C 
HETATM   25  C1  UNL     1      23.070  -1.339  55.421  1.00  0.00     0.017 C 
ENDBRANCH  21  24
ENDBRANCH   1  20
BRANCH   6  26
HETATM   26  N5  UNL     1      25.186   1.913  52.732  1.00  0.00    -0.382 N 
HETATM   27  C18 UNL     1      26.055   1.613  51.600  1.00  0.00     0.150 C 
BRANCH  26  28
HETATM   28  C19 UNL     1      25.987   1.777  53.964  1.00  0.00     0.141 C 
BRANCH  28  29
HETATM   29  C20 UNL     1      26.979   0.652  53.749  1.00  0.00     0.135 C 
BRANCH  29  30
HETATM   30  N6  UNL     1      28.271   0.866  54.287  1.00  0.00    -0.419 N 
HETATM   31  C21 UNL     1      28.847   2.140  53.915  1.00  0.00     0.142 C 
HETATM   32  C22 UNL     1      29.196  -0.215  54.232  1.00  0.00     0.142 C 
ENDBRANCH  29  30
ENDBRANCH  28  29
ENDBRANCH  26  28
ENDBRANCH   6  26
TORSDOF 11
ENDMDL
