MODEL 1
REMARK VINA RESULT:      -7.6      0.000      0.000
REMARK  1 active torsions:
REMARK  status: ('A' for Active; 'I' for Inactive)
REMARK    1  A    between atoms: C11_14  and  C12_15 
ROOT
HETATM    1  N1  UNL     1      26.558  -1.268  53.832  1.00  0.00    -0.191 NA
HETATM    2  C1  UNL     1      25.527  -0.867  53.583  1.00  0.00     0.102 C 
HETATM    3  C2  UNL     1      24.247  -0.343  53.269  1.00  0.00     0.073 A 
HETATM    4  C3  UNL     1      23.077  -1.034  53.016  1.00  0.00     0.142 A 
HETATM    5  N2  UNL     1      21.875  -0.517  52.716  1.00  0.00    -0.241 NA
HETATM    6  C4  UNL     1      21.657   0.791  52.620  1.00  0.00     0.139 A 
HETATM    7  C5  UNL     1      22.782   1.529  52.868  1.00  0.00     0.024 A 
HETATM    8  C6  UNL     1      23.192   2.838  52.889  1.00  0.00     0.045 A 
HETATM    9  C7  UNL     1      23.792   4.038  52.957  1.00  0.00     0.029 A 
HETATM   10  C8  UNL     1      24.932   3.353  53.248  1.00  0.00     0.030 A 
HETATM   11  C9  UNL     1      25.105   1.964  53.363  1.00  0.00     0.016 A 
HETATM   12  C10 UNL     1      24.066   1.049  53.183  1.00  0.00     0.000 A 
HETATM   13  N3  UNL     1      23.035   5.163  52.707  1.00  0.00    -0.375 N 
HETATM   14  C11 UNL     1      22.298   5.706  51.515  1.00  0.00     0.176 C 
HETATM   15  C13 UNL     1      21.631   4.532  50.826  1.00  0.00    -0.025 A 
HETATM   16  C14 UNL     1      21.997   4.221  49.545  1.00  0.00     0.029 A 
HETATM   17  C15 UNL     1      21.637   2.900  49.231  1.00  0.00     0.013 A 
HETATM   18 BR1  UNL     1      22.065   2.315  47.458  1.00  0.00    -0.051 Br
HETATM   19  C16 UNL     1      20.994   2.057  50.158  1.00  0.00     0.048 A 
HETATM   20  C17 UNL     1      20.746   2.635  51.380  1.00  0.00     0.035 A 
HETATM   21  C18 UNL     1      21.010   3.903  51.847  1.00  0.00     0.039 A 
HETATM   22  N4  UNL     1      20.436   1.427  52.150  1.00  0.00    -0.340 N 
HETATM   23  H5  UNL     1      23.294   5.334  53.700  1.00  0.00     0.160 HD
HETATM   24  H11 UNL     1      19.547   1.001  52.321  1.00  0.00     0.167 HD
ENDROOT
BRANCH  14  25
HETATM   25  C12 UNL     1      23.324   6.239  50.587  1.00  0.00     0.261 C 
HETATM   26  O1  UNL     1      24.410   6.739  50.281  1.00  0.00    -0.304 OA
ENDBRANCH  14  25
TORSDOF 1
ENDMDL
MODEL 2
REMARK VINA RESULT:      -7.5      2.820      4.106
REMARK  1 active torsions:
REMARK  status: ('A' for Active; 'I' for Inactive)
REMARK    1  A    between atoms: C11_14  and  C12_15 
ROOT
HETATM    1  N1  UNL     1      26.384   0.147  55.708  1.00  0.00    -0.191 NA
HETATM    2  C1  UNL     1      26.406   0.626  54.681  1.00  0.00     0.102 C 
HETATM    3  C2  UNL     1      26.409   1.223  53.394  1.00  0.00     0.073 A 
HETATM    4  C3  UNL     1      27.467   1.805  52.722  1.00  0.00     0.142 A 
HETATM    5  N2  UNL     1      27.447   2.370  51.504  1.00  0.00    -0.241 NA
HETATM    6  C4  UNL     1      26.347   2.440  50.762  1.00  0.00     0.139 A 
HETATM    7  C5  UNL     1      25.263   1.872  51.374  1.00  0.00     0.024 A 
HETATM    8  C6  UNL     1      23.924   1.669  51.157  1.00  0.00     0.045 A 
HETATM    9  C7  UNL     1      22.612   1.380  51.146  1.00  0.00     0.029 A 
HETATM   10  C8  UNL     1      22.808   0.851  52.384  1.00  0.00     0.030 A 
HETATM   11  C9  UNL     1      24.002   0.777  53.119  1.00  0.00     0.016 A 
HETATM   12  C10 UNL     1      25.219   1.270  52.645  1.00  0.00     0.000 A 
HETATM   13  N3  UNL     1      21.872   1.747  50.041  1.00  0.00    -0.375 N 
HETATM   14  C11 UNL     1      21.493   3.053  49.401  1.00  0.00     0.176 C 
HETATM   15  C13 UNL     1      22.708   3.957  49.470  1.00  0.00    -0.025 A 
HETATM   16  C14 UNL     1      22.628   5.119  50.187  1.00  0.00     0.029 A 
HETATM   17  C15 UNL     1      23.910   5.592  50.513  1.00  0.00     0.013 A 
HETATM   18 BR1  UNL     1      23.970   7.230  51.505  1.00  0.00    -0.051 Br
HETATM   19  C16 UNL     1      25.081   4.911  50.129  1.00  0.00     0.048 A 
HETATM   20  C17 UNL     1      24.863   3.760  49.410  1.00  0.00     0.035 A 
HETATM   21  C18 UNL     1      23.693   3.167  48.993  1.00  0.00     0.039 A 
HETATM   22  N4  UNL     1      26.199   3.167  49.510  1.00  0.00    -0.340 N 
HETATM   23  H5  UNL     1      21.775   0.712  49.991  1.00  0.00     0.160 HD
HETATM   24  H11 UNL     1      26.974   3.252  48.883  1.00  0.00     0.167 HD
ENDROOT
BRANCH  14  25
HETATM   25  C12 UNL     1      20.442   3.656  50.256  1.00  0.00     0.261 C 
HETATM   26  O1  UNL     1      19.571   3.661  51.130  1.00  0.00    -0.304 OA
ENDBRANCH  14  25
TORSDOF 1
ENDMDL
MODEL 3
REMARK VINA RESULT:      -7.5      1.871      2.762
REMARK  1 active torsions:
REMARK  status: ('A' for Active; 'I' for Inactive)
REMARK    1  A    between atoms: C11_14  and  C12_15 
ROOT
HETATM    1  N1  UNL     1      21.603  -1.980  54.047  1.00  0.00    -0.191 NA
HETATM    2  C1  UNL     1      21.395  -0.931  53.672  1.00  0.00     0.102 C 
HETATM    3  C2  UNL     1      21.158   0.385  53.197  1.00  0.00     0.073 A 
HETATM    4  C3  UNL     1      19.946   1.006  52.963  1.00  0.00     0.142 A 
HETATM    5  N2  UNL     1      19.744   2.253  52.508  1.00  0.00    -0.241 NA
HETATM    6  C4  UNL     1      20.740   3.082  52.213  1.00  0.00     0.139 A 
HETATM    7  C5  UNL     1      21.970   2.522  52.432  1.00  0.00     0.024 A 
HETATM    8  C6  UNL     1      23.299   2.830  52.297  1.00  0.00     0.045 A 
HETATM    9  C7  UNL     1      24.638   2.926  52.236  1.00  0.00     0.029 A 
HETATM   10  C8  UNL     1      24.663   1.647  52.700  1.00  0.00     0.030 A 
HETATM   11  C9  UNL     1      23.576   0.819  53.023  1.00  0.00     0.016 A 
HETATM   12  C10 UNL     1      22.246   1.226  52.902  1.00  0.00     0.000 A 
HETATM   13  N3  UNL     1      25.188   4.105  51.776  1.00  0.00    -0.375 N 
HETATM   14  C11 UNL     1      25.171   4.848  50.470  1.00  0.00     0.176 C 
HETATM   15  C13 UNL     1      23.767   4.739  49.909  1.00  0.00    -0.025 A 
HETATM   16  C14 UNL     1      23.579   4.100  48.715  1.00  0.00     0.029 A 
HETATM   17  C15 UNL     1      22.239   3.705  48.567  1.00  0.00     0.013 A 
HETATM   18 BR1  UNL     1      21.807   2.810  46.929  1.00  0.00    -0.051 Br
HETATM   19  C16 UNL     1      21.269   3.956  49.556  1.00  0.00     0.048 A 
HETATM   20  C17 UNL     1      21.741   4.620  50.663  1.00  0.00     0.035 A 
HETATM   21  C18 UNL     1      22.999   5.091  50.963  1.00  0.00     0.039 A 
HETATM   22  N4  UNL     1      20.616   4.381  51.572  1.00  0.00    -0.340 N 
HETATM   23  H5  UNL     1      25.553   4.100  52.751  1.00  0.00     0.160 HD
HETATM   24  H11 UNL     1      19.811   4.951  51.740  1.00  0.00     0.167 HD
ENDROOT
BRANCH  14  25
HETATM   25  C12 UNL     1      26.073   4.114  49.551  1.00  0.00     0.261 C 
HETATM   26  O1  UNL     1      27.162   3.738  49.109  1.00  0.00    -0.304 OA
ENDBRANCH  14  25
TORSDOF 1
ENDMDL
MODEL 4
REMARK VINA RESULT:      -7.4      3.676      5.832
REMARK  1 active torsions:
REMARK  status: ('A' for Active; 'I' for Inactive)
REMARK    1  A    between atoms: C11_14  and  C12_15 
ROOT
HETATM    1  N1  UNL     1      28.994   7.845  47.025  1.00  0.00    -0.191 NA
HETATM    2  C1  UNL     1      28.407   7.087  47.631  1.00  0.00     0.102 C 
HETATM    3  C2  UNL     1      27.654   6.157  48.393  1.00  0.00     0.073 A 
HETATM    4  C3  UNL     1      27.897   4.810  48.583  1.00  0.00     0.142 A 
HETATM    5  N2  UNL     1      27.168   3.944  49.305  1.00  0.00    -0.241 NA
HETATM    6  C4  UNL     1      26.066   4.301  49.958  1.00  0.00     0.139 A 
HETATM    7  C5  UNL     1      25.778   5.631  49.812  1.00  0.00     0.024 A 
HETATM    8  C6  UNL     1      24.822   6.542  50.184  1.00  0.00     0.045 A 
HETATM    9  C7  UNL     1      24.002   7.578  50.427  1.00  0.00     0.029 A 
HETATM   10  C8  UNL     1      24.849   8.315  49.657  1.00  0.00     0.030 A 
HETATM   11  C9  UNL     1      26.020   7.894  49.008  1.00  0.00     0.016 A 
HETATM   12  C10 UNL     1      26.497   6.584  49.069  1.00  0.00     0.000 A 
HETATM   13  N3  UNL     1      22.884   7.357  51.204  1.00  0.00    -0.375 N 
HETATM   14  C11 UNL     1      21.638   6.528  51.063  1.00  0.00     0.176 C 
HETATM   15  C13 UNL     1      22.046   5.204  50.447  1.00  0.00    -0.025 A 
HETATM   16  C14 UNL     1      21.540   4.859  49.225  1.00  0.00     0.029 A 
HETATM   17  C15 UNL     1      22.331   3.868  48.620  1.00  0.00     0.013 A 
HETATM   18 BR1  UNL     1      21.740   3.259  46.902  1.00  0.00    -0.051 Br
HETATM   19  C16 UNL     1      23.482   3.346  49.239  1.00  0.00     0.048 A 
HETATM   20  C17 UNL     1      23.759   3.880  50.475  1.00  0.00     0.035 A 
HETATM   21  C18 UNL     1      23.093   4.830  51.215  1.00  0.00     0.039 A 
HETATM   22  N4  UNL     1      25.137   3.406  50.630  1.00  0.00    -0.340 N 
HETATM   23  H5  UNL     1      23.395   8.033  51.807  1.00  0.00     0.160 HD
HETATM   24  H11 UNL     1      25.469   2.569  51.066  1.00  0.00     0.167 HD
ENDROOT
BRANCH  14  25
HETATM   25  C12 UNL     1      20.771   7.224  50.083  1.00  0.00     0.261 C 
HETATM   26  O1  UNL     1      19.908   8.027  49.718  1.00  0.00    -0.304 OA
ENDBRANCH  14  25
TORSDOF 1
ENDMDL
MODEL 5
REMARK VINA RESULT:      -7.3      2.796      4.272
REMARK  1 active torsions:
REMARK  status: ('A' for Active; 'I' for Inactive)
REMARK    1  A    between atoms: C11_14  and  C12_15 
ROOT
HETATM    1  N1  UNL     1      21.543  -0.845  54.998  1.00  0.00    -0.191 NA
HETATM    2  C1  UNL     1      22.133  -0.260  54.228  1.00  0.00     0.102 C 
HETATM    3  C2  UNL     1      22.853   0.473  53.249  1.00  0.00     0.073 A 
HETATM    4  C3  UNL     1      24.111   1.035  53.353  1.00  0.00     0.142 A 
HETATM    5  N2  UNL     1      24.773   1.730  52.413  1.00  0.00    -0.241 NA
HETATM    6  C4  UNL     1      24.268   1.972  51.208  1.00  0.00     0.139 A 
HETATM    7  C5  UNL     1      23.022   1.431  51.043  1.00  0.00     0.024 A 
HETATM    8  C6  UNL     1      22.025   1.365  50.103  1.00  0.00     0.045 A 
HETATM    9  C7  UNL     1      20.936   1.189  49.336  1.00  0.00     0.029 A 
HETATM   10  C8  UNL     1      20.409   0.512  50.393  1.00  0.00     0.030 A 
HETATM   11  C9  UNL     1      20.997   0.261  51.643  1.00  0.00     0.016 A 
HETATM   12  C10 UNL     1      22.277   0.699  51.985  1.00  0.00     0.000 A 
HETATM   13  N3  UNL     1      20.934   1.735  48.069  1.00  0.00    -0.375 N 
HETATM   14  C11 UNL     1      20.983   3.130  47.512  1.00  0.00     0.176 C 
HETATM   15  C13 UNL     1      21.964   3.917  48.358  1.00  0.00    -0.025 A 
HETATM   16  C14 UNL     1      21.511   4.996  49.066  1.00  0.00     0.029 A 
HETATM   17  C15 UNL     1      22.402   5.323  50.101  1.00  0.00     0.013 A 
HETATM   18 BR1  UNL     1      21.917   6.831  51.178  1.00  0.00    -0.051 Br
HETATM   19  C16 UNL     1      23.584   4.593  50.332  1.00  0.00     0.048 A 
HETATM   20  C17 UNL     1      23.791   3.550  49.461  1.00  0.00     0.035 A 
HETATM   21  C18 UNL     1      23.043   3.105  48.394  1.00  0.00     0.039 A 
HETATM   22  N4  UNL     1      24.844   2.841  50.194  1.00  0.00    -0.340 N 
HETATM   23  H5  UNL     1      20.872   0.723  47.833  1.00  0.00     0.160 HD
HETATM   24  H11 UNL     1      25.837   2.930  50.111  1.00  0.00     0.167 HD
ENDROOT
BRANCH  14  25
HETATM   25  C12 UNL     1      19.640   3.720  47.726  1.00  0.00     0.261 C 
HETATM   26  O1  UNL     1      18.420   3.699  47.909  1.00  0.00    -0.304 OA
ENDBRANCH  14  25
TORSDOF 1
ENDMDL
MODEL 6
REMARK VINA RESULT:      -7.2     22.770     24.956
REMARK  1 active torsions:
REMARK  status: ('A' for Active; 'I' for Inactive)
REMARK    1  A    between atoms: C11_14  and  C12_15 
ROOT
HETATM    1  N1  UNL     1      45.410  -1.538  70.725  1.00  0.00    -0.191 NA
HETATM    2  C1  UNL     1      44.566  -1.294  70.007  1.00  0.00     0.102 C 
HETATM    3  C2  UNL     1      43.501  -1.011  69.114  1.00  0.00     0.073 A 
HETATM    4  C3  UNL     1      43.208   0.181  68.480  1.00  0.00     0.142 A 
HETATM    5  N2  UNL     1      42.190   0.428  67.640  1.00  0.00    -0.241 NA
HETATM    6  C4  UNL     1      41.295  -0.495  67.303  1.00  0.00     0.139 A 
HETATM    7  C5  UNL     1      41.538  -1.703  67.897  1.00  0.00     0.024 A 
HETATM    8  C6  UNL     1      40.994  -2.960  67.975  1.00  0.00     0.045 A 
HETATM    9  C7  UNL     1      40.627  -4.234  68.192  1.00  0.00     0.029 A 
HETATM   10  C8  UNL     1      41.706  -4.312  69.018  1.00  0.00     0.030 A 
HETATM   11  C9  UNL     1      42.641  -3.310  69.322  1.00  0.00     0.016 A 
HETATM   12  C10 UNL     1      42.581  -2.023  68.785  1.00  0.00     0.000 A 
HETATM   13  N3  UNL     1      39.493  -4.703  67.560  1.00  0.00    -0.375 N 
HETATM   14  C11 UNL     1      38.029  -4.371  67.619  1.00  0.00     0.176 C 
HETATM   15  C13 UNL     1      37.914  -2.862  67.723  1.00  0.00    -0.025 A 
HETATM   16  C14 UNL     1      37.338  -2.318  68.838  1.00  0.00     0.029 A 
HETATM   17  C15 UNL     1      37.703  -0.969  68.979  1.00  0.00     0.013 A 
HETATM   18 BR1  UNL     1      36.960  -0.054  70.489  1.00  0.00    -0.051 Br
HETATM   19  C16 UNL     1      38.557  -0.323  68.064  1.00  0.00     0.048 A 
HETATM   20  C17 UNL     1      38.991  -1.117  67.030  1.00  0.00     0.035 A 
HETATM   21  C18 UNL     1      38.723  -2.434  66.731  1.00  0.00     0.039 A 
HETATM   22  N4  UNL     1      40.081  -0.274  66.532  1.00  0.00    -0.340 N 
HETATM   23  H5  UNL     1      40.212  -5.320  67.129  1.00  0.00     0.160 HD
HETATM   24  H11 UNL     1      40.061   0.421  65.812  1.00  0.00     0.167 HD
ENDROOT
BRANCH  14  25
HETATM   25  C12 UNL     1      37.513  -4.943  68.885  1.00  0.00     0.261 C 
HETATM   26  O1  UNL     1      37.486  -5.735  69.831  1.00  0.00    -0.304 OA
ENDBRANCH  14  25
TORSDOF 1
ENDMDL
MODEL 7
REMARK VINA RESULT:      -7.1     10.049     12.446
REMARK  1 active torsions:
REMARK  status: ('A' for Active; 'I' for Inactive)
REMARK    1  A    between atoms: C11_14  and  C12_15 
ROOT
HETATM    1  N1  UNL     1      26.610   8.394  46.523  1.00  0.00    -0.191 NA
HETATM    2  C1  UNL     1      27.740   8.454  46.450  1.00  0.00     0.102 C 
HETATM    3  C2  UNL     1      29.155   8.505  46.368  1.00  0.00     0.073 A 
HETATM    4  C3  UNL     1      29.944   9.463  45.759  1.00  0.00     0.142 A 
HETATM    5  N2  UNL     1      31.284   9.490  45.689  1.00  0.00    -0.241 NA
HETATM    6  C4  UNL     1      32.052   8.548  46.227  1.00  0.00     0.139 A 
HETATM    7  C5  UNL     1      31.325   7.572  46.852  1.00  0.00     0.024 A 
HETATM    8  C6  UNL     1      31.516   6.391  47.523  1.00  0.00     0.045 A 
HETATM    9  C7  UNL     1      31.483   5.225  48.190  1.00  0.00     0.029 A 
HETATM   10  C8  UNL     1      30.127   5.351  48.166  1.00  0.00     0.030 A 
HETATM   11  C9  UNL     1      29.361   6.385  47.605  1.00  0.00     0.016 A 
HETATM   12  C10 UNL     1      29.925   7.486  46.957  1.00  0.00     0.000 A 
HETATM   13  N3  UNL     1      32.680   4.604  48.479  1.00  0.00    -0.375 N 
HETATM   14  C11 UNL     1      33.787   3.996  47.664  1.00  0.00     0.176 C 
HETATM   15  C13 UNL     1      34.006   4.895  46.462  1.00  0.00    -0.025 A 
HETATM   16  C14 UNL     1      33.790   4.390  45.210  1.00  0.00     0.029 A 
HETATM   17  C15 UNL     1      33.605   5.427  44.281  1.00  0.00     0.013 A 
HETATM   18 BR1  UNL     1      33.309   4.883  42.468  1.00  0.00    -0.051 Br
HETATM   19  C16 UNL     1      33.641   6.784  44.653  1.00  0.00     0.048 A 
HETATM   20  C17 UNL     1      33.877   7.004  45.989  1.00  0.00     0.035 A 
HETATM   21  C18 UNL     1      34.096   6.121  47.022  1.00  0.00     0.039 A 
HETATM   22  N4  UNL     1      33.492   8.416  46.065  1.00  0.00    -0.340 N 
HETATM   23  H5  UNL     1      32.337   4.797  49.442  1.00  0.00     0.160 HD
HETATM   24  H11 UNL     1      34.065   9.230  45.967  1.00  0.00     0.167 HD
ENDROOT
BRANCH  14  25
HETATM   25  C12 UNL     1      33.280   2.698  47.158  1.00  0.00     0.261 C 
HETATM   26  O1  UNL     1      32.680   1.622  47.230  1.00  0.00    -0.304 OA
ENDBRANCH  14  25
TORSDOF 1
ENDMDL
MODEL 8
REMARK VINA RESULT:      -7.0      8.209     10.939
REMARK  1 active torsions:
REMARK  status: ('A' for Active; 'I' for Inactive)
REMARK    1  A    between atoms: C11_14  and  C12_15 
ROOT
HETATM    1  N1  UNL     1      24.353   7.538  47.187  1.00  0.00    -0.191 NA
HETATM    2  C1  UNL     1      25.264   7.993  47.684  1.00  0.00     0.102 C 
HETATM    3  C2  UNL     1      26.418   8.543  48.300  1.00  0.00     0.073 A 
HETATM    4  C3  UNL     1      26.581   9.805  48.840  1.00  0.00     0.142 A 
HETATM    5  N2  UNL     1      27.685  10.308  49.415  1.00  0.00    -0.241 NA
HETATM    6  C4  UNL     1      28.812   9.614  49.541  1.00  0.00     0.139 A 
HETATM    7  C5  UNL     1      28.708   8.349  49.028  1.00  0.00     0.024 A 
HETATM    8  C6  UNL     1      29.479   7.232  48.834  1.00  0.00     0.045 A 
HETATM    9  C7  UNL     1      30.055   6.052  48.547  1.00  0.00     0.029 A 
HETATM   10  C8  UNL     1      28.860   5.702  47.997  1.00  0.00     0.030 A 
HETATM   11  C9  UNL     1      27.685   6.467  47.913  1.00  0.00     0.016 A 
HETATM   12  C10 UNL     1      27.585   7.767  48.413  1.00  0.00     0.000 A 
HETATM   13  N3  UNL     1      31.376   5.868  48.898  1.00  0.00    -0.375 N 
HETATM   14  C11 UNL     1      32.681   6.495  48.495  1.00  0.00     0.176 C 
HETATM   15  C13 UNL     1      32.439   7.986  48.356  1.00  0.00    -0.025 A 
HETATM   16  C14 UNL     1      32.614   8.573  47.133  1.00  0.00     0.029 A 
HETATM   17  C15 UNL     1      31.943   9.805  47.072  1.00  0.00     0.013 A 
HETATM   18 BR1  UNL     1      32.107  10.767  45.423  1.00  0.00    -0.051 Br
HETATM   19  C16 UNL     1      31.201  10.310  48.157  1.00  0.00     0.048 A 
HETATM   20  C17 UNL     1      31.196   9.504  49.270  1.00  0.00     0.035 A 
HETATM   21  C18 UNL     1      31.804   8.292  49.507  1.00  0.00     0.039 A 
HETATM   22  N4  UNL     1      30.091  10.128  50.004  1.00  0.00    -0.340 N 
HETATM   23  H5  UNL     1      30.926   5.140  49.490  1.00  0.00     0.160 HD
HETATM   24  H11 UNL     1      30.124  10.852  50.694  1.00  0.00     0.167 HD
ENDROOT
BRANCH  14  25
HETATM   25  C12 UNL     1      33.007   5.972  47.147  1.00  0.00     0.261 C 
HETATM   26  O1  UNL     1      32.758   5.484  46.041  1.00  0.00    -0.304 OA
ENDBRANCH  14  25
TORSDOF 1
ENDMDL
MODEL 9
REMARK VINA RESULT:      -6.6     19.774     22.024
REMARK  1 active torsions:
REMARK  status: ('A' for Active; 'I' for Inactive)
REMARK    1  A    between atoms: C11_14  and  C12_15 
ROOT
HETATM    1  N1  UNL     1      38.477   6.245  54.387  1.00  0.00    -0.191 NA
HETATM    2  C1  UNL     1      39.595   6.309  54.565  1.00  0.00     0.102 C 
HETATM    3  C2  UNL     1      40.996   6.407  54.770  1.00  0.00     0.073 A 
HETATM    4  C3  UNL     1      41.753   5.857  55.787  1.00  0.00     0.142 A 
HETATM    5  N2  UNL     1      43.079   5.966  55.966  1.00  0.00    -0.241 NA
HETATM    6  C4  UNL     1      43.862   6.653  55.140  1.00  0.00     0.139 A 
HETATM    7  C5  UNL     1      43.167   7.217  54.105  1.00  0.00     0.024 A 
HETATM    8  C6  UNL     1      43.381   8.020  53.014  1.00  0.00     0.045 A 
HETATM    9  C7  UNL     1      43.373   8.793  51.915  1.00  0.00     0.029 A 
HETATM   10  C8  UNL     1      42.028   8.583  51.885  1.00  0.00     0.030 A 
HETATM   11  C9  UNL     1      41.248   7.823  52.771  1.00  0.00     0.016 A 
HETATM   12  C10 UNL     1      41.783   7.143  53.866  1.00  0.00     0.000 A 
HETATM   13  N3  UNL     1      44.569   9.327  51.483  1.00  0.00    -0.375 N 
HETATM   14  C11 UNL     1      45.562  10.304  52.046  1.00  0.00     0.176 C 
HETATM   15  C13 UNL     1      45.691  10.010  53.528  1.00  0.00    -0.025 A 
HETATM   16  C14 UNL     1      45.328  10.975  54.427  1.00  0.00     0.029 A 
HETATM   17  C15 UNL     1      45.088  10.412  55.691  1.00  0.00     0.013 A 
HETATM   18 BR1  UNL     1      44.587  11.641  57.073  1.00  0.00    -0.051 Br
HETATM   19  C16 UNL     1      45.213   9.030  55.934  1.00  0.00     0.048 A 
HETATM   20  C17 UNL     1      45.594   8.291  54.840  1.00  0.00     0.035 A 
HETATM   21  C18 UNL     1      45.884   8.674  53.550  1.00  0.00     0.039 A 
HETATM   22  N4  UNL     1      45.271   6.952  55.341  1.00  0.00    -0.340 N 
HETATM   23  H5  UNL     1      44.334   8.722  50.670  1.00  0.00     0.160 HD
HETATM   24  H11 UNL     1      45.862   6.300  55.819  1.00  0.00     0.167 HD
ENDROOT
BRANCH  14  25
HETATM   25  C12 UNL     1      44.958  11.651  51.912  1.00  0.00     0.261 C 
HETATM   26  O1  UNL     1      44.131  12.476  51.515  1.00  0.00    -0.304 OA
ENDBRANCH  14  25
TORSDOF 1
ENDMDL
