MODEL 1
REMARK VINA RESULT:      -8.8      0.000      0.000
REMARK  6 active torsions:
REMARK  status: ('A' for Active; 'I' for Inactive)
REMARK    1  A    between atoms: O1_2  and  C2_3 
REMARK    2  A    between atoms: C7_8  and  C8_9 
REMARK       I    between atoms: C8_9  and  N1_11 
REMARK    3  A    between atoms: N1_11  and  C9_12 
REMARK    4  A    between atoms: C11_14  and  C12_15 
REMARK    5  A    between atoms: N3_17  and  C13_18 
REMARK    6  A    between atoms: C16_21  and  C17_22 
ROOT
HETATM    1  C9  UNL     1      23.967   1.483  52.673  1.00  0.00     0.050 C 
HETATM    2  C10 UNL     1      23.626   2.686  53.118  1.00  0.00     0.034 C 
HETATM    3  C11 UNL     1      22.986   3.431  52.266  1.00  0.00     0.067 C 
HETATM    4  N3  UNL     1      21.773   2.939  51.735  1.00  0.00    -0.328 N 
HETATM    5  C22 UNL     1      21.692   1.493  51.684  1.00  0.00     0.096 C 
HETATM    6  C23 UNL     1      22.760   0.814  52.140  1.00  0.00     0.048 C 
ENDROOT
BRANCH   1   7
HETATM    7  N1  UNL     1      25.276   0.964  52.720  1.00  0.00    -0.322 N 
HETATM    8  C8  UNL     1      25.834  -0.077  53.456  1.00  0.00     0.259 C 
HETATM    9  O2  UNL     1      24.992  -0.638  54.204  1.00  0.00    -0.267 OA
HETATM   10  H8  UNL     1      25.905   1.483  52.071  1.00  0.00     0.169 HD
BRANCH   8  11
HETATM   11  C7  UNL     1      27.197  -0.558  53.453  1.00  0.00     0.065 A 
HETATM   12  C2  UNL     1      28.349   0.067  53.862  1.00  0.00     0.084 A 
HETATM   13  C3  UNL     1      29.605  -0.485  53.817  1.00  0.00     0.038 A 
HETATM   14  C4  UNL     1      29.768  -1.754  53.335  1.00  0.00     0.003 A 
HETATM   15  C5  UNL     1      28.652  -2.436  52.909  1.00  0.00     0.001 A 
HETATM   16  C6  UNL     1      27.425  -1.845  52.973  1.00  0.00     0.020 A 
BRANCH  12  17
HETATM   17  O1  UNL     1      28.212   1.349  54.353  1.00  0.00    -0.355 OA
HETATM   18  C1  UNL     1      28.642   2.457  53.628  1.00  0.00     0.210 C 
ENDBRANCH  12  17
ENDBRANCH   8  11
ENDBRANCH   1   7
BRANCH   3  19
HETATM   19  C12 UNL     1      23.432   4.731  51.806  1.00  0.00     0.137 C 
HETATM   20  N2  UNL     1      23.791   5.504  52.766  1.00  0.00    -0.310 NA
HETATM   21  H10 UNL     1      24.140   6.472  52.639  1.00  0.00     0.186 HD
ENDBRANCH   3  19
BRANCH   4  22
HETATM   22  C13 UNL     1      20.655   3.676  51.274  1.00  0.00     0.236 A 
HETATM   23  C14 UNL     1      20.229   3.350  49.870  1.00  0.00     0.024 A 
HETATM   24  C15 UNL     1      18.910   3.128  49.873  1.00  0.00     0.032 A 
HETATM   25  C16 UNL     1      18.433   3.289  51.241  1.00  0.00     0.065 A 
HETATM   26  N5  UNL     1      19.446   3.599  52.020  1.00  0.00    -0.259 NA
BRANCH  25  27
HETATM   27  C17 UNL     1      17.030   3.122  51.635  1.00  0.00     0.010 A 
HETATM   28  C18 UNL     1      16.274   4.169  52.116  1.00  0.00     0.017 A 
HETATM   29  C19 UNL     1      14.959   4.047  52.494  1.00  0.00     0.020 A 
HETATM   30  C20 UNL     1      14.385   2.783  52.373  1.00  0.00     0.116 A 
HETATM   31  N4  UNL     1      15.108   1.756  51.906  1.00  0.00    -0.272 NA
HETATM   32  C21 UNL     1      16.406   1.901  51.540  1.00  0.00     0.130 A 
ENDBRANCH  25  27
ENDBRANCH   4  22
TORSDOF 6
ENDMDL
MODEL 2
REMARK VINA RESULT:      -8.7      5.327      7.732
REMARK  6 active torsions:
REMARK  status: ('A' for Active; 'I' for Inactive)
REMARK    1  A    between atoms: O1_2  and  C2_3 
REMARK    2  A    between atoms: C7_8  and  C8_9 
REMARK       I    between atoms: C8_9  and  N1_11 
REMARK    3  A    between atoms: N1_11  and  C9_12 
REMARK    4  A    between atoms: C11_14  and  C12_15 
REMARK    5  A    between atoms: N3_17  and  C13_18 
REMARK    6  A    between atoms: C16_21  and  C17_22 
ROOT
HETATM    1  C9  UNL     1      27.190   5.021  49.032  1.00  0.00     0.050 C 
HETATM    2  C10 UNL     1      26.867   3.734  49.061  1.00  0.00     0.034 C 
HETATM    3  C11 UNL     1      26.134   3.369  50.071  1.00  0.00     0.067 C 
HETATM    4  N3  UNL     1      24.887   4.008  50.249  1.00  0.00    -0.328 N 
HETATM    5  C22 UNL     1      24.833   5.358  49.726  1.00  0.00     0.096 C 
HETATM    6  C23 UNL     1      25.953   5.824  49.145  1.00  0.00     0.048 C 
ENDROOT
BRANCH   1   7
HETATM    7  N1  UNL     1      28.508   5.503  48.911  1.00  0.00    -0.322 N 
HETATM    8  C8  UNL     1      29.059   6.505  48.117  1.00  0.00     0.259 C 
HETATM    9  O2  UNL     1      28.200   7.063  47.387  1.00  0.00    -0.267 OA
HETATM   10  H8  UNL     1      29.152   4.989  49.550  1.00  0.00     0.169 HD
BRANCH   8  11
HETATM   11  C7  UNL     1      30.433   6.949  48.045  1.00  0.00     0.065 A 
HETATM   12  C2  UNL     1      31.595   6.218  48.083  1.00  0.00     0.084 A 
HETATM   13  C3  UNL     1      32.860   6.744  48.005  1.00  0.00     0.038 A 
HETATM   14  C4  UNL     1      33.024   8.096  47.879  1.00  0.00     0.003 A 
HETATM   15  C5  UNL     1      31.898   8.885  47.834  1.00  0.00     0.001 A 
HETATM   16  C6  UNL     1      30.661   8.317  47.915  1.00  0.00     0.020 A 
BRANCH  12  17
HETATM   17  O1  UNL     1      31.458   4.851  48.209  1.00  0.00    -0.355 OA
HETATM   18  C1  UNL     1      32.130   3.971  47.366  1.00  0.00     0.210 C 
ENDBRANCH  12  17
ENDBRANCH   8  11
ENDBRANCH   1   7
BRANCH   3  19
HETATM   19  C12 UNL     1      26.507   2.359  51.041  1.00  0.00     0.137 C 
HETATM   20  N2  UNL     1      27.288   2.809  51.954  1.00  0.00    -0.310 NA
HETATM   21  H10 UNL     1      27.664   2.240  52.736  1.00  0.00     0.186 HD
ENDBRANCH   3  19
BRANCH   4  22
HETATM   22  C13 UNL     1      23.715   3.490  50.853  1.00  0.00     0.236 A 
HETATM   23  C14 UNL     1      22.945   2.525  49.994  1.00  0.00     0.024 A 
HETATM   24  C15 UNL     1      22.684   1.434  50.721  1.00  0.00     0.032 A 
HETATM   25  C16 UNL     1      23.261   1.630  52.045  1.00  0.00     0.065 A 
HETATM   26  N5  UNL     1      23.843   2.808  52.093  1.00  0.00    -0.259 NA
BRANCH  25  27
HETATM   27  C17 UNL     1      23.175   0.638  53.121  1.00  0.00     0.010 A 
HETATM   28  C18 UNL     1      21.976   0.292  53.705  1.00  0.00     0.017 A 
HETATM   29  C19 UNL     1      21.859  -0.633  54.715  1.00  0.00     0.020 A 
HETATM   30  C20 UNL     1      23.036  -1.237  55.151  1.00  0.00     0.116 A 
HETATM   31  N4  UNL     1      24.210  -0.911  54.593  1.00  0.00    -0.272 NA
HETATM   32  C21 UNL     1      24.299   0.005  53.597  1.00  0.00     0.130 A 
ENDBRANCH  25  27
ENDBRANCH   4  22
TORSDOF 6
ENDMDL
MODEL 3
REMARK VINA RESULT:      -8.3      5.384      7.848
REMARK  6 active torsions:
REMARK  status: ('A' for Active; 'I' for Inactive)
REMARK    1  A    between atoms: O1_2  and  C2_3 
REMARK    2  A    between atoms: C7_8  and  C8_9 
REMARK       I    between atoms: C8_9  and  N1_11 
REMARK    3  A    between atoms: N1_11  and  C9_12 
REMARK    4  A    between atoms: C11_14  and  C12_15 
REMARK    5  A    between atoms: N3_17  and  C13_18 
REMARK    6  A    between atoms: C16_21  and  C17_22 
ROOT
HETATM    1  C9  UNL     1      27.220   6.517  49.026  1.00  0.00     0.050 C 
HETATM    2  C10 UNL     1      26.757   5.359  48.570  1.00  0.00     0.034 C 
HETATM    3  C11 UNL     1      26.118   4.636  49.441  1.00  0.00     0.067 C 
HETATM    4  N3  UNL     1      24.985   5.199  50.067  1.00  0.00    -0.328 N 
HETATM    5  C22 UNL     1      25.021   6.645  50.167  1.00  0.00     0.096 C 
HETATM    6  C23 UNL     1      26.106   7.256  49.660  1.00  0.00     0.048 C 
ENDROOT
BRANCH   1   7
HETATM    7  N1  UNL     1      28.559   6.936  48.906  1.00  0.00    -0.322 N 
HETATM    8  C8  UNL     1      29.714   6.254  48.532  1.00  0.00     0.259 C 
HETATM    9  O2  UNL     1      29.487   5.048  48.254  1.00  0.00    -0.267 OA
HETATM   10  H8  UNL     1      28.657   7.945  49.152  1.00  0.00     0.169 HD
BRANCH   8  11
HETATM   11  C7  UNL     1      31.067   6.753  48.431  1.00  0.00     0.065 A 
HETATM   12  C2  UNL     1      31.519   8.041  48.288  1.00  0.00     0.084 A 
HETATM   13  C3  UNL     1      32.838   8.409  48.201  1.00  0.00     0.038 A 
HETATM   14  C4  UNL     1      33.812   7.451  48.258  1.00  0.00     0.003 A 
HETATM   15  C5  UNL     1      33.426   6.139  48.401  1.00  0.00     0.001 A 
HETATM   16  C6  UNL     1      32.102   5.822  48.482  1.00  0.00     0.020 A 
BRANCH  12  17
HETATM   17  O1  UNL     1      30.556   9.028  48.229  1.00  0.00    -0.355 OA
HETATM   18  C1  UNL     1      30.489  10.038  49.184  1.00  0.00     0.210 C 
ENDBRANCH  12  17
ENDBRANCH   8  11
ENDBRANCH   1   7
BRANCH   3  19
HETATM   19  C12 UNL     1      26.491   3.291  49.830  1.00  0.00     0.137 C 
HETATM   20  N2  UNL     1      27.054   3.242  50.983  1.00  0.00    -0.310 NA
HETATM   21  H10 UNL     1      27.391   2.371  51.433  1.00  0.00     0.186 HD
ENDBRANCH   3  19
BRANCH   4  22
HETATM   22  C13 UNL     1      23.845   4.534  50.581  1.00  0.00     0.236 A 
HETATM   23  C14 UNL     1      23.136   3.654  49.589  1.00  0.00     0.024 A 
HETATM   24  C15 UNL     1      22.941   2.458  50.156  1.00  0.00     0.032 A 
HETATM   25  C16 UNL     1      23.502   2.504  51.500  1.00  0.00     0.065 A 
HETATM   26  N5  UNL     1      24.013   3.696  51.717  1.00  0.00    -0.259 NA
BRANCH  25  27
HETATM   27  C17 UNL     1      23.474   1.368  52.428  1.00  0.00     0.010 A 
HETATM   28  C18 UNL     1      22.302   0.902  52.981  1.00  0.00     0.017 A 
HETATM   29  C19 UNL     1      22.239  -0.158  53.853  1.00  0.00     0.020 A 
HETATM   30  C20 UNL     1      23.446  -0.775  54.178  1.00  0.00     0.116 A 
HETATM   31  N4  UNL     1      24.594  -0.333  53.648  1.00  0.00    -0.272 NA
HETATM   32  C21 UNL     1      24.630   0.716  52.789  1.00  0.00     0.130 A 
ENDBRANCH  25  27
ENDBRANCH   4  22
TORSDOF 6
ENDMDL
MODEL 4
REMARK VINA RESULT:      -8.2      5.956      9.824
REMARK  6 active torsions:
REMARK  status: ('A' for Active; 'I' for Inactive)
REMARK    1  A    between atoms: O1_2  and  C2_3 
REMARK    2  A    between atoms: C7_8  and  C8_9 
REMARK       I    between atoms: C8_9  and  N1_11 
REMARK    3  A    between atoms: N1_11  and  C9_12 
REMARK    4  A    between atoms: C11_14  and  C12_15 
REMARK    5  A    between atoms: N3_17  and  C13_18 
REMARK    6  A    between atoms: C16_21  and  C17_22 
ROOT
HETATM    1  C9  UNL     1      25.820   4.191  49.651  1.00  0.00     0.050 C 
HETATM    2  C10 UNL     1      24.971   5.190  49.446  1.00  0.00     0.034 C 
HETATM    3  C11 UNL     1      25.426   6.373  49.735  1.00  0.00     0.067 C 
HETATM    4  N3  UNL     1      26.592   6.814  49.071  1.00  0.00    -0.328 N 
HETATM    5  C22 UNL     1      27.478   5.745  48.656  1.00  0.00     0.096 C 
HETATM    6  C23 UNL     1      27.086   4.492  48.946  1.00  0.00     0.048 C 
ENDROOT
BRANCH   1   7
HETATM    7  N1  UNL     1      25.527   3.048  50.420  1.00  0.00    -0.322 N 
HETATM    8  C8  UNL     1      26.282   2.337  51.349  1.00  0.00     0.259 C 
HETATM    9  O2  UNL     1      27.428   2.830  51.511  1.00  0.00    -0.267 OA
HETATM   10  H8  UNL     1      24.561   2.708  50.227  1.00  0.00     0.169 HD
BRANCH   8  11
HETATM   11  C7  UNL     1      25.913   1.163  52.107  1.00  0.00     0.065 A 
HETATM   12  C2  UNL     1      24.831   0.950  52.924  1.00  0.00     0.084 A 
HETATM   13  C3  UNL     1      24.572  -0.215  53.603  1.00  0.00     0.038 A 
HETATM   14  C4  UNL     1      25.431  -1.272  53.484  1.00  0.00     0.003 A 
HETATM   15  C5  UNL     1      26.536  -1.123  52.679  1.00  0.00     0.001 A 
HETATM   16  C6  UNL     1      26.752   0.054  52.024  1.00  0.00     0.020 A 
BRANCH  12  17
HETATM   17  O1  UNL     1      23.948   2.001  53.061  1.00  0.00    -0.355 OA
HETATM   18  C1  UNL     1      22.674   1.958  52.502  1.00  0.00     0.210 C 
ENDBRANCH  12  17
ENDBRANCH   8  11
ENDBRANCH   1   7
BRANCH   3  19
HETATM   19  C12 UNL     1      24.832   7.274  50.701  1.00  0.00     0.137 C 
HETATM   20  N2  UNL     1      24.544   6.697  51.811  1.00  0.00    -0.310 NA
HETATM   21  H10 UNL     1      24.112   7.174  52.625  1.00  0.00     0.186 HD
ENDBRANCH   3  19
BRANCH   4  22
HETATM   22  C13 UNL     1      26.977   8.142  48.764  1.00  0.00     0.236 A 
HETATM   23  C14 UNL     1      27.368   8.971  49.956  1.00  0.00     0.024 A 
HETATM   24  C15 UNL     1      28.541   9.556  49.692  1.00  0.00     0.032 A 
HETATM   25  C16 UNL     1      28.957   9.142  48.357  1.00  0.00     0.065 A 
HETATM   26  N5  UNL     1      28.050   8.336  47.852  1.00  0.00    -0.259 NA
BRANCH  25  27
HETATM   27  C17 UNL     1      30.202   9.587  47.723  1.00  0.00     0.010 A 
HETATM   28  C18 UNL     1      30.832  10.757  48.085  1.00  0.00     0.017 A 
HETATM   29  C19 UNL     1      31.999  11.203  47.513  1.00  0.00     0.020 A 
HETATM   30  C20 UNL     1      32.551  10.406  46.512  1.00  0.00     0.116 A 
HETATM   31  N4  UNL     1      31.950   9.265  46.149  1.00  0.00    -0.272 NA
HETATM   32  C21 UNL     1      30.798   8.846  46.730  1.00  0.00     0.130 A 
ENDBRANCH  25  27
ENDBRANCH   4  22
TORSDOF 6
ENDMDL
MODEL 5
REMARK VINA RESULT:      -8.2      5.196      8.453
REMARK  6 active torsions:
REMARK  status: ('A' for Active; 'I' for Inactive)
REMARK    1  A    between atoms: O1_2  and  C2_3 
REMARK    2  A    between atoms: C7_8  and  C8_9 
REMARK       I    between atoms: C8_9  and  N1_11 
REMARK    3  A    between atoms: N1_11  and  C9_12 
REMARK    4  A    between atoms: C11_14  and  C12_15 
REMARK    5  A    between atoms: N3_17  and  C13_18 
REMARK    6  A    between atoms: C16_21  and  C17_22 
ROOT
HETATM    1  C9  UNL     1      24.750   3.250  50.076  1.00  0.00     0.050 C 
HETATM    2  C10 UNL     1      24.107   4.348  49.697  1.00  0.00     0.034 C 
HETATM    3  C11 UNL     1      24.721   5.466  49.952  1.00  0.00     0.067 C 
HETATM    4  N3  UNL     1      26.009   5.654  49.405  1.00  0.00    -0.328 N 
HETATM    5  C22 UNL     1      26.742   4.425  49.178  1.00  0.00     0.096 C 
HETATM    6  C23 UNL     1      26.117   3.281  49.510  1.00  0.00     0.048 C 
ENDROOT
BRANCH   1   7
HETATM    7  N1  UNL     1      24.188   2.244  50.885  1.00  0.00    -0.322 N 
HETATM    8  C8  UNL     1      23.937   2.187  52.253  1.00  0.00     0.259 C 
HETATM    9  O2  UNL     1      24.285   3.240  52.846  1.00  0.00    -0.267 OA
HETATM   10  H8  UNL     1      23.927   1.411  50.315  1.00  0.00     0.169 HD
BRANCH   8  11
HETATM   11  C7  UNL     1      23.353   1.111  53.022  1.00  0.00     0.065 A 
HETATM   12  C2  UNL     1      23.964   0.102  53.725  1.00  0.00     0.084 A 
HETATM   13  C3  UNL     1      23.309  -0.878  54.428  1.00  0.00     0.038 A 
HETATM   14  C4  UNL     1      21.942  -0.888  54.459  1.00  0.00     0.003 A 
HETATM   15  C5  UNL     1      21.269   0.097  53.775  1.00  0.00     0.001 A 
HETATM   16  C6  UNL     1      21.963   1.049  53.090  1.00  0.00     0.020 A 
BRANCH  12  17
HETATM   17  O1  UNL     1      25.343   0.091  53.711  1.00  0.00    -0.355 OA
HETATM   18  C1  UNL     1      26.056  -0.846  52.968  1.00  0.00     0.210 C 
ENDBRANCH  12  17
ENDBRANCH   8  11
ENDBRANCH   1   7
BRANCH   3  19
HETATM   19  C12 UNL     1      24.185   6.534  50.771  1.00  0.00     0.137 C 
HETATM   20  N2  UNL     1      24.438   6.381  52.020  1.00  0.00    -0.310 NA
HETATM   21  H10 UNL     1      24.139   7.040  52.763  1.00  0.00     0.186 HD
ENDBRANCH   3  19
BRANCH   4  22
HETATM   22  C13 UNL     1      26.642   6.871  49.050  1.00  0.00     0.236 A 
HETATM   23  C14 UNL     1      28.035   6.714  48.506  1.00  0.00     0.024 A 
HETATM   24  C15 UNL     1      28.121   7.414  47.370  1.00  0.00     0.032 A 
HETATM   25  C16 UNL     1      26.825   8.036  47.128  1.00  0.00     0.065 A 
HETATM   26  N5  UNL     1      26.000   7.709  48.098  1.00  0.00    -0.259 NA
BRANCH  25  27
HETATM   27  C17 UNL     1      26.538   8.886  45.967  1.00  0.00     0.010 A 
HETATM   28  C18 UNL     1      26.819   8.487  44.679  1.00  0.00     0.017 A 
HETATM   29  C19 UNL     1      26.564   9.257  43.571  1.00  0.00     0.020 A 
HETATM   30  C20 UNL     1      25.989  10.506  43.793  1.00  0.00     0.116 A 
HETATM   31  N4  UNL     1      25.709  10.908  45.041  1.00  0.00    -0.272 NA
HETATM   32  C21 UNL     1      25.971  10.129  46.120  1.00  0.00     0.130 A 
ENDBRANCH  25  27
ENDBRANCH   4  22
TORSDOF 6
ENDMDL
MODEL 6
REMARK VINA RESULT:      -8.2      4.819      9.028
REMARK  6 active torsions:
REMARK  status: ('A' for Active; 'I' for Inactive)
REMARK    1  A    between atoms: O1_2  and  C2_3 
REMARK    2  A    between atoms: C7_8  and  C8_9 
REMARK       I    between atoms: C8_9  and  N1_11 
REMARK    3  A    between atoms: N1_11  and  C9_12 
REMARK    4  A    between atoms: C11_14  and  C12_15 
REMARK    5  A    between atoms: N3_17  and  C13_18 
REMARK    6  A    between atoms: C16_21  and  C17_22 
ROOT
HETATM    1  C9  UNL     1      24.333   3.082  50.150  1.00  0.00     0.050 C 
HETATM    2  C10 UNL     1      23.586   3.959  49.490  1.00  0.00     0.034 C 
HETATM    3  C11 UNL     1      23.893   5.207  49.686  1.00  0.00     0.067 C 
HETATM    4  N3  UNL     1      25.207   5.623  49.379  1.00  0.00    -0.328 N 
HETATM    5  C22 UNL     1      26.201   4.574  49.490  1.00  0.00     0.096 C 
HETATM    6  C23 UNL     1      25.757   3.361  49.864  1.00  0.00     0.048 C 
ENDROOT
BRANCH   1   7
HETATM    7  N1  UNL     1      23.815   2.067  50.978  1.00  0.00    -0.322 N 
HETATM    8  C8  UNL     1      23.225   2.110  52.238  1.00  0.00     0.259 C 
HETATM    9  O2  UNL     1      23.153   3.281  52.692  1.00  0.00    -0.267 OA
HETATM   10  H8  UNL     1      23.912   1.133  50.526  1.00  0.00     0.169 HD
BRANCH   8  11
HETATM   11  C7  UNL     1      22.712   1.018  53.035  1.00  0.00     0.065 A 
HETATM   12  C2  UNL     1      23.355  -0.097  53.512  1.00  0.00     0.084 A 
HETATM   13  C3  UNL     1      22.770  -1.083  54.267  1.00  0.00     0.038 A 
HETATM   14  C4  UNL     1      21.446  -0.987  54.595  1.00  0.00     0.003 A 
HETATM   15  C5  UNL     1      20.744   0.108  54.148  1.00  0.00     0.001 A 
HETATM   16  C6  UNL     1      21.369   1.062  53.399  1.00  0.00     0.020 A 
BRANCH  12  17
HETATM   17  O1  UNL     1      24.693  -0.218  53.196  1.00  0.00    -0.355 OA
HETATM   18  C1  UNL     1      25.651  -0.477  54.171  1.00  0.00     0.210 C 
ENDBRANCH  12  17
ENDBRANCH   8  11
ENDBRANCH   1   7
BRANCH   3  19
HETATM   19  C12 UNL     1      22.987   6.208  50.212  1.00  0.00     0.137 C 
HETATM   20  N2  UNL     1      22.784   6.085  51.473  1.00  0.00    -0.310 NA
HETATM   21  H10 UNL     1      22.167   6.706  52.031  1.00  0.00     0.186 HD
ENDBRANCH   3  19
BRANCH   4  22
HETATM   22  C13 UNL     1      25.649   6.906  48.973  1.00  0.00     0.236 A 
HETATM   23  C14 UNL     1      25.662   7.937  50.067  1.00  0.00     0.024 A 
HETATM   24  C15 UNL     1      26.853   8.543  50.057  1.00  0.00     0.032 A 
HETATM   25  C16 UNL     1      27.648   7.949  48.990  1.00  0.00     0.065 A 
HETATM   26  N5  UNL     1      26.941   7.017  48.389  1.00  0.00    -0.259 NA
BRANCH  25  27
HETATM   27  C17 UNL     1      29.020   8.362  48.675  1.00  0.00     0.010 A 
HETATM   28  C18 UNL     1      29.630   9.422  49.310  1.00  0.00     0.017 A 
HETATM   29  C19 UNL     1      30.912   9.836  49.040  1.00  0.00     0.020 A 
HETATM   30  C20 UNL     1      31.609   9.125  48.065  1.00  0.00     0.116 A 
HETATM   31  N4  UNL     1      31.029   8.091  47.439  1.00  0.00    -0.272 NA
HETATM   32  C21 UNL     1      29.761   7.702  47.724  1.00  0.00     0.130 A 
ENDBRANCH  25  27
ENDBRANCH   4  22
TORSDOF 6
ENDMDL
MODEL 7
REMARK VINA RESULT:      -8.2      2.766     10.123
REMARK  6 active torsions:
REMARK  status: ('A' for Active; 'I' for Inactive)
REMARK    1  A    between atoms: O1_2  and  C2_3 
REMARK    2  A    between atoms: C7_8  and  C8_9 
REMARK       I    between atoms: C8_9  and  N1_11 
REMARK    3  A    between atoms: N1_11  and  C9_12 
REMARK    4  A    between atoms: C11_14  and  C12_15 
REMARK    5  A    between atoms: N3_17  and  C13_18 
REMARK    6  A    between atoms: C16_21  and  C17_22 
ROOT
HETATM    1  C9  UNL     1      20.584   0.958  51.567  1.00  0.00     0.050 C 
HETATM    2  C10 UNL     1      21.439   1.101  50.562  1.00  0.00     0.034 C 
HETATM    3  C11 UNL     1      22.467   1.857  50.812  1.00  0.00     0.067 C 
HETATM    4  N3  UNL     1      23.308   1.498  51.888  1.00  0.00    -0.328 N 
HETATM    5  C22 UNL     1      22.640   0.760  52.941  1.00  0.00     0.096 C 
HETATM    6  C23 UNL     1      21.330   0.513  52.765  1.00  0.00     0.048 C 
ENDROOT
BRANCH   1   7
HETATM    7  N1  UNL     1      19.200   1.201  51.469  1.00  0.00    -0.322 N 
HETATM    8  C8  UNL     1      18.449   2.360  51.637  1.00  0.00     0.259 C 
HETATM    9  O2  UNL     1      19.162   3.355  51.925  1.00  0.00    -0.267 OA
HETATM   10  H8  UNL     1      18.686   0.327  51.226  1.00  0.00     0.169 HD
BRANCH   8  11
HETATM   11  C7  UNL     1      17.018   2.537  51.520  1.00  0.00     0.065 A 
HETATM   12  C2  UNL     1      16.057   1.653  51.094  1.00  0.00     0.084 A 
HETATM   13  C3  UNL     1      14.714   1.924  51.021  1.00  0.00     0.038 A 
HETATM   14  C4  UNL     1      14.252   3.156  51.393  1.00  0.00     0.003 A 
HETATM   15  C5  UNL     1      15.164   4.088  51.829  1.00  0.00     0.001 A 
HETATM   16  C6  UNL     1      16.490   3.773  51.884  1.00  0.00     0.020 A 
BRANCH  12  17
HETATM   17  O1  UNL     1      16.497   0.402  50.714  1.00  0.00    -0.355 OA
HETATM   18  C1  UNL     1      16.061  -0.750  51.361  1.00  0.00     0.210 C 
ENDBRANCH  12  17
ENDBRANCH   8  11
ENDBRANCH   1   7
BRANCH   3  19
HETATM   19  C12 UNL     1      22.810   3.056  50.073  1.00  0.00     0.137 C 
HETATM   20  N2  UNL     1      22.359   4.126  50.620  1.00  0.00    -0.310 NA
HETATM   21  H10 UNL     1      22.500   5.081  50.242  1.00  0.00     0.186 HD
ENDBRANCH   3  19
BRANCH   4  22
HETATM   22  C13 UNL     1      24.692   1.758  52.044  1.00  0.00     0.236 A 
HETATM   23  C14 UNL     1      25.072   2.331  53.381  1.00  0.00     0.024 A 
HETATM   24  C15 UNL     1      26.097   1.621  53.864  1.00  0.00     0.032 A 
HETATM   25  C16 UNL     1      26.417   0.581  52.894  1.00  0.00     0.065 A 
HETATM   26  N5  UNL     1      25.601   0.679  51.868  1.00  0.00    -0.259 NA
BRANCH  25  27
HETATM   27  C17 UNL     1      27.493  -0.398  53.081  1.00  0.00     0.010 A 
HETATM   28  C18 UNL     1      28.760  -0.028  53.476  1.00  0.00     0.017 A 
HETATM   29  C19 UNL     1      29.791  -0.917  53.661  1.00  0.00     0.020 A 
HETATM   30  C20 UNL     1      29.509  -2.261  53.428  1.00  0.00     0.116 A 
HETATM   31  N4  UNL     1      28.281  -2.637  53.044  1.00  0.00    -0.272 NA
HETATM   32  C21 UNL     1      27.280  -1.739  52.868  1.00  0.00     0.130 A 
ENDBRANCH  25  27
ENDBRANCH   4  22
TORSDOF 6
ENDMDL
MODEL 8
REMARK VINA RESULT:      -7.9      2.069      3.561
REMARK  6 active torsions:
REMARK  status: ('A' for Active; 'I' for Inactive)
REMARK    1  A    between atoms: O1_2  and  C2_3 
REMARK    2  A    between atoms: C7_8  and  C8_9 
REMARK       I    between atoms: C8_9  and  N1_11 
REMARK    3  A    between atoms: N1_11  and  C9_12 
REMARK    4  A    between atoms: C11_14  and  C12_15 
REMARK    5  A    between atoms: N3_17  and  C13_18 
REMARK    6  A    between atoms: C16_21  and  C17_22 
ROOT
HETATM    1  C9  UNL     1      20.999   1.200  52.320  1.00  0.00     0.050 C 
HETATM    2  C10 UNL     1      20.309   2.292  52.627  1.00  0.00     0.034 C 
HETATM    3  C11 UNL     1      19.379   2.617  51.779  1.00  0.00     0.067 C 
HETATM    4  N3  UNL     1      18.364   1.671  51.514  1.00  0.00    -0.328 N 
HETATM    5  C22 UNL     1      18.777   0.293  51.691  1.00  0.00     0.096 C 
HETATM    6  C23 UNL     1      20.049   0.091  52.078  1.00  0.00     0.048 C 
ENDROOT
BRANCH   1   7
HETATM    7  N1  UNL     1      22.405   1.146  52.248  1.00  0.00    -0.322 N 
HETATM    8  C8  UNL     1      23.343   0.420  52.977  1.00  0.00     0.259 C 
HETATM    9  O2  UNL     1      22.808  -0.312  53.849  1.00  0.00    -0.267 OA
HETATM   10  H8  UNL     1      22.763   1.779  51.502  1.00  0.00     0.169 HD
BRANCH   8  11
HETATM   11  C7  UNL     1      24.782   0.415  52.848  1.00  0.00     0.065 A 
HETATM   12  C2  UNL     1      25.619   1.366  52.317  1.00  0.00     0.084 A 
HETATM   13  C3  UNL     1      26.985   1.261  52.242  1.00  0.00     0.038 A 
HETATM   14  C4  UNL     1      27.605   0.141  52.723  1.00  0.00     0.003 A 
HETATM   15  C5  UNL     1      26.822  -0.851  53.268  1.00  0.00     0.001 A 
HETATM   16  C6  UNL     1      25.468  -0.701  53.320  1.00  0.00     0.020 A 
BRANCH  12  17
HETATM   17  O1  UNL     1      25.019   2.507  51.825  1.00  0.00    -0.355 OA
HETATM   18  C1  UNL     1      25.617   3.271  50.827  1.00  0.00     0.210 C 
ENDBRANCH  12  17
ENDBRANCH   8  11
ENDBRANCH   1   7
BRANCH   3  19
HETATM   19  C12 UNL     1      19.311   3.878  51.070  1.00  0.00     0.137 C 
HETATM   20  N2  UNL     1      20.373   4.586  51.207  1.00  0.00    -0.310 NA
HETATM   21  H10 UNL     1      20.515   5.519  50.777  1.00  0.00     0.186 HD
ENDBRANCH   3  19
BRANCH   4  22
HETATM   22  C13 UNL     1      17.025   1.910  51.121  1.00  0.00     0.236 A 
HETATM   23  C14 UNL     1      16.172   0.675  51.028  1.00  0.00     0.024 A 
HETATM   24  C15 UNL     1      15.038   0.898  51.699  1.00  0.00     0.032 A 
HETATM   25  C16 UNL     1      15.100   2.247  52.247  1.00  0.00     0.065 A 
HETATM   26  N5  UNL     1      16.243   2.801  51.905  1.00  0.00    -0.259 NA
BRANCH  25  27
HETATM   27  C17 UNL     1      14.028   2.847  53.048  1.00  0.00     0.010 A 
HETATM   28  C18 UNL     1      12.919   2.130  53.441  1.00  0.00     0.017 A 
HETATM   29  C19 UNL     1      11.897   2.660  54.191  1.00  0.00     0.020 A 
HETATM   30  C20 UNL     1      12.016   3.999  54.559  1.00  0.00     0.116 A 
HETATM   31  N4  UNL     1      13.090   4.708  54.184  1.00  0.00    -0.272 NA
HETATM   32  C21 UNL     1      14.086   4.162  53.443  1.00  0.00     0.130 A 
ENDBRANCH  25  27
ENDBRANCH   4  22
TORSDOF 6
ENDMDL
MODEL 9
REMARK VINA RESULT:      -7.8      5.520      7.859
REMARK  6 active torsions:
REMARK  status: ('A' for Active; 'I' for Inactive)
REMARK    1  A    between atoms: O1_2  and  C2_3 
REMARK    2  A    between atoms: C7_8  and  C8_9 
REMARK       I    between atoms: C8_9  and  N1_11 
REMARK    3  A    between atoms: N1_11  and  C9_12 
REMARK    4  A    between atoms: C11_14  and  C12_15 
REMARK    5  A    between atoms: N3_17  and  C13_18 
REMARK    6  A    between atoms: C16_21  and  C17_22 
ROOT
HETATM    1  C9  UNL     1      26.382   5.508  49.278  1.00  0.00     0.050 C 
HETATM    2  C10 UNL     1      25.554   6.015  50.183  1.00  0.00     0.034 C 
HETATM    3  C11 UNL     1      24.336   5.562  50.134  1.00  0.00     0.067 C 
HETATM    4  N3  UNL     1      24.140   4.171  50.277  1.00  0.00    -0.328 N 
HETATM    5  C22 UNL     1      25.263   3.367  49.838  1.00  0.00     0.096 C 
HETATM    6  C23 UNL     1      26.330   4.032  49.360  1.00  0.00     0.048 C 
ENDROOT
BRANCH   1   7
HETATM    7  N1  UNL     1      27.167   6.283  48.401  1.00  0.00    -0.322 N 
HETATM    8  C8  UNL     1      28.513   6.211  48.053  1.00  0.00     0.259 C 
HETATM    9  O2  UNL     1      29.109   5.274  48.642  1.00  0.00    -0.267 OA
HETATM   10  H8  UNL     1      26.596   7.033  47.956  1.00  0.00     0.169 HD
BRANCH   8  11
HETATM   11  C7  UNL     1      29.257   7.048  47.138  1.00  0.00     0.065 A 
HETATM   12  C2  UNL     1      28.806   7.988  46.245  1.00  0.00     0.084 A 
HETATM   13  C3  UNL     1      29.605   8.735  45.416  1.00  0.00     0.038 A 
HETATM   14  C4  UNL     1      30.962   8.562  45.448  1.00  0.00     0.003 A 
HETATM   15  C5  UNL     1      31.477   7.634  46.323  1.00  0.00     0.001 A 
HETATM   16  C6  UNL     1      30.643   6.916  47.127  1.00  0.00     0.020 A 
BRANCH  12  17
HETATM   17  O1  UNL     1      27.441   8.183  46.193  1.00  0.00    -0.355 OA
HETATM   18  C1  UNL     1      26.869   9.414  46.496  1.00  0.00     0.210 C 
ENDBRANCH  12  17
ENDBRANCH   8  11
ENDBRANCH   1   7
BRANCH   3  19
HETATM   19  C12 UNL     1      23.158   6.380  49.931  1.00  0.00     0.137 C 
HETATM   20  N2  UNL     1      22.869   7.102  50.952  1.00  0.00    -0.310 NA
HETATM   21  H10 UNL     1      22.062   7.753  51.001  1.00  0.00     0.186 HD
ENDBRANCH   3  19
BRANCH   4  22
HETATM   22  C13 UNL     1      23.011   3.493  50.798  1.00  0.00     0.236 A 
HETATM   23  C14 UNL     1      22.463   2.416  49.904  1.00  0.00     0.024 A 
HETATM   24  C15 UNL     1      22.306   1.306  50.633  1.00  0.00     0.032 A 
HETATM   25  C16 UNL     1      22.737   1.601  51.994  1.00  0.00     0.065 A 
HETATM   26  N5  UNL     1      23.136   2.852  52.061  1.00  0.00    -0.259 NA
BRANCH  25  27
HETATM   27  C17 UNL     1      22.709   0.620  53.084  1.00  0.00     0.010 A 
HETATM   28  C18 UNL     1      21.553   0.319  53.769  1.00  0.00     0.017 A 
HETATM   29  C19 UNL     1      21.491  -0.595  54.794  1.00  0.00     0.020 A 
HETATM   30  C20 UNL     1      22.679  -1.235  55.136  1.00  0.00     0.116 A 
HETATM   31  N4  UNL     1      23.812  -0.953  54.478  1.00  0.00    -0.272 NA
HETATM   32  C21 UNL     1      23.848  -0.047  53.470  1.00  0.00     0.130 A 
ENDBRANCH  25  27
ENDBRANCH   4  22
TORSDOF 6
ENDMDL
