MODEL 1
REMARK VINA RESULT:      -6.9      0.000      0.000
REMARK  6 active torsions:
REMARK  status: ('A' for Active; 'I' for Inactive)
REMARK    1  A    between atoms: N1_2  and  C2_3 
REMARK    2  A    between atoms: C2_3  and  N2_4 
REMARK    3  A    between atoms: N2_4  and  C3_5 
REMARK    4  A    between atoms: C4_6  and  C5_7 
REMARK    5  A    between atoms: C9_13  and  O1_14 
REMARK    6  A    between atoms: C11_16  and  O2_17 
ROOT
HETATM    1  C5  UNL     1      24.650  -0.312  53.688  1.00  0.00     0.072 A 
HETATM    2  N3  UNL     1      25.212  -0.881  54.769  1.00  0.00    -0.241 NA
HETATM    3  C6  UNL     1      24.453  -1.455  55.747  1.00  0.00     0.234 A 
HETATM    4  N4  UNL     1      23.090  -1.478  55.671  1.00  0.00    -0.241 NA
HETATM    5  C7  UNL     1      22.468  -0.923  54.610  1.00  0.00     0.073 A 
HETATM    6  C8  UNL     1      21.099  -0.908  54.464  1.00  0.00     0.072 A 
HETATM    7  C9  UNL     1      20.454  -0.347  53.387  1.00  0.00     0.103 A 
HETATM    8  C11 UNL     1      21.263   0.230  52.408  1.00  0.00     0.102 A 
HETATM    9  C13 UNL     1      22.635   0.206  52.571  1.00  0.00     0.055 A 
HETATM   10  C14 UNL     1      23.272  -0.359  53.654  1.00  0.00     0.024 A 
ENDROOT
BRANCH   1  11
HETATM   11  C4  UNL     1      25.495   0.276  52.691  1.00  0.00     0.049 C 
HETATM   12  C3  UNL     1      26.600   0.868  53.111  1.00  0.00     0.087 C 
BRANCH  12  13
HETATM   13  N2  UNL     1      27.125   1.036  54.398  1.00  0.00    -0.375 N 
HETATM   14  H7  UNL     1      26.522   1.646  54.995  1.00  0.00     0.160 HD
BRANCH  13  15
HETATM   15  C2  UNL     1      28.371   0.441  54.882  1.00  0.00     0.391 C 
BRANCH  15  16
HETATM   16  N1  UNL     1      28.520  -0.831  54.224  1.00  0.00     0.096 N 
HETATM   17  C1  UNL     1      29.826  -0.987  53.663  1.00  0.00     0.308 C 
HETATM   18  H4  UNL     1      27.729  -1.088  53.602  1.00  0.00     0.317 HD
ENDBRANCH  15  16
ENDBRANCH  13  15
ENDBRANCH  12  13
ENDBRANCH   1  11
BRANCH   8  19
HETATM   19  O2  UNL     1      20.626   0.801  51.317  1.00  0.00    -0.353 OA
HETATM   20  C12 UNL     1      21.283   0.735  50.067  1.00  0.00     0.210 C 
ENDBRANCH   8  19
BRANCH   7  21
HETATM   21  O1  UNL     1      19.087  -0.328  53.236  1.00  0.00    -0.353 OA
HETATM   22  C10 UNL     1      18.344  -1.512  53.350  1.00  0.00     0.210 C 
ENDBRANCH   7  21
TORSDOF 6
ENDMDL
MODEL 2
REMARK VINA RESULT:      -6.7      4.473      6.495
REMARK  6 active torsions:
REMARK  status: ('A' for Active; 'I' for Inactive)
REMARK    1  A    between atoms: N1_2  and  C2_3 
REMARK    2  A    between atoms: C2_3  and  N2_4 
REMARK    3  A    between atoms: N2_4  and  C3_5 
REMARK    4  A    between atoms: C4_6  and  C5_7 
REMARK    5  A    between atoms: C9_13  and  O1_14 
REMARK    6  A    between atoms: C11_16  and  O2_17 
ROOT
HETATM    1  C5  UNL     1      24.357   3.280  51.406  1.00  0.00     0.072 A 
HETATM    2  N3  UNL     1      25.077   4.000  50.530  1.00  0.00    -0.241 NA
HETATM    3  C6  UNL     1      26.323   3.605  50.136  1.00  0.00     0.234 A 
HETATM    4  N4  UNL     1      26.892   2.460  50.614  1.00  0.00    -0.241 NA
HETATM    5  C7  UNL     1      26.217   1.694  51.496  1.00  0.00     0.073 A 
HETATM    6  C8  UNL     1      26.725   0.526  52.022  1.00  0.00     0.072 A 
HETATM    7  C9  UNL     1      26.048  -0.263  52.921  1.00  0.00     0.103 A 
HETATM    8  C11 UNL     1      24.778   0.174  53.299  1.00  0.00     0.102 A 
HETATM    9  C13 UNL     1      24.284   1.348  52.762  1.00  0.00     0.055 A 
HETATM   10  C14 UNL     1      24.970   2.132  51.861  1.00  0.00     0.024 A 
ENDROOT
BRANCH   1  11
HETATM   11  C4  UNL     1      23.054   3.742  51.785  1.00  0.00     0.049 C 
HETATM   12  C3  UNL     1      22.948   5.005  52.160  1.00  0.00     0.087 C 
BRANCH  12  13
HETATM   13  N2  UNL     1      23.906   6.020  52.261  1.00  0.00    -0.375 N 
HETATM   14  H7  UNL     1      24.461   5.955  53.146  1.00  0.00     0.160 HD
BRANCH  13  15
HETATM   15  C2  UNL     1      24.131   7.067  51.265  1.00  0.00     0.391 C 
BRANCH  15  16
HETATM   16  N1  UNL     1      25.539   7.076  50.964  1.00  0.00     0.096 N 
HETATM   17  C1  UNL     1      25.870   8.087  50.010  1.00  0.00     0.308 C 
HETATM   18  H4  UNL     1      25.945   6.136  50.785  1.00  0.00     0.317 HD
ENDBRANCH  15  16
ENDBRANCH  13  15
ENDBRANCH  12  13
ENDBRANCH   1  11
BRANCH   8  19
HETATM   19  O2  UNL     1      24.083  -0.612  54.206  1.00  0.00    -0.353 OA
HETATM   20  C12 UNL     1      22.712  -0.847  53.953  1.00  0.00     0.210 C 
ENDBRANCH   8  19
BRANCH   7  21
HETATM   21  O1  UNL     1      26.550  -1.429  53.449  1.00  0.00    -0.353 OA
HETATM   22  C10 UNL     1      27.171  -2.374  52.620  1.00  0.00     0.210 C 
ENDBRANCH   7  21
TORSDOF 6
ENDMDL
MODEL 3
REMARK VINA RESULT:      -6.5      4.100      6.833
REMARK  6 active torsions:
REMARK  status: ('A' for Active; 'I' for Inactive)
REMARK    1  A    between atoms: N1_2  and  C2_3 
REMARK    2  A    between atoms: C2_3  and  N2_4 
REMARK    3  A    between atoms: N2_4  and  C3_5 
REMARK    4  A    between atoms: C4_6  and  C5_7 
REMARK    5  A    between atoms: C9_13  and  O1_14 
REMARK    6  A    between atoms: C11_16  and  O2_17 
ROOT
HETATM    1  C5  UNL     1      24.261   1.939  51.514  1.00  0.00     0.072 A 
HETATM    2  N3  UNL     1      24.615   2.844  50.586  1.00  0.00    -0.241 NA
HETATM    3  C6  UNL     1      25.923   3.153  50.354  1.00  0.00     0.234 A 
HETATM    4  N4  UNL     1      26.932   2.556  51.054  1.00  0.00    -0.241 NA
HETATM    5  C7  UNL     1      26.640   1.639  51.999  1.00  0.00     0.073 A 
HETATM    6  C8  UNL     1      27.602   0.995  52.745  1.00  0.00     0.072 A 
HETATM    7  C9  UNL     1      27.317   0.058  53.711  1.00  0.00     0.103 A 
HETATM    8  C11 UNL     1      25.968  -0.231  53.919  1.00  0.00     0.102 A 
HETATM    9  C13 UNL     1      25.016   0.424  53.161  1.00  0.00     0.055 A 
HETATM   10  C14 UNL     1      25.312   1.361  52.196  1.00  0.00     0.024 A 
ENDROOT
BRANCH   1  11
HETATM   11  C4  UNL     1      22.871   1.652  51.716  1.00  0.00     0.049 C 
HETATM   12  C3  UNL     1      22.092   2.663  52.059  1.00  0.00     0.087 C 
BRANCH  12  13
HETATM   13  N2  UNL     1      22.377   4.017  52.272  1.00  0.00    -0.375 N 
HETATM   14  H7  UNL     1      23.011   4.165  53.090  1.00  0.00     0.160 HD
BRANCH  13  15
HETATM   15  C2  UNL     1      21.862   5.122  51.462  1.00  0.00     0.391 C 
BRANCH  15  16
HETATM   16  N1  UNL     1      22.941   5.576  50.624  1.00  0.00     0.096 N 
HETATM   17  C1  UNL     1      23.941   6.267  51.377  1.00  0.00     0.308 C 
HETATM   18  H4  UNL     1      22.636   6.040  49.746  1.00  0.00     0.317 HD
ENDBRANCH  15  16
ENDBRANCH  13  15
ENDBRANCH  12  13
ENDBRANCH   1  11
BRANCH   8  19
HETATM   19  O2  UNL     1      25.667  -1.174  54.890  1.00  0.00    -0.353 OA
HETATM   20  C12 UNL     1      24.340  -1.213  55.375  1.00  0.00     0.210 C 
ENDBRANCH   8  19
BRANCH   7  21
HETATM   21  O1  UNL     1      28.273  -0.588  54.459  1.00  0.00    -0.353 OA
HETATM   22  C10 UNL     1      29.576  -0.747  53.963  1.00  0.00     0.210 C 
ENDBRANCH   7  21
TORSDOF 6
ENDMDL
MODEL 4
REMARK VINA RESULT:      -6.5      2.186      3.408
REMARK  6 active torsions:
REMARK  status: ('A' for Active; 'I' for Inactive)
REMARK    1  A    between atoms: N1_2  and  C2_3 
REMARK    2  A    between atoms: C2_3  and  N2_4 
REMARK    3  A    between atoms: N2_4  and  C3_5 
REMARK    4  A    between atoms: C4_6  and  C5_7 
REMARK    5  A    between atoms: C9_13  and  O1_14 
REMARK    6  A    between atoms: C11_16  and  O2_17 
ROOT
HETATM    1  C5  UNL     1      25.909   0.166  52.242  1.00  0.00     0.072 A 
HETATM    2  N3  UNL     1      26.825   1.051  51.813  1.00  0.00    -0.241 NA
HETATM    3  C6  UNL     1      26.500   2.355  51.577  1.00  0.00     0.234 A 
HETATM    4  N4  UNL     1      25.231   2.820  51.767  1.00  0.00    -0.241 NA
HETATM    5  C7  UNL     1      24.267   1.980  52.197  1.00  0.00     0.073 A 
HETATM    6  C8  UNL     1      22.965   2.375  52.412  1.00  0.00     0.072 A 
HETATM    7  C9  UNL     1      21.975   1.528  52.850  1.00  0.00     0.103 A 
HETATM    8  C11 UNL     1      22.345   0.202  53.081  1.00  0.00     0.102 A 
HETATM    9  C13 UNL     1      23.656  -0.176  52.860  1.00  0.00     0.055 A 
HETATM   10  C14 UNL     1      24.641   0.680  52.421  1.00  0.00     0.024 A 
ENDROOT
BRANCH   1  11
HETATM   11  C4  UNL     1      26.305  -1.191  52.475  1.00  0.00     0.049 C 
HETATM   12  C3  UNL     1      27.283  -1.393  53.341  1.00  0.00     0.087 C 
BRANCH  12  13
HETATM   13  N2  UNL     1      28.037  -0.497  54.107  1.00  0.00    -0.375 N 
HETATM   14  H7  UNL     1      27.450   0.027  54.796  1.00  0.00     0.160 HD
BRANCH  13  15
HETATM   15  C2  UNL     1      29.480  -0.291  53.982  1.00  0.00     0.391 C 
BRANCH  15  16
HETATM   16  N1  UNL     1      29.678   1.025  53.431  1.00  0.00     0.096 N 
HETATM   17  C1  UNL     1      29.151   2.041  54.286  1.00  0.00     0.308 C 
HETATM   18  H4  UNL     1      29.432   1.110  52.425  1.00  0.00     0.317 HD
ENDBRANCH  15  16
ENDBRANCH  13  15
ENDBRANCH  12  13
ENDBRANCH   1  11
BRANCH   8  19
HETATM   19  O2  UNL     1      21.355  -0.663  53.523  1.00  0.00    -0.353 OA
HETATM   20  C12 UNL     1      21.709  -1.611  54.510  1.00  0.00     0.210 C 
ENDBRANCH   8  19
BRANCH   7  21
HETATM   21  O1  UNL     1      20.673   1.916  53.066  1.00  0.00    -0.353 OA
HETATM   22  C10 UNL     1      19.876   2.353  51.998  1.00  0.00     0.210 C 
ENDBRANCH   7  21
TORSDOF 6
ENDMDL
MODEL 5
REMARK VINA RESULT:      -6.4      4.821      6.512
REMARK  6 active torsions:
REMARK  status: ('A' for Active; 'I' for Inactive)
REMARK    1  A    between atoms: N1_2  and  C2_3 
REMARK    2  A    between atoms: C2_3  and  N2_4 
REMARK    3  A    between atoms: N2_4  and  C3_5 
REMARK    4  A    between atoms: C4_6  and  C5_7 
REMARK    5  A    between atoms: C9_13  and  O1_14 
REMARK    6  A    between atoms: C11_16  and  O2_17 
ROOT
HETATM    1  C5  UNL     1      25.337   2.918  50.473  1.00  0.00     0.072 A 
HETATM    2  N3  UNL     1      24.200   3.625  50.351  1.00  0.00    -0.241 NA
HETATM    3  C6  UNL     1      23.154   3.446  51.209  1.00  0.00     0.234 A 
HETATM    4  N4  UNL     1      23.216   2.540  52.228  1.00  0.00    -0.241 NA
HETATM    5  C7  UNL     1      24.331   1.801  52.402  1.00  0.00     0.073 A 
HETATM    6  C8  UNL     1      24.467   0.869  53.407  1.00  0.00     0.072 A 
HETATM    7  C9  UNL     1      25.598   0.110  53.594  1.00  0.00     0.103 A 
HETATM    8  C11 UNL     1      26.646   0.322  52.697  1.00  0.00     0.102 A 
HETATM    9  C13 UNL     1      26.492   1.261  51.695  1.00  0.00     0.055 A 
HETATM   10  C14 UNL     1      25.355   2.017  51.516  1.00  0.00     0.024 A 
ENDROOT
BRANCH   1  11
HETATM   11  C4  UNL     1      26.404   3.148  49.544  1.00  0.00     0.049 C 
HETATM   12  C3  UNL     1      26.815   4.396  49.396  1.00  0.00     0.087 C 
BRANCH  12  13
HETATM   13  N2  UNL     1      26.389   5.586  49.998  1.00  0.00    -0.375 N 
HETATM   14  H7  UNL     1      26.170   5.460  51.013  1.00  0.00     0.160 HD
BRANCH  13  15
HETATM   15  C2  UNL     1      26.254   6.872  49.315  1.00  0.00     0.391 C 
BRANCH  15  16
HETATM   16  N1  UNL     1      27.353   7.699  49.742  1.00  0.00     0.096 N 
HETATM   17  C1  UNL     1      26.913   9.000  50.138  1.00  0.00     0.308 C 
HETATM   18  H4  UNL     1      28.178   7.675  49.112  1.00  0.00     0.317 HD
ENDBRANCH  15  16
ENDBRANCH  13  15
ENDBRANCH  12  13
ENDBRANCH   1  11
BRANCH   8  19
HETATM   19  O2  UNL     1      27.793  -0.438  52.874  1.00  0.00    -0.353 OA
HETATM   20  C12 UNL     1      28.872   0.158  53.566  1.00  0.00     0.210 C 
ENDBRANCH   8  19
BRANCH   7  21
HETATM   21  O1  UNL     1      25.739  -0.822  54.595  1.00  0.00    -0.353 OA
HETATM   22  C10 UNL     1      24.639  -1.190  55.384  1.00  0.00     0.210 C 
ENDBRANCH   7  21
TORSDOF 6
ENDMDL
MODEL 6
REMARK VINA RESULT:      -6.4      2.436      2.859
REMARK  6 active torsions:
REMARK  status: ('A' for Active; 'I' for Inactive)
REMARK    1  A    between atoms: N1_2  and  C2_3 
REMARK    2  A    between atoms: C2_3  and  N2_4 
REMARK    3  A    between atoms: N2_4  and  C3_5 
REMARK    4  A    between atoms: C4_6  and  C5_7 
REMARK    5  A    between atoms: C9_13  and  O1_14 
REMARK    6  A    between atoms: C11_16  and  O2_17 
ROOT
HETATM    1  C5  UNL     1      24.956   1.270  52.760  1.00  0.00     0.072 A 
HETATM    2  N3  UNL     1      25.082  -0.015  53.134  1.00  0.00    -0.241 NA
HETATM    3  C6  UNL     1      23.992  -0.785  53.416  1.00  0.00     0.234 A 
HETATM    4  N4  UNL     1      22.724  -0.285  53.330  1.00  0.00    -0.241 NA
HETATM    5  C7  UNL     1      22.533   0.997  52.959  1.00  0.00     0.073 A 
HETATM    6  C8  UNL     1      21.286   1.572  52.850  1.00  0.00     0.072 A 
HETATM    7  C9  UNL     1      21.079   2.878  52.473  1.00  0.00     0.103 A 
HETATM    8  C11 UNL     1      22.218   3.633  52.193  1.00  0.00     0.102 A 
HETATM    9  C13 UNL     1      23.462   3.041  52.308  1.00  0.00     0.055 A 
HETATM   10  C14 UNL     1      23.659   1.731  52.686  1.00  0.00     0.024 A 
ENDROOT
BRANCH   1  11
HETATM   11  C4  UNL     1      26.136   2.032  52.476  1.00  0.00     0.049 C 
HETATM   12  C3  UNL     1      27.113   1.985  53.366  1.00  0.00     0.087 C 
BRANCH  12  13
HETATM   13  N2  UNL     1      27.219   1.303  54.584  1.00  0.00    -0.375 N 
HETATM   14  H7  UNL     1      26.498   1.612  55.275  1.00  0.00     0.160 HD
BRANCH  13  15
HETATM   15  C2  UNL     1      28.213   0.274  54.887  1.00  0.00     0.391 C 
BRANCH  15  16
HETATM   16  N1  UNL     1      27.972  -0.829  53.992  1.00  0.00     0.096 N 
HETATM   17  C1  UNL     1      29.176  -1.271  53.360  1.00  0.00     0.308 C 
HETATM   18  H4  UNL     1      27.154  -0.701  53.365  1.00  0.00     0.317 HD
ENDBRANCH  15  16
ENDBRANCH  13  15
ENDBRANCH  12  13
ENDBRANCH   1  11
BRANCH   8  19
HETATM   19  O2  UNL     1      22.024   4.952  51.811  1.00  0.00    -0.353 OA
HETATM   20  C12 UNL     1      22.960   5.520  50.917  1.00  0.00     0.210 C 
ENDBRANCH   8  19
BRANCH   7  21
HETATM   21  O1  UNL     1      19.837   3.456  52.362  1.00  0.00    -0.353 OA
HETATM   22  C10 UNL     1      18.823   2.827  51.625  1.00  0.00     0.210 C 
ENDBRANCH   7  21
TORSDOF 6
ENDMDL
MODEL 7
REMARK VINA RESULT:      -6.2      3.320      4.867
REMARK  6 active torsions:
REMARK  status: ('A' for Active; 'I' for Inactive)
REMARK    1  A    between atoms: N1_2  and  C2_3 
REMARK    2  A    between atoms: C2_3  and  N2_4 
REMARK    3  A    between atoms: N2_4  and  C3_5 
REMARK    4  A    between atoms: C4_6  and  C5_7 
REMARK    5  A    between atoms: C9_13  and  O1_14 
REMARK    6  A    between atoms: C11_16  and  O2_17 
ROOT
HETATM    1  C5  UNL     1      25.970   2.603  50.924  1.00  0.00     0.072 A 
HETATM    2  N3  UNL     1      27.135   2.662  51.592  1.00  0.00    -0.241 NA
HETATM    3  C6  UNL     1      27.294   2.051  52.802  1.00  0.00     0.234 A 
HETATM    4  N4  UNL     1      26.277   1.353  53.387  1.00  0.00    -0.241 NA
HETATM    5  C7  UNL     1      25.084   1.259  52.765  1.00  0.00     0.073 A 
HETATM    6  C8  UNL     1      24.012   0.573  53.293  1.00  0.00     0.072 A 
HETATM    7  C9  UNL     1      22.792   0.469  52.668  1.00  0.00     0.103 A 
HETATM    8  C11 UNL     1      22.668   1.106  51.433  1.00  0.00     0.102 A 
HETATM    9  C13 UNL     1      23.753   1.790  50.919  1.00  0.00     0.055 A 
HETATM   10  C14 UNL     1      24.973   1.888  51.552  1.00  0.00     0.024 A 
ENDROOT
BRANCH   1  11
HETATM   11  C4  UNL     1      25.859   3.263  49.656  1.00  0.00     0.049 C 
HETATM   12  C3  UNL     1      25.631   4.565  49.673  1.00  0.00     0.087 C 
BRANCH  12  13
HETATM   13  N2  UNL     1      25.472   5.460  50.737  1.00  0.00    -0.375 N 
HETATM   14  H7  UNL     1      26.373   5.653  51.232  1.00  0.00     0.160 HD
BRANCH  13  15
HETATM   15  C2  UNL     1      24.205   6.073  51.138  1.00  0.00     0.391 C 
BRANCH  15  16
HETATM   16  N1  UNL     1      23.791   5.435  52.362  1.00  0.00     0.096 N 
HETATM   17  C1  UNL     1      22.451   4.945  52.276  1.00  0.00     0.308 C 
HETATM   18  H4  UNL     1      24.021   5.969  53.222  1.00  0.00     0.317 HD
ENDBRANCH  15  16
ENDBRANCH  13  15
ENDBRANCH  12  13
ENDBRANCH   1  11
BRANCH   8  19
HETATM   19  O2  UNL     1      21.442   1.010  50.792  1.00  0.00    -0.353 OA
HETATM   20  C12 UNL     1      21.438   1.040  49.379  1.00  0.00     0.210 C 
ENDBRANCH   8  19
BRANCH   7  21
HETATM   21  O1  UNL     1      21.719  -0.214  53.190  1.00  0.00    -0.353 OA
HETATM   22  C10 UNL     1      21.279   0.044  54.497  1.00  0.00     0.210 C 
ENDBRANCH   7  21
TORSDOF 6
ENDMDL
MODEL 8
REMARK VINA RESULT:      -6.1      3.833      7.164
REMARK  6 active torsions:
REMARK  status: ('A' for Active; 'I' for Inactive)
REMARK    1  A    between atoms: N1_2  and  C2_3 
REMARK    2  A    between atoms: C2_3  and  N2_4 
REMARK    3  A    between atoms: N2_4  and  C3_5 
REMARK    4  A    between atoms: C4_6  and  C5_7 
REMARK    5  A    between atoms: C9_13  and  O1_14 
REMARK    6  A    between atoms: C11_16  and  O2_17 
ROOT
HETATM    1  C5  UNL     1      24.196   2.210  51.716  1.00  0.00     0.072 A 
HETATM    2  N3  UNL     1      24.555   3.103  50.777  1.00  0.00    -0.241 NA
HETATM    3  C6  UNL     1      25.861   3.276  50.422  1.00  0.00     0.234 A 
HETATM    4  N4  UNL     1      26.861   2.550  51.003  1.00  0.00    -0.241 NA
HETATM    5  C7  UNL     1      26.563   1.638  51.951  1.00  0.00     0.073 A 
HETATM    6  C8  UNL     1      27.515   0.868  52.581  1.00  0.00     0.072 A 
HETATM    7  C9  UNL     1      27.224  -0.064  53.549  1.00  0.00     0.103 A 
HETATM    8  C11 UNL     1      25.878  -0.213  53.885  1.00  0.00     0.102 A 
HETATM    9  C13 UNL     1      24.935   0.568  53.242  1.00  0.00     0.055 A 
HETATM   10  C14 UNL     1      25.237   1.499  52.274  1.00  0.00     0.024 A 
ENDROOT
BRANCH   1  11
HETATM   11  C4  UNL     1      22.809   2.069  52.050  1.00  0.00     0.049 C 
HETATM   12  C3  UNL     1      21.997   1.661  51.089  1.00  0.00     0.087 C 
BRANCH  12  13
HETATM   13  N2  UNL     1      22.243   1.327  49.753  1.00  0.00    -0.375 N 
HETATM   14  H7  UNL     1      23.150   0.822  49.631  1.00  0.00     0.160 HD
BRANCH  13  15
HETATM   15  C2  UNL     1      21.355   1.635  48.632  1.00  0.00     0.391 C 
BRANCH  15  16
HETATM   16  N1  UNL     1      20.006   1.401  49.079  1.00  0.00     0.096 N 
HETATM   17  C1  UNL     1      19.164   2.530  48.834  1.00  0.00     0.308 C 
HETATM   18  H4  UNL     1      19.935   0.983  50.027  1.00  0.00     0.317 HD
ENDBRANCH  15  16
ENDBRANCH  13  15
ENDBRANCH  12  13
ENDBRANCH   1  11
BRANCH   8  19
HETATM   19  O2  UNL     1      25.569  -1.150  54.859  1.00  0.00    -0.353 OA
HETATM   20  C12 UNL     1      24.240  -1.185  55.337  1.00  0.00     0.210 C 
ENDBRANCH   8  19
BRANCH   7  21
HETATM   21  O1  UNL     1      28.171  -0.834  54.181  1.00  0.00    -0.353 OA
HETATM   22  C10 UNL     1      29.529  -0.697  53.860  1.00  0.00     0.210 C 
ENDBRANCH   7  21
TORSDOF 6
ENDMDL
MODEL 9
REMARK VINA RESULT:      -6.0      4.460      5.954
REMARK  6 active torsions:
REMARK  status: ('A' for Active; 'I' for Inactive)
REMARK    1  A    between atoms: N1_2  and  C2_3 
REMARK    2  A    between atoms: C2_3  and  N2_4 
REMARK    3  A    between atoms: N2_4  and  C3_5 
REMARK    4  A    between atoms: C4_6  and  C5_7 
REMARK    5  A    between atoms: C9_13  and  O1_14 
REMARK    6  A    between atoms: C11_16  and  O2_17 
ROOT
HETATM    1  C5  UNL     1      23.970   2.978  50.437  1.00  0.00     0.072 A 
HETATM    2  N3  UNL     1      22.853   3.613  50.045  1.00  0.00    -0.241 NA
HETATM    3  C6  UNL     1      21.641   3.336  50.608  1.00  0.00     0.234 A 
HETATM    4  N4  UNL     1      21.510   2.400  51.594  1.00  0.00    -0.241 NA
HETATM    5  C7  UNL     1      22.596   1.729  52.030  1.00  0.00     0.073 A 
HETATM    6  C8  UNL     1      22.543   0.773  53.019  1.00  0.00     0.072 A 
HETATM    7  C9  UNL     1      23.643   0.083  53.471  1.00  0.00     0.103 A 
HETATM    8  C11 UNL     1      24.864   0.394  52.872  1.00  0.00     0.102 A 
HETATM    9  C13 UNL     1      24.899   1.356  51.880  1.00  0.00     0.055 A 
HETATM   10  C14 UNL     1      23.791   2.043  51.434  1.00  0.00     0.024 A 
ENDROOT
BRANCH   1  11
HETATM   11  C4  UNL     1      25.217   3.309  49.811  1.00  0.00     0.049 C 
HETATM   12  C3  UNL     1      25.727   4.499  50.080  1.00  0.00     0.087 C 
BRANCH  12  13
HETATM   13  N2  UNL     1      25.264   5.540  50.892  1.00  0.00    -0.375 N 
HETATM   14  H7  UNL     1      24.990   5.208  51.845  1.00  0.00     0.160 HD
BRANCH  13  15
HETATM   15  C2  UNL     1      25.160   6.942  50.486  1.00  0.00     0.391 C 
BRANCH  15  16
HETATM   16  N1  UNL     1      24.130   7.545  51.291  1.00  0.00     0.096 N 
HETATM   17  C1  UNL     1      22.826   7.273  50.771  1.00  0.00     0.308 C 
HETATM   18  H4  UNL     1      24.314   8.533  51.553  1.00  0.00     0.317 HD
ENDBRANCH  15  16
ENDBRANCH  13  15
ENDBRANCH  12  13
ENDBRANCH   1  11
BRANCH   8  19
HETATM   19  O2  UNL     1      25.982  -0.295  53.318  1.00  0.00    -0.353 OA
HETATM   20  C12 UNL     1      26.794  -0.923  52.348  1.00  0.00     0.210 C 
ENDBRANCH   8  19
BRANCH   7  21
HETATM   21  O1  UNL     1      23.596  -0.873  54.459  1.00  0.00    -0.353 OA
HETATM   22  C10 UNL     1      22.364  -1.304  54.972  1.00  0.00     0.210 C 
ENDBRANCH   7  21
TORSDOF 6
ENDMDL
