MODEL 1
REMARK VINA RESULT:      -8.9      0.000      0.000
REMARK  3 active torsions:
REMARK  status: ('A' for Active; 'I' for Inactive)
REMARK    1  A    between atoms: N1_1  and  C1_2 
REMARK    2  A    between atoms: C1_2  and  O1_3 
REMARK    3  A    between atoms: O1_3  and  C2_4 
ROOT
HETATM    1  C2  UNL     1      15.016   3.454  52.654  1.00  0.00     0.069 C 
HETATM    2  C3  UNL     1      14.406   2.376  53.056  1.00  0.00     0.036 C 
HETATM    3  C4  UNL     1      14.261   0.941  52.965  1.00  0.00     0.208 C 
HETATM    4  O2  UNL     1      15.108   0.297  52.087  1.00  0.00    -0.329 OA
HETATM    5  C5  UNL     1      16.434   0.115  52.146  1.00  0.00     0.195 A 
HETATM    6  N2  UNL     1      16.238  -1.008  52.923  1.00  0.00    -0.216 NA
HETATM    7  C6  UNL     1      17.266  -1.778  53.392  1.00  0.00     0.236 A 
HETATM    8  N3  UNL     1      18.497  -1.396  53.062  1.00  0.00    -0.239 NA
HETATM    9  C7  UNL     1      18.785  -0.330  52.317  1.00  0.00     0.099 A 
HETATM   10  C8  UNL     1      20.200  -0.116  52.107  1.00  0.00    -0.005 C 
HETATM   11  C9  UNL     1      20.955  -0.806  52.990  1.00  0.00     0.014 C 
HETATM   12  C10 UNL     1      22.354  -1.064  53.372  1.00  0.00     0.002 C 
HETATM   13  C11 UNL     1      23.383  -0.217  53.198  1.00  0.00     0.012 C 
HETATM   14  C12 UNL     1      23.565   1.130  52.639  1.00  0.00    -0.026 A 
HETATM   15  C13 UNL     1      24.628   1.753  53.308  1.00  0.00     0.012 A 
HETATM   16  C14 UNL     1      24.926   3.022  52.907  1.00  0.00     0.001 A 
HETATM   17  C15 UNL     1      24.247   3.689  51.910  1.00  0.00     0.001 A 
HETATM   18  C16 UNL     1      23.201   3.116  51.230  1.00  0.00     0.012 A 
HETATM   19  C17 UNL     1      22.900   1.836  51.632  1.00  0.00    -0.026 A 
HETATM   20  C18 UNL     1      21.783   1.465  50.750  1.00  0.00     0.013 C 
HETATM   21  C19 UNL     1      20.720   0.666  51.006  1.00  0.00     0.014 C 
HETATM   22  C20 UNL     1      17.737   0.418  51.871  1.00  0.00     0.112 A 
HETATM   23  N4  UNL     1      18.023   1.610  51.183  1.00  0.00    -0.381 N 
HETATM   24  C21 UNL     1      17.296   2.568  50.364  1.00  0.00     0.147 C 
HETATM   25  C22 UNL     1      16.543   3.498  51.223  1.00  0.00    -0.005 C 
HETATM   26  C23 UNL     1      15.906   4.374  51.964  1.00  0.00     0.034 C 
HETATM   27  H18 UNL     1      18.963   2.039  51.277  1.00  0.00     0.160 HD
ENDROOT
BRANCH   1  28
HETATM   28  O1  UNL     1      14.302   4.404  53.473  1.00  0.00    -0.322 OA
BRANCH  28  29
HETATM   29  C1  UNL     1      12.945   4.202  53.777  1.00  0.00     0.441 C 
BRANCH  29  30
HETATM   30  N1  UNL     1      12.191   5.108  52.892  1.00  0.00     0.101 N 
HETATM   31  H1  UNL     1      12.585   4.875  51.927  1.00  0.00     0.315 HD
HETATM   32  H2  UNL     1      12.537   6.086  53.164  1.00  0.00     0.315 HD
ENDBRANCH  29  30
ENDBRANCH  28  29
ENDBRANCH   1  28
TORSDOF 3
ENDMDL
MODEL 2
REMARK VINA RESULT:      -8.7      4.496      8.593
REMARK  3 active torsions:
REMARK  status: ('A' for Active; 'I' for Inactive)
REMARK    1  A    between atoms: N1_1  and  C1_2 
REMARK    2  A    between atoms: C1_2  and  O1_3 
REMARK    3  A    between atoms: O1_3  and  C2_4 
ROOT
HETATM    1  C2  UNL     1      26.164   3.784  50.307  1.00  0.00     0.069 C 
HETATM    2  C3  UNL     1      26.746   2.853  51.006  1.00  0.00     0.036 C 
HETATM    3  C4  UNL     1      26.745   2.023  52.189  1.00  0.00     0.208 C 
HETATM    4  O2  UNL     1      25.686   2.199  53.056  1.00  0.00    -0.329 OA
HETATM    5  C5  UNL     1      24.388   1.905  52.901  1.00  0.00     0.195 A 
HETATM    6  N2  UNL     1      24.639   0.615  53.324  1.00  0.00    -0.216 NA
HETATM    7  C6  UNL     1      23.663  -0.337  53.427  1.00  0.00     0.236 A 
HETATM    8  N3  UNL     1      22.429   0.035  53.098  1.00  0.00    -0.239 NA
HETATM    9  C7  UNL     1      22.090   1.253  52.681  1.00  0.00     0.099 A 
HETATM   10  C8  UNL     1      20.686   1.407  52.371  1.00  0.00    -0.005 C 
HETATM   11  C9  UNL     1      20.067   0.217  52.212  1.00  0.00     0.014 C 
HETATM   12  C10 UNL     1      18.756  -0.381  51.904  1.00  0.00     0.002 C 
HETATM   13  C11 UNL     1      17.791   0.188  51.162  1.00  0.00     0.012 C 
HETATM   14  C12 UNL     1      17.618   1.454  50.437  1.00  0.00    -0.026 A 
HETATM   15  C13 UNL     1      16.769   1.232  49.343  1.00  0.00     0.012 A 
HETATM   16  C14 UNL     1      16.508   2.317  48.558  1.00  0.00     0.001 A 
HETATM   17  C15 UNL     1      17.027   3.572  48.789  1.00  0.00     0.001 A 
HETATM   18  C16 UNL     1      17.862   3.832  49.849  1.00  0.00     0.012 A 
HETATM   19  C17 UNL     1      18.125   2.740  50.641  1.00  0.00    -0.026 A 
HETATM   20  C18 UNL     1      19.006   3.292  51.682  1.00  0.00     0.013 C 
HETATM   21  C19 UNL     1      20.025   2.694  52.345  1.00  0.00     0.014 C 
HETATM   22  C20 UNL     1      23.088   2.176  52.585  1.00  0.00     0.112 A 
HETATM   23  N4  UNL     1      22.774   3.432  52.037  1.00  0.00    -0.381 N 
HETATM   24  C21 UNL     1      23.402   4.741  51.945  1.00  0.00     0.147 C 
HETATM   25  C22 UNL     1      24.390   4.752  50.853  1.00  0.00    -0.005 C 
HETATM   26  C23 UNL     1      25.237   4.808  49.851  1.00  0.00     0.034 C 
HETATM   27  H18 UNL     1      21.913   3.539  51.468  1.00  0.00     0.160 HD
ENDROOT
BRANCH   1  28
HETATM   28  O1  UNL     1      27.107   3.835  49.217  1.00  0.00    -0.322 OA
BRANCH  28  29
HETATM   29  C1  UNL     1      27.375   5.051  48.564  1.00  0.00     0.441 C 
BRANCH  29  30
HETATM   30  N1  UNL     1      28.737   5.440  48.973  1.00  0.00     0.101 N 
HETATM   31  H1  UNL     1      29.077   4.579  49.505  1.00  0.00     0.315 HD
HETATM   32  H2  UNL     1      28.581   6.228  49.683  1.00  0.00     0.315 HD
ENDBRANCH  29  30
ENDBRANCH  28  29
ENDBRANCH   1  28
TORSDOF 3
ENDMDL
MODEL 3
REMARK VINA RESULT:      -8.6      5.295      9.010
REMARK  3 active torsions:
REMARK  status: ('A' for Active; 'I' for Inactive)
REMARK    1  A    between atoms: N1_1  and  C1_2 
REMARK    2  A    between atoms: C1_2  and  O1_3 
REMARK    3  A    between atoms: O1_3  and  C2_4 
ROOT
HETATM    1  C2  UNL     1      26.395  -0.019  53.545  1.00  0.00     0.069 C 
HETATM    2  C3  UNL     1      25.378  -0.814  53.374  1.00  0.00     0.036 C 
HETATM    3  C4  UNL     1      23.945  -0.972  53.272  1.00  0.00     0.208 C 
HETATM    4  O2  UNL     1      23.196   0.180  53.385  1.00  0.00    -0.329 OA
HETATM    5  C5  UNL     1      23.096   1.228  52.556  1.00  0.00     0.195 A 
HETATM    6  N2  UNL     1      22.125   0.558  51.840  1.00  0.00    -0.216 NA
HETATM    7  C6  UNL     1      21.506   1.093  50.744  1.00  0.00     0.236 A 
HETATM    8  N3  UNL     1      21.884   2.316  50.383  1.00  0.00    -0.239 NA
HETATM    9  C7  UNL     1      22.809   3.040  51.010  1.00  0.00     0.099 A 
HETATM   10  C8  UNL     1      23.052   4.337  50.419  1.00  0.00    -0.005 C 
HETATM   11  C9  UNL     1      22.575   4.418  49.158  1.00  0.00     0.014 C 
HETATM   12  C10 UNL     1      22.462   5.339  48.013  1.00  0.00     0.002 C 
HETATM   13  C11 UNL     1      23.314   6.337  47.724  1.00  0.00     0.012 C 
HETATM   14  C12 UNL     1      24.543   6.886  48.312  1.00  0.00    -0.026 A 
HETATM   15  C13 UNL     1      25.331   7.423  47.284  1.00  0.00     0.012 A 
HETATM   16  C14 UNL     1      26.520   7.973  47.667  1.00  0.00     0.001 A 
HETATM   17  C15 UNL     1      26.958   8.018  48.972  1.00  0.00     0.001 A 
HETATM   18  C16 UNL     1      26.218   7.504  50.008  1.00  0.00     0.012 A 
HETATM   19  C17 UNL     1      25.020   6.950  49.625  1.00  0.00    -0.026 A 
HETATM   20  C18 UNL     1      24.438   6.504  50.901  1.00  0.00     0.013 C 
HETATM   21  C19 UNL     1      23.646   5.435  51.152  1.00  0.00     0.014 C 
HETATM   22  C20 UNL     1      23.409   2.475  52.096  1.00  0.00     0.112 A 
HETATM   23  N4  UNL     1      24.468   3.172  52.701  1.00  0.00    -0.381 N 
HETATM   24  C21 UNL     1      25.222   3.095  53.943  1.00  0.00     0.147 C 
HETATM   25  C22 UNL     1      26.254   2.048  53.843  1.00  0.00    -0.005 C 
HETATM   26  C23 UNL     1      27.217   1.160  53.763  1.00  0.00     0.034 C 
HETATM   27  H18 UNL     1      24.955   3.920  52.172  1.00  0.00     0.160 HD
ENDROOT
BRANCH   1  28
HETATM   28  O1  UNL     1      27.440  -1.009  53.459  1.00  0.00    -0.322 OA
BRANCH  28  29
HETATM   29  C1  UNL     1      27.270  -2.156  52.666  1.00  0.00     0.441 C 
BRANCH  29  30
HETATM   30  N1  UNL     1      28.340  -3.089  53.064  1.00  0.00     0.101 N 
HETATM   31  H1  UNL     1      29.168  -2.436  53.234  1.00  0.00     0.315 HD
HETATM   32  H2  UNL     1      28.539  -3.653  52.175  1.00  0.00     0.315 HD
ENDBRANCH  29  30
ENDBRANCH  28  29
ENDBRANCH   1  28
TORSDOF 3
ENDMDL
MODEL 4
REMARK VINA RESULT:      -8.5      8.008     12.034
REMARK  3 active torsions:
REMARK  status: ('A' for Active; 'I' for Inactive)
REMARK    1  A    between atoms: N1_1  and  C1_2 
REMARK    2  A    between atoms: C1_2  and  O1_3 
REMARK    3  A    between atoms: O1_3  and  C2_4 
ROOT
HETATM    1  C2  UNL     1      29.872   9.285  48.688  1.00  0.00     0.069 C 
HETATM    2  C3  UNL     1      29.008  10.048  48.083  1.00  0.00     0.036 C 
HETATM    3  C4  UNL     1      27.855  10.153  47.218  1.00  0.00     0.208 C 
HETATM    4  O2  UNL     1      27.327   8.963  46.760  1.00  0.00    -0.329 OA
HETATM    5  C5  UNL     1      26.686   7.993  47.425  1.00  0.00     0.195 A 
HETATM    6  N2  UNL     1      25.500   8.683  47.273  1.00  0.00    -0.216 NA
HETATM    7  C6  UNL     1      24.305   8.225  47.755  1.00  0.00     0.236 A 
HETATM    8  N3  UNL     1      24.326   7.058  48.392  1.00  0.00    -0.239 NA
HETATM    9  C7  UNL     1      25.418   6.320  48.586  1.00  0.00     0.099 A 
HETATM   10  C8  UNL     1      25.185   5.095  49.318  1.00  0.00    -0.005 C 
HETATM   11  C9  UNL     1      24.003   5.109  49.971  1.00  0.00     0.014 C 
HETATM   12  C10 UNL     1      23.151   4.293  50.855  1.00  0.00     0.002 C 
HETATM   13  C11 UNL     1      23.586   3.364  51.722  1.00  0.00     0.012 C 
HETATM   14  C12 UNL     1      24.889   2.817  52.125  1.00  0.00    -0.026 A 
HETATM   15  C13 UNL     1      24.809   2.410  53.465  1.00  0.00     0.012 A 
HETATM   16  C14 UNL     1      25.946   1.879  53.998  1.00  0.00     0.001 A 
HETATM   17  C15 UNL     1      27.125   1.733  53.298  1.00  0.00     0.001 A 
HETATM   18  C16 UNL     1      27.246   2.118  51.986  1.00  0.00     0.012 A 
HETATM   19  C17 UNL     1      26.100   2.653  51.446  1.00  0.00    -0.026 A 
HETATM   20  C18 UNL     1      26.495   2.954  50.062  1.00  0.00     0.013 C 
HETATM   21  C19 UNL     1      26.083   3.961  49.255  1.00  0.00     0.014 C 
HETATM   22  C20 UNL     1      26.592   6.808  48.098  1.00  0.00     0.112 A 
HETATM   23  N4  UNL     1      27.772   6.105  48.393  1.00  0.00    -0.381 N 
HETATM   24  C21 UNL     1      29.153   6.100  47.934  1.00  0.00     0.147 C 
HETATM   25  C22 UNL     1      29.902   7.195  48.574  1.00  0.00    -0.005 C 
HETATM   26  C23 UNL     1      30.608   8.127  49.171  1.00  0.00     0.034 C 
HETATM   27  H18 UNL     1      27.780   5.430  49.181  1.00  0.00     0.160 HD
ENDROOT
BRANCH   1  28
HETATM   28  O1  UNL     1      30.639  10.323  49.332  1.00  0.00    -0.322 OA
BRANCH  28  29
HETATM   29  C1  UNL     1      30.944  11.511  48.647  1.00  0.00     0.441 C 
BRANCH  29  30
HETATM   30  N1  UNL     1      30.600  12.611  49.566  1.00  0.00     0.101 N 
HETATM   31  H1  UNL     1      30.658  13.470  48.935  1.00  0.00     0.315 HD
HETATM   32  H2  UNL     1      31.425  12.646  50.251  1.00  0.00     0.315 HD
ENDBRANCH  29  30
ENDBRANCH  28  29
ENDBRANCH   1  28
TORSDOF 3
ENDMDL
MODEL 5
REMARK VINA RESULT:      -8.4      8.619     13.044
REMARK  3 active torsions:
REMARK  status: ('A' for Active; 'I' for Inactive)
REMARK    1  A    between atoms: N1_1  and  C1_2 
REMARK    2  A    between atoms: C1_2  and  O1_3 
REMARK    3  A    between atoms: O1_3  and  C2_4 
ROOT
HETATM    1  C2  UNL     1      31.708   7.501  48.801  1.00  0.00     0.069 C 
HETATM    2  C3  UNL     1      31.281   8.715  48.604  1.00  0.00     0.036 C 
HETATM    3  C4  UNL     1      30.237   9.586  48.113  1.00  0.00     0.208 C 
HETATM    4  O2  UNL     1      29.120   8.966  47.595  1.00  0.00    -0.329 OA
HETATM    5  C5  UNL     1      28.171   8.247  48.210  1.00  0.00     0.195 A 
HETATM    6  N2  UNL     1      27.496   9.412  48.513  1.00  0.00    -0.216 NA
HETATM    7  C6  UNL     1      26.313   9.430  49.199  1.00  0.00     0.236 A 
HETATM    8  N3  UNL     1      25.822   8.252  49.573  1.00  0.00    -0.239 NA
HETATM    9  C7  UNL     1      26.398   7.077  49.326  1.00  0.00     0.099 A 
HETATM   10  C8  UNL     1      25.676   5.938  49.847  1.00  0.00    -0.005 C 
HETATM   11  C9  UNL     1      24.768   6.296  50.781  1.00  0.00     0.014 C 
HETATM   12  C10 UNL     1      23.749   5.738  51.688  1.00  0.00     0.002 C 
HETATM   13  C11 UNL     1      23.762   4.502  52.215  1.00  0.00     0.012 C 
HETATM   14  C12 UNL     1      24.644   3.329  52.146  1.00  0.00    -0.026 A 
HETATM   15  C13 UNL     1      24.552   2.626  53.356  1.00  0.00     0.012 A 
HETATM   16  C14 UNL     1      25.319   1.503  53.456  1.00  0.00     0.001 A 
HETATM   17  C15 UNL     1      26.150   1.051  52.453  1.00  0.00     0.001 A 
HETATM   18  C16 UNL     1      26.270   1.708  51.254  1.00  0.00     0.012 A 
HETATM   19  C17 UNL     1      25.496   2.840  51.151  1.00  0.00    -0.026 A 
HETATM   20  C18 UNL     1      25.796   3.325  49.795  1.00  0.00     0.013 C 
HETATM   21  C19 UNL     1      25.850   4.597  49.333  1.00  0.00     0.014 C 
HETATM   22  C20 UNL     1      27.579   7.096  48.645  1.00  0.00     0.112 A 
HETATM   23  N4  UNL     1      28.262   5.880  48.476  1.00  0.00    -0.381 N 
HETATM   24  C21 UNL     1      29.369   5.382  47.674  1.00  0.00     0.147 C 
HETATM   25  C22 UNL     1      30.651   5.768  48.288  1.00  0.00    -0.005 C 
HETATM   26  C23 UNL     1      31.808   6.051  48.841  1.00  0.00     0.034 C 
HETATM   27  H18 UNL     1      28.032   5.076  49.091  1.00  0.00     0.160 HD
ENDROOT
BRANCH   1  28
HETATM   28  O1  UNL     1      32.976   7.830  49.403  1.00  0.00    -0.322 OA
BRANCH  28  29
HETATM   29  C1  UNL     1      34.073   8.187  48.601  1.00  0.00     0.441 C 
BRANCH  29  30
HETATM   30  N1  UNL     1      35.124   7.193  48.881  1.00  0.00     0.101 N 
HETATM   31  H1  UNL     1      34.671   6.278  48.567  1.00  0.00     0.315 HD
HETATM   32  H2  UNL     1      35.190   7.179  49.951  1.00  0.00     0.315 HD
ENDBRANCH  29  30
ENDBRANCH  28  29
ENDBRANCH   1  28
TORSDOF 3
ENDMDL
MODEL 6
REMARK VINA RESULT:      -8.2     25.020     28.592
REMARK  3 active torsions:
REMARK  status: ('A' for Active; 'I' for Inactive)
REMARK    1  A    between atoms: N1_1  and  C1_2 
REMARK    2  A    between atoms: C1_2  and  O1_3 
REMARK    3  A    between atoms: O1_3  and  C2_4 
ROOT
HETATM    1  C2  UNL     1      39.562  -0.387  67.861  1.00  0.00     0.069 C 
HETATM    2  C3  UNL     1      38.844  -0.132  68.916  1.00  0.00     0.036 C 
HETATM    3  C4  UNL     1      38.781   0.392  70.262  1.00  0.00     0.208 C 
HETATM    4  O2  UNL     1      39.959   0.890  70.778  1.00  0.00    -0.329 OA
HETATM    5  C5  UNL     1      40.659   1.979  70.433  1.00  0.00     0.195 A 
HETATM    6  N2  UNL     1      39.866   2.742  71.265  1.00  0.00    -0.216 NA
HETATM    7  C6  UNL     1      40.038   4.089  71.426  1.00  0.00     0.236 A 
HETATM    8  N3  UNL     1      41.024   4.653  70.735  1.00  0.00    -0.239 NA
HETATM    9  C7  UNL     1      41.841   4.000  69.911  1.00  0.00     0.099 A 
HETATM   10  C8  UNL     1      42.828   4.836  69.264  1.00  0.00    -0.005 C 
HETATM   11  C9  UNL     1      42.507   6.147  69.333  1.00  0.00     0.014 C 
HETATM   12  C10 UNL     1      42.980   7.483  68.932  1.00  0.00     0.002 C 
HETATM   13  C11 UNL     1      43.741   7.756  67.859  1.00  0.00     0.012 C 
HETATM   14  C12 UNL     1      44.356   6.983  66.771  1.00  0.00    -0.026 A 
HETATM   15  C13 UNL     1      44.436   7.798  65.632  1.00  0.00     0.012 A 
HETATM   16  C14 UNL     1      44.984   7.223  64.523  1.00  0.00     0.001 A 
HETATM   17  C15 UNL     1      45.442   5.924  64.480  1.00  0.00     0.001 A 
HETATM   18  C16 UNL     1      45.382   5.093  65.572  1.00  0.00     0.012 A 
HETATM   19  C17 UNL     1      44.831   5.670  66.691  1.00  0.00    -0.026 A 
HETATM   20  C18 UNL     1      44.904   4.593  67.690  1.00  0.00     0.013 C 
HETATM   21  C19 UNL     1      44.058   4.313  68.710  1.00  0.00     0.014 C 
HETATM   22  C20 UNL     1      41.639   2.659  69.769  1.00  0.00     0.112 A 
HETATM   23  N4  UNL     1      42.412   1.973  68.817  1.00  0.00    -0.381 N 
HETATM   24  C21 UNL     1      42.707   0.588  68.482  1.00  0.00     0.147 C 
HETATM   25  C22 UNL     1      41.609   0.016  67.685  1.00  0.00    -0.005 C 
HETATM   26  C23 UNL     1      40.671  -0.503  66.927  1.00  0.00     0.034 C 
HETATM   27  H18 UNL     1      42.887   2.507  68.065  1.00  0.00     0.160 HD
ENDROOT
BRANCH   1  28
HETATM   28  O1  UNL     1      38.520  -0.960  67.044  1.00  0.00    -0.322 OA
BRANCH  28  29
HETATM   29  C1  UNL     1      38.143  -2.303  67.210  1.00  0.00     0.441 C 
BRANCH  29  30
HETATM   30  N1  UNL     1      38.254  -2.925  65.879  1.00  0.00     0.101 N 
HETATM   31  H1  UNL     1      37.441  -3.617  65.875  1.00  0.00     0.315 HD
HETATM   32  H2  UNL     1      39.166  -3.485  65.928  1.00  0.00     0.315 HD
ENDBRANCH  29  30
ENDBRANCH  28  29
ENDBRANCH   1  28
TORSDOF 3
ENDMDL
MODEL 7
REMARK VINA RESULT:      -8.1      2.641      8.623
REMARK  3 active torsions:
REMARK  status: ('A' for Active; 'I' for Inactive)
REMARK    1  A    between atoms: N1_1  and  C1_2 
REMARK    2  A    between atoms: C1_2  and  O1_3 
REMARK    3  A    between atoms: O1_3  and  C2_4 
ROOT
HETATM    1  C2  UNL     1      20.760  -0.109  53.419  1.00  0.00     0.069 C 
HETATM    2  C3  UNL     1      21.346   0.859  52.776  1.00  0.00     0.036 C 
HETATM    3  C4  UNL     1      21.318   1.800  51.678  1.00  0.00     0.208 C 
HETATM    4  O2  UNL     1      20.203   1.757  50.868  1.00  0.00    -0.329 OA
HETATM    5  C5  UNL     1      18.933   2.093  51.132  1.00  0.00     0.195 A 
HETATM    6  N2  UNL     1      19.224   3.405  50.817  1.00  0.00    -0.216 NA
HETATM    7  C6  UNL     1      18.293   4.406  50.867  1.00  0.00     0.236 A 
HETATM    8  N3  UNL     1      17.063   4.060  51.237  1.00  0.00    -0.239 NA
HETATM    9  C7  UNL     1      16.688   2.823  51.557  1.00  0.00     0.099 A 
HETATM   10  C8  UNL     1      15.299   2.703  51.939  1.00  0.00    -0.005 C 
HETATM   11  C9  UNL     1      14.751   3.898  52.249  1.00  0.00     0.014 C 
HETATM   12  C10 UNL     1      13.492   4.522  52.695  1.00  0.00     0.002 C 
HETATM   13  C11 UNL     1      12.545   3.927  53.439  1.00  0.00     0.012 C 
HETATM   14  C12 UNL     1      12.350   2.606  54.051  1.00  0.00    -0.026 A 
HETATM   15  C13 UNL     1      11.579   2.758  55.212  1.00  0.00     0.012 A 
HETATM   16  C14 UNL     1      11.310   1.615  55.905  1.00  0.00     0.001 A 
HETATM   17  C15 UNL     1      11.750   0.366  55.524  1.00  0.00     0.001 A 
HETATM   18  C16 UNL     1      12.507   0.172  54.394  1.00  0.00     0.012 A 
HETATM   19  C17 UNL     1      12.779   1.324  53.694  1.00  0.00    -0.026 A 
HETATM   20  C18 UNL     1      13.568   0.838  52.551  1.00  0.00     0.013 C 
HETATM   21  C19 UNL     1      14.575   1.450  51.885  1.00  0.00     0.014 C 
HETATM   22  C20 UNL     1      17.641   1.851  51.502  1.00  0.00     0.112 A 
HETATM   23  N4  UNL     1      17.297   0.563  51.948  1.00  0.00    -0.381 N 
HETATM   24  C21 UNL     1      17.861  -0.776  51.875  1.00  0.00     0.147 C 
HETATM   25  C22 UNL     1      18.910  -0.938  52.897  1.00  0.00    -0.005 C 
HETATM   26  C23 UNL     1      19.810  -1.129  53.833  1.00  0.00     0.034 C 
HETATM   27  H18 UNL     1      16.466   0.440  52.557  1.00  0.00     0.160 HD
ENDROOT
BRANCH   1  28
HETATM   28  O1  UNL     1      21.761  -0.308  54.437  1.00  0.00    -0.322 OA
BRANCH  28  29
HETATM   29  C1  UNL     1      22.167  -1.607  54.792  1.00  0.00     0.441 C 
BRANCH  29  30
HETATM   30  N1  UNL     1      23.301  -1.440  55.718  1.00  0.00     0.101 N 
HETATM   31  H1  UNL     1      23.636  -2.443  55.861  1.00  0.00     0.315 HD
HETATM   32  H2  UNL     1      22.845  -1.109  56.631  1.00  0.00     0.315 HD
ENDBRANCH  29  30
ENDBRANCH  28  29
ENDBRANCH   1  28
TORSDOF 3
ENDMDL
MODEL 8
REMARK VINA RESULT:      -8.0      3.975      6.990
REMARK  3 active torsions:
REMARK  status: ('A' for Active; 'I' for Inactive)
REMARK    1  A    between atoms: N1_1  and  C1_2 
REMARK    2  A    between atoms: C1_2  and  O1_3 
REMARK    3  A    between atoms: O1_3  and  C2_4 
ROOT
HETATM    1  C2  UNL     1      19.821  -0.151  52.598  1.00  0.00     0.069 C 
HETATM    2  C3  UNL     1      20.782  -0.457  53.421  1.00  0.00     0.036 C 
HETATM    3  C4  UNL     1      22.202  -0.527  53.680  1.00  0.00     0.208 C 
HETATM    4  O2  UNL     1      23.028  -0.087  52.667  1.00  0.00    -0.329 OA
HETATM    5  C5  UNL     1      23.220   1.149  52.187  1.00  0.00     0.195 A 
HETATM    6  N2  UNL     1      24.157   1.378  53.175  1.00  0.00    -0.216 NA
HETATM    7  C6  UNL     1      24.835   2.559  53.297  1.00  0.00     0.236 A 
HETATM    8  N3  UNL     1      24.553   3.505  52.406  1.00  0.00    -0.239 NA
HETATM    9  C7  UNL     1      23.669   3.377  51.419  1.00  0.00     0.099 A 
HETATM   10  C8  UNL     1      23.531   4.551  50.587  1.00  0.00    -0.005 C 
HETATM   11  C9  UNL     1      24.040   5.655  51.177  1.00  0.00     0.014 C 
HETATM   12  C10 UNL     1      24.242   7.099  50.966  1.00  0.00     0.002 C 
HETATM   13  C11 UNL     1      23.469   7.896  50.209  1.00  0.00     0.012 C 
HETATM   14  C12 UNL     1      22.269   7.730  49.378  1.00  0.00    -0.026 A 
HETATM   15  C13 UNL     1      21.544   8.930  49.393  1.00  0.00     0.012 A 
HETATM   16  C14 UNL     1      20.389   8.941  48.666  1.00  0.00     0.001 A 
HETATM   17  C15 UNL     1      19.927   7.860  47.947  1.00  0.00     0.001 A 
HETATM   18  C16 UNL     1      20.606   6.668  47.905  1.00  0.00     0.012 A 
HETATM   19  C17 UNL     1      21.770   6.655  48.636  1.00  0.00    -0.026 A 
HETATM   20  C18 UNL     1      22.291   5.299  48.407  1.00  0.00     0.013 C 
HETATM   21  C19 UNL     1      23.000   4.502  49.241  1.00  0.00     0.014 C 
HETATM   22  C20 UNL     1      23.007   2.189  51.329  1.00  0.00     0.112 A 
HETATM   23  N4  UNL     1      21.987   2.074  50.369  1.00  0.00    -0.381 N 
HETATM   24  C21 UNL     1      21.201   1.004  49.772  1.00  0.00     0.147 C 
HETATM   25  C22 UNL     1      20.101   0.622  50.673  1.00  0.00    -0.005 C 
HETATM   26  C23 UNL     1      19.079   0.297  51.430  1.00  0.00     0.034 C 
HETATM   27  H18 UNL     1      21.566   2.933  49.967  1.00  0.00     0.160 HD
ENDROOT
BRANCH   1  28
HETATM   28  O1  UNL     1      18.710  -0.517  53.442  1.00  0.00    -0.322 OA
BRANCH  28  29
HETATM   29  C1  UNL     1      17.806  -1.514  53.037  1.00  0.00     0.441 C 
BRANCH  29  30
HETATM   30  N1  UNL     1      17.843  -2.548  54.086  1.00  0.00     0.101 N 
HETATM   31  H1  UNL     1      18.466  -3.299  53.653  1.00  0.00     0.315 HD
HETATM   32  H2  UNL     1      16.840  -2.925  54.116  1.00  0.00     0.315 HD
ENDBRANCH  29  30
ENDBRANCH  28  29
ENDBRANCH   1  28
TORSDOF 3
ENDMDL
MODEL 9
REMARK VINA RESULT:      -7.8      3.587      5.795
REMARK  3 active torsions:
REMARK  status: ('A' for Active; 'I' for Inactive)
REMARK    1  A    between atoms: N1_1  and  C1_2 
REMARK    2  A    between atoms: C1_2  and  O1_3 
REMARK    3  A    between atoms: O1_3  and  C2_4 
ROOT
HETATM    1  C2  UNL     1      17.709   2.707  49.270  1.00  0.00     0.069 C 
HETATM    2  C3  UNL     1      17.837   3.599  48.331  1.00  0.00     0.036 C 
HETATM    3  C4  UNL     1      18.448   4.829  47.880  1.00  0.00     0.208 C 
HETATM    4  O2  UNL     1      19.328   5.429  48.756  1.00  0.00    -0.329 OA
HETATM    5  C5  UNL     1      20.538   5.031  49.169  1.00  0.00     0.195 A 
HETATM    6  N2  UNL     1      21.103   5.618  48.056  1.00  0.00    -0.216 NA
HETATM    7  C6  UNL     1      22.448   5.602  47.807  1.00  0.00     0.236 A 
HETATM    8  N3  UNL     1      23.213   4.983  48.702  1.00  0.00    -0.239 NA
HETATM    9  C7  UNL     1      22.761   4.390  49.805  1.00  0.00     0.099 A 
HETATM   10  C8  UNL     1      23.789   3.775  50.614  1.00  0.00    -0.005 C 
HETATM   11  C9  UNL     1      24.941   3.602  49.929  1.00  0.00     0.014 C 
HETATM   12  C10 UNL     1      26.311   3.080  50.068  1.00  0.00     0.002 C 
HETATM   13  C11 UNL     1      26.694   2.099  50.902  1.00  0.00     0.012 C 
HETATM   14  C12 UNL     1      26.041   1.236  51.896  1.00  0.00    -0.026 A 
HETATM   15  C13 UNL     1      26.725   0.013  51.947  1.00  0.00     0.012 A 
HETATM   16  C14 UNL     1      26.237  -0.909  52.826  1.00  0.00     0.001 A 
HETATM   17  C15 UNL     1      25.141  -0.693  53.633  1.00  0.00     0.001 A 
HETATM   18  C16 UNL     1      24.443   0.490  53.615  1.00  0.00     0.012 A 
HETATM   19  C17 UNL     1      24.934   1.420  52.730  1.00  0.00    -0.026 A 
HETATM   20  C18 UNL     1      24.034   2.568  52.923  1.00  0.00     0.013 C 
HETATM   21  C19 UNL     1      23.613   3.486  52.021  1.00  0.00     0.014 C 
HETATM   22  C20 UNL     1      21.416   4.421  50.020  1.00  0.00     0.112 A 
HETATM   23  N4  UNL     1      20.906   3.701  51.114  1.00  0.00    -0.381 N 
HETATM   24  C21 UNL     1      19.650   3.621  51.844  1.00  0.00     0.147 C 
HETATM   25  C22 UNL     1      18.696   2.768  51.115  1.00  0.00    -0.005 C 
HETATM   26  C23 UNL     1      17.844   1.969  50.516  1.00  0.00     0.034 C 
HETATM   27  H18 UNL     1      21.482   2.954  51.546  1.00  0.00     0.160 HD
ENDROOT
BRANCH   1  28
HETATM   28  O1  UNL     1      16.769   1.843  48.598  1.00  0.00    -0.322 OA
BRANCH  28  29
HETATM   29  C1  UNL     1      15.591   2.369  48.043  1.00  0.00     0.441 C 
BRANCH  29  30
HETATM   30  N1  UNL     1      14.517   2.067  49.006  1.00  0.00     0.101 N 
HETATM   31  H1  UNL     1      15.018   2.144  49.946  1.00  0.00     0.315 HD
HETATM   32  H2  UNL     1      14.295   1.033  48.833  1.00  0.00     0.315 HD
ENDBRANCH  29  30
ENDBRANCH  28  29
ENDBRANCH   1  28
TORSDOF 3
ENDMDL
