MODEL 1
REMARK VINA RESULT:      -7.4      0.000      0.000
REMARK  5 active torsions:
REMARK  status: ('A' for Active; 'I' for Inactive)
REMARK    1  A    between atoms: C4_5  and  N2_6 
REMARK    2  A    between atoms: N2_6  and  C5_7 
REMARK    3  A    between atoms: C5_7  and  C6_8 
REMARK    4  A    between atoms: C9_11  and  S1_12 
REMARK    5  A    between atoms: C15_19  and  C16_20 
ROOT
HETATM    1  C1  UNL     1      28.606   0.188  54.705  1.00  0.00     0.046 C 
HETATM    2  C2  UNL     1      27.553   0.576  53.700  1.00  0.00    -0.056 C 
HETATM    3  C3  UNL     1      27.910   1.686  53.026  1.00  0.00     0.121 C 
HETATM    4  N1  UNL     1      27.124   2.320  51.994  1.00  0.00    -0.247 NA
HETATM    5  C4  UNL     1      25.878   2.683  51.907  1.00  0.00     0.103 C 
HETATM    6  C12 UNL     1      24.701   2.597  52.848  1.00  0.00     0.105 C 
HETATM    7  C13 UNL     1      24.350   1.159  53.022  1.00  0.00    -0.022 C 
HETATM    8  C14 UNL     1      25.128   0.124  53.377  1.00  0.00    -0.019 C 
HETATM    9  C15 UNL     1      26.443  -0.394  53.760  1.00  0.00     0.066 C 
ENDROOT
BRANCH   5  10
HETATM   10  N2  UNL     1      25.576   3.280  50.661  1.00  0.00    -0.374 N 
HETATM   11  H5  UNL     1      24.657   3.790  50.585  1.00  0.00     0.161 HD
BRANCH  10  12
HETATM   12  C5  UNL     1      26.536   3.155  49.583  1.00  0.00     0.155 C 
BRANCH  12  13
HETATM   13  C6  UNL     1      26.962   4.502  49.123  1.00  0.00    -0.058 A 
HETATM   14  C7  UNL     1      28.033   5.018  48.494  1.00  0.00     0.006 A 
HETATM   15  C8  UNL     1      27.819   6.469  48.336  1.00  0.00     0.017 A 
HETATM   16  C9  UNL     1      26.657   6.758  48.863  1.00  0.00     0.013 A 
HETATM   17  C11 UNL     1      25.959   5.574  49.427  1.00  0.00     0.084 A 
BRANCH  16  18
HETATM   18  S1  UNL     1      26.063   8.425  48.853  1.00  0.00     0.042 S 
HETATM   19  C10 UNL     1      24.266   8.481  48.904  1.00  0.00     0.132 C 
HETATM   20  O1  UNL     1      26.678   9.245  49.970  1.00  0.00    -0.253 OA
ENDBRANCH  16  18
ENDBRANCH  12  13
ENDBRANCH  10  12
ENDBRANCH   5  10
BRANCH   9  21
HETATM   21  C16 UNL     1      26.780  -1.517  52.780  1.00  0.00     0.235 C 
HETATM   22  F1  UNL     1      26.745  -1.063  51.465  1.00  0.00    -0.254 F 
ENDBRANCH   9  21
TORSDOF 5
ENDMDL
MODEL 2
REMARK VINA RESULT:      -7.3      3.822      7.185
REMARK  5 active torsions:
REMARK  status: ('A' for Active; 'I' for Inactive)
REMARK    1  A    between atoms: C4_5  and  N2_6 
REMARK    2  A    between atoms: N2_6  and  C5_7 
REMARK    3  A    between atoms: C5_7  and  C6_8 
REMARK    4  A    between atoms: C9_11  and  S1_12 
REMARK    5  A    between atoms: C15_19  and  C16_20 
ROOT
HETATM    1  C1  UNL     1      27.816   5.615  48.364  1.00  0.00     0.046 C 
HETATM    2  C2  UNL     1      26.546   5.168  49.039  1.00  0.00    -0.056 C 
HETATM    3  C3  UNL     1      26.695   3.955  49.603  1.00  0.00     0.121 C 
HETATM    4  N1  UNL     1      25.668   3.242  50.326  1.00  0.00    -0.247 NA
HETATM    5  C4  UNL     1      24.423   2.960  50.079  1.00  0.00     0.103 C 
HETATM    6  C12 UNL     1      23.500   3.257  48.921  1.00  0.00     0.105 C 
HETATM    7  C13 UNL     1      23.253   4.727  48.890  1.00  0.00    -0.022 C 
HETATM    8  C14 UNL     1      24.131   5.743  48.877  1.00  0.00    -0.019 C 
HETATM    9  C15 UNL     1      25.517   6.214  48.878  1.00  0.00     0.066 C 
ENDROOT
BRANCH   5  10
HETATM   10  N2  UNL     1      23.819   2.222  51.122  1.00  0.00    -0.374 N 
HETATM   11  H5  UNL     1      23.145   1.462  50.842  1.00  0.00     0.161 HD
BRANCH  10  12
HETATM   12  C5  UNL     1      24.161   2.551  52.491  1.00  0.00     0.155 C 
BRANCH  12  13
HETATM   13  C6  UNL     1      24.930   1.438  53.105  1.00  0.00    -0.058 A 
HETATM   14  C7  UNL     1      24.701   0.143  53.388  1.00  0.00     0.006 A 
HETATM   15  C8  UNL     1      25.916  -0.412  54.014  1.00  0.00     0.017 A 
HETATM   16  C9  UNL     1      26.803   0.548  54.079  1.00  0.00     0.013 A 
HETATM   17  C11 UNL     1      26.313   1.835  53.522  1.00  0.00     0.084 A 
BRANCH  16  18
HETATM   18  S1  UNL     1      28.399   0.242  54.779  1.00  0.00     0.042 S 
HETATM   19  C10 UNL     1      29.367  -0.866  53.744  1.00  0.00     0.132 C 
HETATM   20  O1  UNL     1      29.143   1.531  55.062  1.00  0.00    -0.253 OA
ENDBRANCH  16  18
ENDBRANCH  12  13
ENDBRANCH  10  12
ENDBRANCH   5  10
BRANCH   9  21
HETATM   21  C16 UNL     1      25.660   7.166  50.065  1.00  0.00     0.235 C 
HETATM   22  F1  UNL     1      24.918   6.724  51.155  1.00  0.00    -0.254 F 
ENDBRANCH   9  21
TORSDOF 5
ENDMDL
MODEL 3
REMARK VINA RESULT:      -7.0      5.444      7.238
REMARK  5 active torsions:
REMARK  status: ('A' for Active; 'I' for Inactive)
REMARK    1  A    between atoms: C4_5  and  N2_6 
REMARK    2  A    between atoms: N2_6  and  C5_7 
REMARK    3  A    between atoms: C5_7  and  C6_8 
REMARK    4  A    between atoms: C9_11  and  S1_12 
REMARK    5  A    between atoms: C15_19  and  C16_20 
ROOT
HETATM    1  C1  UNL     1      28.851  -2.243  52.948  1.00  0.00     0.046 C 
HETATM    2  C2  UNL     1      27.942  -1.052  53.104  1.00  0.00    -0.056 C 
HETATM    3  C3  UNL     1      26.656  -1.392  52.899  1.00  0.00     0.121 C 
HETATM    4  N1  UNL     1      25.535  -0.485  52.973  1.00  0.00    -0.247 NA
HETATM    5  C4  UNL     1      25.292   0.690  52.469  1.00  0.00     0.103 C 
HETATM    6  C12 UNL     1      26.080   1.624  51.583  1.00  0.00     0.105 C 
HETATM    7  C13 UNL     1      27.256   2.115  52.357  1.00  0.00    -0.022 C 
HETATM    8  C14 UNL     1      28.197   1.421  53.019  1.00  0.00    -0.019 C 
HETATM    9  C15 UNL     1      28.751   0.134  53.443  1.00  0.00     0.066 C 
ENDROOT
BRANCH   5  10
HETATM   10  N2  UNL     1      24.019   1.183  52.838  1.00  0.00    -0.374 N 
HETATM   11  H5  UNL     1      23.935   1.621  53.792  1.00  0.00     0.161 HD
BRANCH  10  12
HETATM   12  C5  UNL     1      22.927   1.055  51.894  1.00  0.00     0.155 C 
BRANCH  12  13
HETATM   13  C6  UNL     1      21.743   0.458  52.565  1.00  0.00    -0.058 A 
HETATM   14  C7  UNL     1      21.491  -0.117  53.753  1.00  0.00     0.006 A 
HETATM   15  C8  UNL     1      20.068  -0.504  53.785  1.00  0.00     0.017 A 
HETATM   16  C9  UNL     1      19.537  -0.154  52.642  1.00  0.00     0.013 A 
HETATM   17  C11 UNL     1      20.506   0.495  51.721  1.00  0.00     0.084 A 
BRANCH  16  18
HETATM   18  S1  UNL     1      17.825  -0.465  52.321  1.00  0.00     0.042 S 
HETATM   19  C10 UNL     1      17.411  -0.144  50.600  1.00  0.00     0.132 C 
HETATM   20  O1  UNL     1      17.422  -1.866  52.738  1.00  0.00    -0.253 OA
ENDBRANCH  16  18
ENDBRANCH  12  13
ENDBRANCH  10  12
ENDBRANCH   5  10
BRANCH   9  21
HETATM   21  C16 UNL     1      28.858   0.179  54.967  1.00  0.00     0.235 C 
HETATM   22  F1  UNL     1      27.599   0.226  55.558  1.00  0.00    -0.254 F 
ENDBRANCH   9  21
TORSDOF 5
ENDMDL
MODEL 4
REMARK VINA RESULT:      -6.8      2.138      3.106
REMARK  5 active torsions:
REMARK  status: ('A' for Active; 'I' for Inactive)
REMARK    1  A    between atoms: C4_5  and  N2_6 
REMARK    2  A    between atoms: N2_6  and  C5_7 
REMARK    3  A    between atoms: C5_7  and  C6_8 
REMARK    4  A    between atoms: C9_11  and  S1_12 
REMARK    5  A    between atoms: C15_19  and  C16_20 
ROOT
HETATM    1  C1  UNL     1      22.418  -0.975  53.744  1.00  0.00     0.046 C 
HETATM    2  C2  UNL     1      22.983   0.193  52.978  1.00  0.00    -0.056 C 
HETATM    3  C3  UNL     1      24.329   0.187  53.005  1.00  0.00     0.121 C 
HETATM    4  N1  UNL     1      25.178   1.167  52.369  1.00  0.00    -0.247 NA
HETATM    5  C4  UNL     1      25.196   2.468  52.354  1.00  0.00     0.103 C 
HETATM    6  C12 UNL     1      24.334   3.527  52.996  1.00  0.00     0.105 C 
HETATM    7  C13 UNL     1      22.980   3.463  52.374  1.00  0.00    -0.022 C 
HETATM    8  C14 UNL     1      22.154   2.415  52.227  1.00  0.00    -0.019 C 
HETATM    9  C15 UNL     1      21.874   0.991  52.422  1.00  0.00     0.066 C 
ENDROOT
BRANCH   5  10
HETATM   10  N2  UNL     1      26.250   2.983  51.565  1.00  0.00    -0.374 N 
HETATM   11  H5  UNL     1      27.068   3.408  52.077  1.00  0.00     0.161 HD
BRANCH  10  12
HETATM   12  C5  UNL     1      26.142   2.896  50.122  1.00  0.00     0.155 C 
BRANCH  12  13
HETATM   13  C6  UNL     1      26.487   4.204  49.507  1.00  0.00    -0.058 A 
HETATM   14  C7  UNL     1      27.498   4.689  48.766  1.00  0.00     0.006 A 
HETATM   15  C8  UNL     1      27.220   6.109  48.479  1.00  0.00     0.017 A 
HETATM   16  C9  UNL     1      26.080   6.411  49.047  1.00  0.00     0.013 A 
HETATM   17  C11 UNL     1      25.464   5.267  49.767  1.00  0.00     0.084 A 
BRANCH  16  18
HETATM   18  S1  UNL     1      25.423   8.048  48.911  1.00  0.00     0.042 S 
HETATM   19  C10 UNL     1      24.380   8.217  47.455  1.00  0.00     0.132 C 
HETATM   20  O1  UNL     1      24.691   8.465  50.171  1.00  0.00    -0.253 OA
ENDBRANCH  16  18
ENDBRANCH  12  13
ENDBRANCH  10  12
ENDBRANCH   5  10
BRANCH   9  21
HETATM   21  C16 UNL     1      21.553   0.410  51.046  1.00  0.00     0.235 C 
HETATM   22  F1  UNL     1      22.368   0.965  50.064  1.00  0.00    -0.254 F 
ENDBRANCH   9  21
TORSDOF 5
ENDMDL
MODEL 5
REMARK VINA RESULT:      -6.7      3.917      7.675
REMARK  5 active torsions:
REMARK  status: ('A' for Active; 'I' for Inactive)
REMARK    1  A    between atoms: C4_5  and  N2_6 
REMARK    2  A    between atoms: N2_6  and  C5_7 
REMARK    3  A    between atoms: C5_7  and  C6_8 
REMARK    4  A    between atoms: C9_11  and  S1_12 
REMARK    5  A    between atoms: C15_19  and  C16_20 
ROOT
HETATM    1  C1  UNL     1      29.254   7.257  46.755  1.00  0.00     0.046 C 
HETATM    2  C2  UNL     1      28.332   6.866  47.880  1.00  0.00    -0.056 C 
HETATM    3  C3  UNL     1      28.489   5.571  48.210  1.00  0.00     0.121 C 
HETATM    4  N1  UNL     1      27.756   4.883  49.247  1.00  0.00    -0.247 NA
HETATM    5  C4  UNL     1      26.495   4.795  49.552  1.00  0.00     0.103 C 
HETATM    6  C12 UNL     1      25.238   5.377  48.953  1.00  0.00     0.105 C 
HETATM    7  C13 UNL     1      25.265   6.853  49.164  1.00  0.00    -0.022 C 
HETATM    8  C14 UNL     1      26.218   7.746  48.853  1.00  0.00    -0.019 C 
HETATM    9  C15 UNL     1      27.534   8.040  48.283  1.00  0.00     0.066 C 
ENDROOT
BRANCH   5  10
HETATM   10  N2  UNL     1      26.269   3.980  50.686  1.00  0.00    -0.374 N 
HETATM   11  H5  UNL     1      26.649   4.326  51.606  1.00  0.00     0.161 HD
BRANCH  10  12
HETATM   12  C5  UNL     1      25.541   2.739  50.513  1.00  0.00     0.155 C 
BRANCH  12  13
HETATM   13  C6  UNL     1      25.953   1.760  51.552  1.00  0.00    -0.058 A 
HETATM   14  C7  UNL     1      25.466   0.608  52.043  1.00  0.00     0.006 A 
HETATM   15  C8  UNL     1      26.386   0.130  53.093  1.00  0.00     0.017 A 
HETATM   16  C9  UNL     1      27.364   0.994  53.186  1.00  0.00     0.013 A 
HETATM   17  C11 UNL     1      27.232   2.131  52.239  1.00  0.00     0.084 A 
BRANCH  16  18
HETATM   18  S1  UNL     1      28.669   0.742  54.354  1.00  0.00     0.042 S 
HETATM   19  C10 UNL     1      29.787  -0.560  53.818  1.00  0.00     0.132 C 
HETATM   20  O1  UNL     1      29.413   2.029  54.649  1.00  0.00    -0.253 OA
ENDBRANCH  16  18
ENDBRANCH  12  13
ENDBRANCH  10  12
ENDBRANCH   5  10
BRANCH   9  21
HETATM   21  C16 UNL     1      28.331   8.771  49.362  1.00  0.00     0.235 C 
HETATM   22  F1  UNL     1      27.536   9.055  50.468  1.00  0.00    -0.254 F 
ENDBRANCH   9  21
TORSDOF 5
ENDMDL
MODEL 6
REMARK VINA RESULT:      -6.6      3.420      3.833
REMARK  5 active torsions:
REMARK  status: ('A' for Active; 'I' for Inactive)
REMARK    1  A    between atoms: C4_5  and  N2_6 
REMARK    2  A    between atoms: N2_6  and  C5_7 
REMARK    3  A    between atoms: C5_7  and  C6_8 
REMARK    4  A    between atoms: C9_11  and  S1_12 
REMARK    5  A    between atoms: C15_19  and  C16_20 
ROOT
HETATM    1  C1  UNL     1      28.783   0.160  54.537  1.00  0.00     0.046 C 
HETATM    2  C2  UNL     1      27.761   0.534  53.496  1.00  0.00    -0.056 C 
HETATM    3  C3  UNL     1      28.029   1.741  52.962  1.00  0.00     0.121 C 
HETATM    4  N1  UNL     1      27.243   2.390  51.939  1.00  0.00    -0.247 NA
HETATM    5  C4  UNL     1      25.971   2.620  51.790  1.00  0.00     0.103 C 
HETATM    6  C12 UNL     1      24.754   2.307  52.625  1.00  0.00     0.105 C 
HETATM    7  C13 UNL     1      24.564   0.828  52.630  1.00  0.00    -0.022 C 
HETATM    8  C14 UNL     1      25.433  -0.147  52.942  1.00  0.00    -0.019 C 
HETATM    9  C15 UNL     1      26.771  -0.553  53.374  1.00  0.00     0.066 C 
ENDROOT
BRANCH   5  10
HETATM   10  N2  UNL     1      25.685   3.308  50.589  1.00  0.00    -0.374 N 
HETATM   11  H5  UNL     1      26.386   3.219  49.807  1.00  0.00     0.161 HD
BRANCH  10  12
HETATM   12  C5  UNL     1      24.463   4.083  50.509  1.00  0.00     0.155 C 
BRANCH  12  13
HETATM   13  C6  UNL     1      23.529   3.460  49.535  1.00  0.00    -0.058 A 
HETATM   14  C7  UNL     1      22.933   2.264  49.393  1.00  0.00     0.006 A 
HETATM   15  C8  UNL     1      22.106   2.303  48.172  1.00  0.00     0.017 A 
HETATM   16  C9  UNL     1      22.236   3.493  47.643  1.00  0.00     0.013 A 
HETATM   17  C11 UNL     1      23.141   4.381  48.418  1.00  0.00     0.084 A 
BRANCH  16  18
HETATM   18  S1  UNL     1      21.377   3.905  46.153  1.00  0.00     0.042 S 
HETATM   19  C10 UNL     1      21.076   5.674  46.038  1.00  0.00     0.132 C 
HETATM   20  O1  UNL     1      22.099   3.382  44.927  1.00  0.00    -0.253 OA
ENDBRANCH  16  18
ENDBRANCH  12  13
ENDBRANCH  10  12
ENDBRANCH   5  10
BRANCH   9  21
HETATM   21  C16 UNL     1      27.301  -1.523  52.319  1.00  0.00     0.235 C 
HETATM   22  F1  UNL     1      26.927  -2.832  52.607  1.00  0.00    -0.254 F 
ENDBRANCH   9  21
TORSDOF 5
ENDMDL
MODEL 7
REMARK VINA RESULT:      -6.6      4.928      7.459
REMARK  5 active torsions:
REMARK  status: ('A' for Active; 'I' for Inactive)
REMARK    1  A    between atoms: C4_5  and  N2_6 
REMARK    2  A    between atoms: N2_6  and  C5_7 
REMARK    3  A    between atoms: C5_7  and  C6_8 
REMARK    4  A    between atoms: C9_11  and  S1_12 
REMARK    5  A    between atoms: C15_19  and  C16_20 
ROOT
HETATM    1  C1  UNL     1      18.010   3.210  51.526  1.00  0.00     0.046 C 
HETATM    2  C2  UNL     1      19.423   2.694  51.453  1.00  0.00    -0.056 C 
HETATM    3  C3  UNL     1      20.312   3.671  51.714  1.00  0.00     0.121 C 
HETATM    4  N1  UNL     1      21.747   3.508  51.723  1.00  0.00    -0.247 NA
HETATM    5  C4  UNL     1      22.598   2.971  50.899  1.00  0.00     0.103 C 
HETATM    6  C12 UNL     1      22.458   2.277  49.566  1.00  0.00     0.105 C 
HETATM    7  C13 UNL     1      21.741   0.989  49.787  1.00  0.00    -0.022 C 
HETATM    8  C14 UNL     1      20.571   0.753  50.402  1.00  0.00    -0.019 C 
HETATM    9  C15 UNL     1      19.398   1.257  51.119  1.00  0.00     0.066 C 
ENDROOT
BRANCH   5  10
HETATM   10  N2  UNL     1      23.930   3.062  51.364  1.00  0.00    -0.374 N 
HETATM   11  H5  UNL     1      24.689   3.105  50.634  1.00  0.00     0.161 HD
BRANCH  10  12
HETATM   12  C5  UNL     1      24.165   3.089  52.794  1.00  0.00     0.155 C 
BRANCH  12  13
HETATM   13  C6  UNL     1      24.836   1.836  53.223  1.00  0.00    -0.058 A 
HETATM   14  C7  UNL     1      24.500   0.537  53.306  1.00  0.00     0.006 A 
HETATM   15  C8  UNL     1      25.662  -0.207  53.829  1.00  0.00     0.017 A 
HETATM   16  C9  UNL     1      26.625   0.655  54.033  1.00  0.00     0.013 A 
HETATM   17  C11 UNL     1      26.246   2.049  53.684  1.00  0.00     0.084 A 
BRANCH  16  18
HETATM   18  S1  UNL     1      28.187   0.115  54.664  1.00  0.00     0.042 S 
HETATM   19  C10 UNL     1      29.087  -0.853  53.444  1.00  0.00     0.132 C 
HETATM   20  O1  UNL     1      29.017   1.276  55.176  1.00  0.00    -0.253 OA
ENDBRANCH  16  18
ENDBRANCH  12  13
ENDBRANCH  10  12
ENDBRANCH   5  10
BRANCH   9  21
HETATM   21  C16 UNL     1      19.326   0.494  52.441  1.00  0.00     0.235 C 
HETATM   22  F1  UNL     1      18.935  -0.826  52.237  1.00  0.00    -0.254 F 
ENDBRANCH   9  21
TORSDOF 5
ENDMDL
MODEL 8
REMARK VINA RESULT:      -6.5      2.998      4.327
REMARK  5 active torsions:
REMARK  status: ('A' for Active; 'I' for Inactive)
REMARK    1  A    between atoms: C4_5  and  N2_6 
REMARK    2  A    between atoms: N2_6  and  C5_7 
REMARK    3  A    between atoms: C5_7  and  C6_8 
REMARK    4  A    between atoms: C9_11  and  S1_12 
REMARK    5  A    between atoms: C15_19  and  C16_20 
ROOT
HETATM    1  C1  UNL     1      21.832   1.119  49.954  1.00  0.00     0.046 C 
HETATM    2  C2  UNL     1      22.981   1.983  50.403  1.00  0.00    -0.056 C 
HETATM    3  C3  UNL     1      23.121   3.060  49.606  1.00  0.00     0.121 C 
HETATM    4  N1  UNL     1      24.127   4.084  49.762  1.00  0.00    -0.247 NA
HETATM    5  C4  UNL     1      25.416   4.061  49.938  1.00  0.00     0.103 C 
HETATM    6  C12 UNL     1      26.430   2.950  50.057  1.00  0.00     0.105 C 
HETATM    7  C13 UNL     1      26.167   2.217  51.328  1.00  0.00    -0.022 C 
HETATM    8  C14 UNL     1      25.028   1.670  51.783  1.00  0.00    -0.019 C 
HETATM    9  C15 UNL     1      23.605   1.380  51.596  1.00  0.00     0.066 C 
ENDROOT
BRANCH   5  10
HETATM   10  N2  UNL     1      25.969   5.359  50.037  1.00  0.00    -0.374 N 
HETATM   11  H5  UNL     1      26.195   5.710  51.004  1.00  0.00     0.161 HD
BRANCH  10  12
HETATM   12  C5  UNL     1      26.188   6.114  48.819  1.00  0.00     0.155 C 
BRANCH  12  13
HETATM   13  C6  UNL     1      27.643   6.220  48.541  1.00  0.00    -0.058 A 
HETATM   14  C7  UNL     1      28.642   5.364  48.265  1.00  0.00     0.006 A 
HETATM   15  C8  UNL     1      29.882   6.143  48.093  1.00  0.00     0.017 A 
HETATM   16  C9  UNL     1      29.585   7.405  48.268  1.00  0.00     0.013 A 
HETATM   17  C11 UNL     1      28.149   7.631  48.572  1.00  0.00     0.084 A 
BRANCH  16  18
HETATM   18  S1  UNL     1      30.841   8.644  48.135  1.00  0.00     0.042 S 
HETATM   19  C10 UNL     1      30.176  10.287  48.438  1.00  0.00     0.132 C 
HETATM   20  O1  UNL     1      32.021   8.346  49.039  1.00  0.00    -0.253 OA
ENDBRANCH  16  18
ENDBRANCH  12  13
ENDBRANCH  10  12
ENDBRANCH   5  10
BRANCH   9  21
HETATM   21  C16 UNL     1      22.874   1.944  52.814  1.00  0.00     0.235 C 
HETATM   22  F1  UNL     1      22.029   0.993  53.377  1.00  0.00    -0.254 F 
ENDBRANCH   9  21
TORSDOF 5
ENDMDL
MODEL 9
REMARK VINA RESULT:      -6.5      3.768      4.923
REMARK  5 active torsions:
REMARK  status: ('A' for Active; 'I' for Inactive)
REMARK    1  A    between atoms: C4_5  and  N2_6 
REMARK    2  A    between atoms: N2_6  and  C5_7 
REMARK    3  A    between atoms: C5_7  and  C6_8 
REMARK    4  A    between atoms: C9_11  and  S1_12 
REMARK    5  A    between atoms: C15_19  and  C16_20 
ROOT
HETATM    1  C1  UNL     1      27.749  -2.383  52.809  1.00  0.00     0.046 C 
HETATM    2  C2  UNL     1      27.111  -1.030  52.988  1.00  0.00    -0.056 C 
HETATM    3  C3  UNL     1      25.771  -1.108  52.889  1.00  0.00     0.121 C 
HETATM    4  N1  UNL     1      24.862   0.008  53.011  1.00  0.00    -0.247 NA
HETATM    5  C4  UNL     1      24.821   1.198  52.486  1.00  0.00     0.103 C 
HETATM    6  C12 UNL     1      25.708   1.936  51.514  1.00  0.00     0.105 C 
HETATM    7  C13 UNL     1      27.015   2.195  52.184  1.00  0.00    -0.022 C 
HETATM    8  C14 UNL     1      27.846   1.339  52.799  1.00  0.00    -0.019 C 
HETATM    9  C15 UNL     1      28.164  -0.025  53.227  1.00  0.00     0.066 C 
ENDROOT
BRANCH   5  10
HETATM   10  N2  UNL     1      23.704   1.944  52.928  1.00  0.00    -0.374 N 
HETATM   11  H5  UNL     1      23.896   2.898  53.332  1.00  0.00     0.161 HD
BRANCH  10  12
HETATM   12  C5  UNL     1      22.385   1.358  52.800  1.00  0.00     0.155 C 
BRANCH  12  13
HETATM   13  C6  UNL     1      21.965   1.359  51.375  1.00  0.00    -0.058 A 
HETATM   14  C7  UNL     1      21.503   0.448  50.501  1.00  0.00     0.006 A 
HETATM   15  C8  UNL     1      21.275   1.123  49.209  1.00  0.00     0.017 A 
HETATM   16  C9  UNL     1      21.601   2.382  49.357  1.00  0.00     0.013 A 
HETATM   17  C11 UNL     1      22.077   2.705  50.727  1.00  0.00     0.084 A 
BRANCH  16  18
HETATM   18  S1  UNL     1      21.454   3.506  47.999  1.00  0.00     0.042 S 
HETATM   19  C10 UNL     1      19.997   4.548  48.166  1.00  0.00     0.132 C 
HETATM   20  O1  UNL     1      22.712   4.333  47.817  1.00  0.00    -0.253 OA
ENDBRANCH  16  18
ENDBRANCH  12  13
ENDBRANCH  10  12
ENDBRANCH   5  10
BRANCH   9  21
HETATM   21  C16 UNL     1      28.396   0.028  54.737  1.00  0.00     0.235 C 
HETATM   22  F1  UNL     1      27.228   0.370  55.412  1.00  0.00    -0.254 F 
ENDBRANCH   9  21
TORSDOF 5
ENDMDL
