MODEL 1
REMARK VINA RESULT:      -7.6      0.000      0.000
REMARK  3 active torsions:
REMARK  status: ('A' for Active; 'I' for Inactive)
REMARK    1  A    between atoms: C2_2  and  S1_3 
REMARK    2  A    between atoms: S1_3  and  C3_5 
REMARK    3  A    between atoms: N3_12  and  C8_13 
ROOT
HETATM    1  C3  UNL     1      25.417  -0.055  53.750  1.00  0.00     0.126 A 
HETATM    2  C4  UNL     1      24.265   0.140  53.133  1.00  0.00     0.057 A 
HETATM    3  C5  UNL     1      22.971  -0.400  53.597  1.00  0.00     0.306 A 
HETATM    4  C6  UNL     1      23.204  -1.124  54.861  1.00  0.00     0.109 A 
HETATM    5  N1  UNL     1      22.081  -1.579  55.361  1.00  0.00    -0.178 NA
HETATM    6  N2  UNL     1      20.877  -1.323  54.655  1.00  0.00    -0.285 N 
HETATM    7  C7  UNL     1      20.760   0.106  54.403  1.00  0.00     0.416 C 
HETATM    8  N3  UNL     1      21.908   0.546  53.655  1.00  0.00     0.133 N 
HETATM    9  C13 UNL     1      24.509  -1.308  55.491  1.00  0.00     0.149 A 
HETATM   10  N4  UNL     1      25.556  -0.790  54.948  1.00  0.00    -0.249 NA
HETATM   11  H6  UNL     1      20.138  -1.991  54.329  1.00  0.00     0.184 HD
ENDROOT
BRANCH   8  12
HETATM   12  C8  UNL     1      21.594   1.167  52.416  1.00  0.00     0.273 A 
HETATM   13  C9  UNL     1      20.881   2.437  52.526  1.00  0.00     0.014 A 
HETATM   14  C10 UNL     1      19.741   2.427  51.819  1.00  0.00     0.017 A 
HETATM   15  C11 UNL     1      19.643   1.106  51.189  1.00  0.00     0.009 A 
HETATM   16 BR1  UNL     1      18.110   0.777  50.103  1.00  0.00    -0.051 Br
HETATM   17  C12 UNL     1      20.705   0.377  51.529  1.00  0.00     0.032 A 
ENDBRANCH   8  12
BRANCH   1  18
HETATM   18  S1  UNL     1      26.983   0.605  53.176  1.00  0.00     0.092 S 
HETATM   19  O1  UNL     1      26.823   0.955  51.688  1.00  0.00    -0.247 OA
BRANCH  18  20
HETATM   20  C2  UNL     1      28.224  -0.669  53.258  1.00  0.00     0.075 C 
HETATM   21  C1  UNL     1      29.509  -0.754  53.558  1.00  0.00     0.021 C 
ENDBRANCH  18  20
ENDBRANCH   1  18
TORSDOF 3
ENDMDL
MODEL 2
REMARK VINA RESULT:      -7.4      2.622      3.870
REMARK  3 active torsions:
REMARK  status: ('A' for Active; 'I' for Inactive)
REMARK    1  A    between atoms: C2_2  and  S1_3 
REMARK    2  A    between atoms: S1_3  and  C3_5 
REMARK    3  A    between atoms: N3_12  and  C8_13 
ROOT
HETATM    1  C3  UNL     1      26.950   1.345  53.365  1.00  0.00     0.126 A 
HETATM    2  C4  UNL     1      25.649   1.298  53.586  1.00  0.00     0.057 A 
HETATM    3  C5  UNL     1      24.632   1.901  52.700  1.00  0.00     0.306 A 
HETATM    4  C6  UNL     1      25.328   2.492  51.541  1.00  0.00     0.109 A 
HETATM    5  N1  UNL     1      24.475   2.993  50.681  1.00  0.00    -0.178 NA
HETATM    6  N2  UNL     1      23.090   2.898  50.973  1.00  0.00    -0.285 N 
HETATM    7  C7  UNL     1      22.750   1.510  51.251  1.00  0.00     0.416 C 
HETATM    8  N3  UNL     1      23.550   1.043  52.353  1.00  0.00     0.133 N 
HETATM    9  C13 UNL     1      26.777   2.514  51.357  1.00  0.00     0.149 A 
HETATM   10  N4  UNL     1      27.538   1.960  52.237  1.00  0.00    -0.249 NA
HETATM   11  H6  UNL     1      22.360   3.650  51.005  1.00  0.00     0.184 HD
ENDROOT
BRANCH   8  12
HETATM   12  C8  UNL     1      22.796   0.558  53.456  1.00  0.00     0.273 A 
HETATM   13  C9  UNL     1      22.970  -0.863  53.745  1.00  0.00     0.014 A 
HETATM   14  C10 UNL     1      21.795  -1.510  53.771  1.00  0.00     0.017 A 
HETATM   15  C11 UNL     1      20.755  -0.514  53.490  1.00  0.00     0.009 A 
HETATM   16 BR1  UNL     1      18.951  -1.133  53.456  1.00  0.00    -0.051 Br
HETATM   17  C12 UNL     1      21.324   0.676  53.307  1.00  0.00     0.032 A 
ENDBRANCH   8  12
BRANCH   1  18
HETATM   18  S1  UNL     1      28.176   0.611  54.450  1.00  0.00     0.092 S 
HETATM   19  O1  UNL     1      29.087   1.743  54.955  1.00  0.00    -0.247 OA
BRANCH  18  20
HETATM   20  C2  UNL     1      29.217  -0.484  53.508  1.00  0.00     0.075 C 
HETATM   21  C1  UNL     1      29.465  -1.782  53.458  1.00  0.00     0.021 C 
ENDBRANCH  18  20
ENDBRANCH   1  18
TORSDOF 3
ENDMDL
MODEL 3
REMARK VINA RESULT:      -7.3      2.546      2.973
REMARK  3 active torsions:
REMARK  status: ('A' for Active; 'I' for Inactive)
REMARK    1  A    between atoms: C2_2  and  S1_3 
REMARK    2  A    between atoms: S1_3  and  C3_5 
REMARK    3  A    between atoms: N3_12  and  C8_13 
ROOT
HETATM    1  C3  UNL     1      26.899   0.594  54.206  1.00  0.00     0.126 A 
HETATM    2  C4  UNL     1      26.208   1.199  53.256  1.00  0.00     0.057 A 
HETATM    3  C5  UNL     1      24.825   0.844  52.878  1.00  0.00     0.306 A 
HETATM    4  C6  UNL     1      24.370  -0.238  53.772  1.00  0.00     0.109 A 
HETATM    5  N1  UNL     1      23.123  -0.561  53.530  1.00  0.00    -0.178 NA
HETATM    6  N2  UNL     1      22.434   0.138  52.504  1.00  0.00    -0.285 N 
HETATM    7  C7  UNL     1      22.534   1.571  52.746  1.00  0.00     0.416 C 
HETATM    8  N3  UNL     1      23.924   1.943  52.790  1.00  0.00     0.133 N 
HETATM    9  C13 UNL     1      25.188  -0.870  54.804  1.00  0.00     0.149 A 
HETATM   10  N4  UNL     1      26.394  -0.461  54.999  1.00  0.00    -0.249 NA
HETATM   11  H6  UNL     1      21.912  -0.235  51.675  1.00  0.00     0.184 HD
ENDROOT
BRANCH   8  12
HETATM   12  C8  UNL     1      24.290   2.940  51.845  1.00  0.00     0.273 A 
HETATM   13  C9  UNL     1      23.669   4.245  52.054  1.00  0.00     0.014 A 
HETATM   14  C10 UNL     1      23.029   4.670  50.954  1.00  0.00     0.017 A 
HETATM   15  C11 UNL     1      23.201   3.631  49.934  1.00  0.00     0.009 A 
HETATM   16 BR1  UNL     1      22.395   3.945  48.234  1.00  0.00    -0.051 Br
HETATM   17  C12 UNL     1      23.925   2.633  50.439  1.00  0.00     0.032 A 
ENDBRANCH   8  12
BRANCH   1  18
HETATM   18  S1  UNL     1      28.580   1.031  54.654  1.00  0.00     0.092 S 
HETATM   19  O1  UNL     1      28.806   2.494  54.237  1.00  0.00    -0.247 OA
BRANCH  18  20
HETATM   20  C2  UNL     1      29.719   0.056  53.695  1.00  0.00     0.075 C 
HETATM   21  C1  UNL     1      29.931  -1.226  53.450  1.00  0.00     0.021 C 
ENDBRANCH  18  20
ENDBRANCH   1  18
TORSDOF 3
ENDMDL
MODEL 4
REMARK VINA RESULT:      -7.1      3.841      5.993
REMARK  3 active torsions:
REMARK  status: ('A' for Active; 'I' for Inactive)
REMARK    1  A    between atoms: C2_2  and  S1_3 
REMARK    2  A    between atoms: S1_3  and  C3_5 
REMARK    3  A    between atoms: N3_12  and  C8_13 
ROOT
HETATM    1  C3  UNL     1      20.941   0.561  52.548  1.00  0.00     0.126 A 
HETATM    2  C4  UNL     1      22.158   0.821  52.991  1.00  0.00     0.057 A 
HETATM    3  C5  UNL     1      22.816   0.089  54.093  1.00  0.00     0.306 A 
HETATM    4  C6  UNL     1      21.903  -0.979  54.543  1.00  0.00     0.109 A 
HETATM    5  N1  UNL     1      22.453  -1.708  55.483  1.00  0.00    -0.178 NA
HETATM    6  N2  UNL     1      23.769  -1.383  55.904  1.00  0.00    -0.285 N 
HETATM    7  C7  UNL     1      24.647  -1.331  54.743  1.00  0.00     0.416 C 
HETATM    8  N3  UNL     1      24.140  -0.356  53.814  1.00  0.00     0.133 N 
HETATM    9  C13 UNL     1      20.562  -1.211  54.012  1.00  0.00     0.149 A 
HETATM   10  N4  UNL     1      20.118  -0.468  53.058  1.00  0.00    -0.249 NA
HETATM   11  H6  UNL     1      24.136  -1.196  56.868  1.00  0.00     0.184 HD
ENDROOT
BRANCH   8  12
HETATM   12  C8  UNL     1      25.061   0.677  53.493  1.00  0.00     0.273 A 
HETATM   13  C9  UNL     1      25.589   0.632  52.131  1.00  0.00     0.014 A 
HETATM   14  C10 UNL     1      26.930   0.620  52.121  1.00  0.00     0.017 A 
HETATM   15  C11 UNL     1      27.367   0.658  53.520  1.00  0.00     0.009 A 
HETATM   16 BR1  UNL     1      29.247   0.652  53.840  1.00  0.00    -0.051 Br
HETATM   17  C12 UNL     1      26.297   0.690  54.314  1.00  0.00     0.032 A 
ENDBRANCH   8  12
BRANCH   1  18
HETATM   18  S1  UNL     1      20.150   1.457  51.210  1.00  0.00     0.092 S 
HETATM   19  O1  UNL     1      19.032   0.563  50.649  1.00  0.00    -0.247 OA
BRANCH  18  20
HETATM   20  C2  UNL     1      21.316   1.690  49.886  1.00  0.00     0.075 C 
HETATM   21  C1  UNL     1      21.553   1.160  48.698  1.00  0.00     0.021 C 
ENDBRANCH  18  20
ENDBRANCH   1  18
TORSDOF 3
ENDMDL
MODEL 5
REMARK VINA RESULT:      -6.9      4.582      7.070
REMARK  3 active torsions:
REMARK  status: ('A' for Active; 'I' for Inactive)
REMARK    1  A    between atoms: C2_2  and  S1_3 
REMARK    2  A    between atoms: S1_3  and  C3_5 
REMARK    3  A    between atoms: N3_12  and  C8_13 
ROOT
HETATM    1  C3  UNL     1      21.945   2.333  51.318  1.00  0.00     0.126 A 
HETATM    2  C4  UNL     1      23.040   1.617  51.501  1.00  0.00     0.057 A 
HETATM    3  C5  UNL     1      24.367   1.974  50.959  1.00  0.00     0.306 A 
HETATM    4  C6  UNL     1      24.242   3.261  50.250  1.00  0.00     0.109 A 
HETATM    5  N1  UNL     1      25.402   3.667  49.795  1.00  0.00    -0.178 NA
HETATM    6  N2  UNL     1      26.542   2.856  50.038  1.00  0.00    -0.285 N 
HETATM    7  C7  UNL     1      26.641   2.580  51.464  1.00  0.00     0.416 C 
HETATM    8  N3  UNL     1      25.434   1.930  51.902  1.00  0.00     0.133 N 
HETATM    9  C13 UNL     1      22.996   4.003  50.078  1.00  0.00     0.149 A 
HETATM   10  N4  UNL     1      21.907   3.547  50.595  1.00  0.00    -0.249 NA
HETATM   11  H6  UNL     1      27.248   2.475  49.363  1.00  0.00     0.184 HD
ENDROOT
BRANCH   8  12
HETATM   12  C8  UNL     1      25.643   0.662  52.509  1.00  0.00     0.273 A 
HETATM   13  C9  UNL     1      25.755   0.686  53.965  1.00  0.00     0.014 A 
HETATM   14  C10 UNL     1      26.889   0.105  54.383  1.00  0.00     0.017 A 
HETATM   15  C11 UNL     1      27.604  -0.345  53.184  1.00  0.00     0.009 A 
HETATM   16 BR1  UNL     1      29.277  -1.222  53.451  1.00  0.00    -0.051 Br
HETATM   17  C12 UNL     1      26.893  -0.027  52.103  1.00  0.00     0.032 A 
ENDBRANCH   8  12
BRANCH   1  18
HETATM   18  S1  UNL     1      20.337   1.890  51.978  1.00  0.00     0.092 S 
HETATM   19  O1  UNL     1      19.837   3.076  52.819  1.00  0.00    -0.247 OA
BRANCH  18  20
HETATM   20  C2  UNL     1      20.519   0.522  53.103  1.00  0.00     0.075 C 
HETATM   21  C1  UNL     1      20.895   0.342  54.357  1.00  0.00     0.021 C 
ENDBRANCH  18  20
ENDBRANCH   1  18
TORSDOF 3
ENDMDL
MODEL 6
REMARK VINA RESULT:      -6.6      4.098      5.759
REMARK  3 active torsions:
REMARK  status: ('A' for Active; 'I' for Inactive)
REMARK    1  A    between atoms: C2_2  and  S1_3 
REMARK    2  A    between atoms: S1_3  and  C3_5 
REMARK    3  A    between atoms: N3_12  and  C8_13 
ROOT
HETATM    1  C3  UNL     1      23.093   0.163  53.657  1.00  0.00     0.126 A 
HETATM    2  C4  UNL     1      23.326   1.258  52.957  1.00  0.00     0.057 A 
HETATM    3  C5  UNL     1      24.673   1.810  52.700  1.00  0.00     0.306 A 
HETATM    4  C6  UNL     1      25.663   0.902  53.310  1.00  0.00     0.109 A 
HETATM    5  N1  UNL     1      26.887   1.303  53.066  1.00  0.00    -0.178 NA
HETATM    6  N2  UNL     1      27.069   2.482  52.296  1.00  0.00    -0.285 N 
HETATM    7  C7  UNL     1      26.332   2.358  51.046  1.00  0.00     0.416 C 
HETATM    8  N3  UNL     1      24.941   2.136  51.340  1.00  0.00     0.133 N 
HETATM    9  C13 UNL     1      25.337  -0.296  54.079  1.00  0.00     0.149 A 
HETATM   10  N4  UNL     1      24.104  -0.636  54.234  1.00  0.00    -0.249 NA
HETATM   11  H6  UNL     1      27.623   3.344  52.514  1.00  0.00     0.184 HD
ENDROOT
BRANCH   8  12
HETATM   12  C8  UNL     1      24.064   3.100  50.773  1.00  0.00     0.273 A 
HETATM   13  C9  UNL     1      24.342   3.444  49.381  1.00  0.00     0.014 A 
HETATM   14  C10 UNL     1      24.500   4.767  49.221  1.00  0.00     0.017 A 
HETATM   15  C11 UNL     1      24.328   5.379  50.543  1.00  0.00     0.009 A 
HETATM   16 BR1  UNL     1      24.495   7.276  50.646  1.00  0.00    -0.051 Br
HETATM   17  C12 UNL     1      24.077   4.426  51.440  1.00  0.00     0.032 A 
ENDBRANCH   8  12
BRANCH   1  18
HETATM   18  S1  UNL     1      21.453  -0.497  53.965  1.00  0.00     0.092 S 
HETATM   19  O1  UNL     1      21.566  -2.030  53.991  1.00  0.00    -0.247 OA
BRANCH  18  20
HETATM   20  C2  UNL     1      20.390  -0.099  52.593  1.00  0.00     0.075 C 
HETATM   21  C1  UNL     1      19.093  -0.104  52.338  1.00  0.00     0.021 C 
ENDBRANCH  18  20
ENDBRANCH   1  18
TORSDOF 3
ENDMDL
MODEL 7
REMARK VINA RESULT:      -6.5      2.764      3.826
REMARK  3 active torsions:
REMARK  status: ('A' for Active; 'I' for Inactive)
REMARK    1  A    between atoms: C2_2  and  S1_3 
REMARK    2  A    between atoms: S1_3  and  C3_5 
REMARK    3  A    between atoms: N3_12  and  C8_13 
ROOT
HETATM    1  C3  UNL     1      25.931   0.750  52.514  1.00  0.00     0.126 A 
HETATM    2  C4  UNL     1      24.665   1.113  52.607  1.00  0.00     0.057 A 
HETATM    3  C5  UNL     1      24.110   2.350  52.019  1.00  0.00     0.306 A 
HETATM    4  C6  UNL     1      25.194   3.039  51.294  1.00  0.00     0.109 A 
HETATM    5  N1  UNL     1      24.753   4.118  50.695  1.00  0.00    -0.178 NA
HETATM    6  N2  UNL     1      23.378   4.446  50.823  1.00  0.00    -0.285 N 
HETATM    7  C7  UNL     1      22.571   3.299  50.430  1.00  0.00     0.416 C 
HETATM    8  N3  UNL     1      22.920   2.174  51.256  1.00  0.00     0.133 N 
HETATM    9  C13 UNL     1      26.581   2.584  51.234  1.00  0.00     0.149 A 
HETATM   10  N4  UNL     1      26.917   1.488  51.821  1.00  0.00    -0.249 NA
HETATM   11  H6  UNL     1      22.930   5.339  51.141  1.00  0.00     0.184 HD
ENDROOT
BRANCH   8  12
HETATM   12  C8  UNL     1      21.828   1.618  51.975  1.00  0.00     0.273 A 
HETATM   13  C9  UNL     1      21.303   0.367  51.431  1.00  0.00     0.014 A 
HETATM   14  C10 UNL     1      19.985   0.445  51.195  1.00  0.00     0.017 A 
HETATM   15  C11 UNL     1      19.562   1.794  51.584  1.00  0.00     0.009 A 
HETATM   16 BR1  UNL     1      17.715   2.219  51.364  1.00  0.00    -0.051 Br
HETATM   17  C12 UNL     1      20.616   2.474  52.033  1.00  0.00     0.032 A 
ENDBRANCH   8  12
BRANCH   1  18
HETATM   18  S1  UNL     1      26.595  -0.754  53.234  1.00  0.00     0.092 S 
HETATM   19  O1  UNL     1      25.798  -1.047  54.515  1.00  0.00    -0.247 OA
BRANCH  18  20
HETATM   20  C2  UNL     1      28.276  -0.469  53.747  1.00  0.00     0.075 C 
HETATM   21  C1  UNL     1      29.477  -0.918  53.425  1.00  0.00     0.021 C 
ENDBRANCH  18  20
ENDBRANCH   1  18
TORSDOF 3
ENDMDL
MODEL 8
REMARK VINA RESULT:      -6.4      3.938      5.766
REMARK  3 active torsions:
REMARK  status: ('A' for Active; 'I' for Inactive)
REMARK    1  A    between atoms: C2_2  and  S1_3 
REMARK    2  A    between atoms: S1_3  and  C3_5 
REMARK    3  A    between atoms: N3_12  and  C8_13 
ROOT
HETATM    1  C3  UNL     1      20.418  -0.469  53.435  1.00  0.00     0.126 A 
HETATM    2  C4  UNL     1      21.139   0.540  52.983  1.00  0.00     0.057 A 
HETATM    3  C5  UNL     1      22.592   0.690  53.206  1.00  0.00     0.306 A 
HETATM    4  C6  UNL     1      23.064  -0.490  53.955  1.00  0.00     0.109 A 
HETATM    5  N1  UNL     1      24.361  -0.450  54.135  1.00  0.00    -0.178 NA
HETATM    6  N2  UNL     1      25.080   0.657  53.612  1.00  0.00    -0.285 N 
HETATM    7  C7  UNL     1      24.774   0.805  52.196  1.00  0.00     0.416 C 
HETATM    8  N3  UNL     1      23.354   0.982  52.039  1.00  0.00     0.133 N 
HETATM    9  C13 UNL     1      22.210  -1.574  54.432  1.00  0.00     0.149 A 
HETATM   10  N4  UNL     1      20.947  -1.551  54.174  1.00  0.00    -0.249 NA
HETATM   11  H6  UNL     1      25.742   1.313  54.094  1.00  0.00     0.184 HD
ENDROOT
BRANCH   8  12
HETATM   12  C8  UNL     1      22.987   2.180  51.371  1.00  0.00     0.273 A 
HETATM   13  C9  UNL     1      22.714   2.033  49.943  1.00  0.00     0.014 A 
HETATM   14  C10 UNL     1      23.456   2.874  49.208  1.00  0.00     0.017 A 
HETATM   15  C11 UNL     1      24.282   3.642  50.145  1.00  0.00     0.009 A 
HETATM   16 BR1  UNL     1      25.462   4.940  49.396  1.00  0.00    -0.051 Br
HETATM   17  C12 UNL     1      24.017   3.249  51.390  1.00  0.00     0.032 A 
ENDBRANCH   8  12
BRANCH   1  18
HETATM   18  S1  UNL     1      18.653  -0.640  53.160  1.00  0.00     0.092 S 
HETATM   19  O1  UNL     1      18.293  -2.122  53.354  1.00  0.00    -0.247 OA
BRANCH  18  20
HETATM   20  C2  UNL     1      18.281  -0.254  51.462  1.00  0.00     0.075 C 
HETATM   21  C1  UNL     1      18.702   0.602  50.547  1.00  0.00     0.021 C 
ENDBRANCH  18  20
ENDBRANCH   1  18
TORSDOF 3
ENDMDL
MODEL 9
REMARK VINA RESULT:      -6.4      9.795     11.174
REMARK  3 active torsions:
REMARK  status: ('A' for Active; 'I' for Inactive)
REMARK    1  A    between atoms: C2_2  and  S1_3 
REMARK    2  A    between atoms: S1_3  and  C3_5 
REMARK    3  A    between atoms: N3_12  and  C8_13 
ROOT
HETATM    1  C3  UNL     1      32.079   4.941  47.642  1.00  0.00     0.126 A 
HETATM    2  C4  UNL     1      30.841   5.380  47.778  1.00  0.00     0.057 A 
HETATM    3  C5  UNL     1      30.470   6.607  48.513  1.00  0.00     0.306 A 
HETATM    4  C6  UNL     1      31.710   7.243  48.997  1.00  0.00     0.109 A 
HETATM    5  N1  UNL     1      31.455   8.374  49.608  1.00  0.00    -0.178 NA
HETATM    6  N2  UNL     1      30.103   8.796  49.709  1.00  0.00    -0.285 N 
HETATM    7  C7  UNL     1      29.502   8.806  48.383  1.00  0.00     0.416 C 
HETATM    8  N3  UNL     1      29.598   7.488  47.813  1.00  0.00     0.133 N 
HETATM    9  C13 UNL     1      33.054   6.702  48.816  1.00  0.00     0.149 A 
HETATM   10  N4  UNL     1      33.214   5.601  48.165  1.00  0.00    -0.249 NA
HETATM   11  H6  UNL     1      29.550   9.072  50.555  1.00  0.00     0.184 HD
ENDROOT
BRANCH   8  12
HETATM   12  C8  UNL     1      28.348   6.922  47.443  1.00  0.00     0.273 A 
HETATM   13  C9  UNL     1      27.280   7.888  47.199  1.00  0.00     0.014 A 
HETATM   14  C10 UNL     1      26.196   7.625  47.944  1.00  0.00     0.017 A 
HETATM   15  C11 UNL     1      26.507   6.434  48.742  1.00  0.00     0.009 A 
HETATM   16 BR1  UNL     1      25.145   5.802  49.919  1.00  0.00    -0.051 Br
HETATM   17  C12 UNL     1      27.742   6.025  48.459  1.00  0.00     0.032 A 
ENDBRANCH   8  12
BRANCH   1  18
HETATM   18  S1  UNL     1      32.519   3.448  46.749  1.00  0.00     0.092 S 
HETATM   19  O1  UNL     1      33.060   2.436  47.772  1.00  0.00    -0.247 OA
BRANCH  18  20
HETATM   20  C2  UNL     1      33.864   3.801  45.637  1.00  0.00     0.075 C 
HETATM   21  C1  UNL     1      35.175   3.636  45.618  1.00  0.00     0.021 C 
ENDBRANCH  18  20
ENDBRANCH   1  18
TORSDOF 3
ENDMDL
