MODEL 1
REMARK VINA RESULT:     -10.0      0.000      0.000
REMARK  4 active torsions:
REMARK  status: ('A' for Active; 'I' for Inactive)
REMARK    1  A    between atoms: C2_2  and  C3_3 
REMARK    2  A    between atoms: C3_3  and  C4_5 
REMARK    3  A    between atoms: C7_8  and  N1_9 
REMARK    4  A    between atoms: N1_9  and  C8_10 
ROOT
HETATM    1  C4  UNL     1      23.671   3.095  51.608  1.00  0.00     0.016 C 
HETATM    2  C5  UNL     1      23.862   1.787  51.665  1.00  0.00     0.030 C 
HETATM    3  C6  UNL     1      23.545   0.754  52.645  1.00  0.00     0.038 A 
HETATM    4  C7  UNL     1      24.725   0.497  53.369  1.00  0.00     0.141 A 
HETATM    5  N2  UNL     1      24.930  -0.385  54.400  1.00  0.00    -0.224 NA
HETATM    6  C14 UNL     1      23.817  -1.085  54.734  1.00  0.00     0.235 A 
HETATM    7  N3  UNL     1      22.674  -0.869  54.067  1.00  0.00    -0.243 NA
HETATM    8  C15 UNL     1      22.498  -0.002  53.064  1.00  0.00     0.085 A 
HETATM    9  C16 UNL     1      21.088  -0.118  52.643  1.00  0.00     0.299 C 
HETATM   10  C17 UNL     1      20.146   0.069  53.812  1.00  0.00     0.210 C 
HETATM   11  O2  UNL     1      18.879  -0.357  53.470  1.00  0.00    -0.387 OA
HETATM   12  C18 UNL     1      18.708  -0.598  52.133  1.00  0.00     0.198 C 
HETATM   13  C19 UNL     1      19.321   0.422  51.233  1.00  0.00     0.299 C 
HETATM   14  N4  UNL     1      20.688   0.741  51.582  1.00  0.00     0.103 N 
HETATM   15  C20 UNL     1      20.734   2.149  51.950  1.00  0.00     0.275 C 
HETATM   16  C21 UNL     1      20.792   3.061  50.762  1.00  0.00     0.056 C 
HETATM   17  C22 UNL     1      21.040   4.462  51.191  1.00  0.00     0.169 C 
HETATM   18  O3  UNL     1      22.243   4.927  51.431  1.00  0.00    -0.386 OA
HETATM   19  C23 UNL     1      23.148   4.350  52.212  1.00  0.00     0.210 C 
ENDROOT
BRANCH   4  20
HETATM   20  N1  UNL     1      25.954   1.195  53.047  1.00  0.00    -0.340 N 
HETATM   21  H5  UNL     1      25.767   2.105  52.621  1.00  0.00     0.167 HD
BRANCH  20  22
HETATM   22  C8  UNL     1      27.240   0.629  53.313  1.00  0.00     0.035 A 
HETATM   23  C9  UNL     1      28.230   1.424  53.795  1.00  0.00     0.032 A 
HETATM   24  C10 UNL     1      29.459   0.847  54.042  1.00  0.00     0.046 A 
HETATM   25  C11 UNL     1      29.637  -0.505  53.791  1.00  0.00     0.138 A 
HETATM   26  F1  UNL     1      30.840  -1.109  54.021  1.00  0.00    -0.204 F 
HETATM   27  C12 UNL     1      28.599  -1.286  53.297  1.00  0.00     0.074 A 
HETATM   28 CL1  UNL     1      28.793  -3.006  52.966  1.00  0.00    -0.081 Cl
HETATM   29  C13 UNL     1      27.346  -0.717  53.042  1.00  0.00     0.056 A 
ENDBRANCH  20  22
ENDBRANCH   4  20
BRANCH   1  30
HETATM   30  C3  UNL     1      24.240   3.557  50.320  1.00  0.00     0.179 C 
HETATM   31  O1  UNL     1      24.062   3.373  49.107  1.00  0.00    -0.288 OA
BRANCH  30  32
HETATM   32  C2  UNL     1      25.314   4.481  49.984  1.00  0.00     0.045 C 
HETATM   33  C1  UNL     1      26.286   3.639  49.692  1.00  0.00     0.015 C 
ENDBRANCH  30  32
ENDBRANCH   1  30
TORSDOF 4
ENDMDL
MODEL 2
REMARK VINA RESULT:     -10.0      3.991      6.185
REMARK  4 active torsions:
REMARK  status: ('A' for Active; 'I' for Inactive)
REMARK    1  A    between atoms: C2_2  and  C3_3 
REMARK    2  A    between atoms: C3_3  and  C4_5 
REMARK    3  A    between atoms: C7_8  and  N1_9 
REMARK    4  A    between atoms: N1_9  and  C8_10 
ROOT
HETATM    1  C4  UNL     1      26.177   1.354  52.165  1.00  0.00     0.016 C 
HETATM    2  C5  UNL     1      25.341   2.337  51.875  1.00  0.00     0.030 C 
HETATM    3  C6  UNL     1      24.208   2.475  50.967  1.00  0.00     0.038 A 
HETATM    4  C7  UNL     1      24.677   3.148  49.822  1.00  0.00     0.141 A 
HETATM    5  N2  UNL     1      23.990   3.502  48.688  1.00  0.00    -0.224 NA
HETATM    6  C14 UNL     1      22.685   3.134  48.716  1.00  0.00     0.235 A 
HETATM    7  N3  UNL     1      22.200   2.492  49.789  1.00  0.00    -0.243 NA
HETATM    8  C15 UNL     1      22.891   2.158  50.885  1.00  0.00     0.085 A 
HETATM    9  C16 UNL     1      21.945   1.478  51.792  1.00  0.00     0.299 C 
HETATM   10  C17 UNL     1      21.253   0.322  51.103  1.00  0.00     0.210 C 
HETATM   11  O2  UNL     1      20.163  -0.085  51.844  1.00  0.00    -0.387 OA
HETATM   12  C18 UNL     1      20.107   0.450  53.104  1.00  0.00     0.198 C 
HETATM   13  C19 UNL     1      21.413   0.484  53.825  1.00  0.00     0.299 C 
HETATM   14  N4  UNL     1      22.490   1.025  53.025  1.00  0.00     0.103 N 
HETATM   15  C20 UNL     1      23.482  -0.026  52.850  1.00  0.00     0.275 C 
HETATM   16  C21 UNL     1      24.391  -0.175  54.032  1.00  0.00     0.056 C 
HETATM   17  C22 UNL     1      25.501  -1.113  53.722  1.00  0.00     0.169 C 
HETATM   18  O3  UNL     1      26.596  -0.737  53.104  1.00  0.00    -0.386 OA
HETATM   19  C23 UNL     1      26.639  -0.046  51.970  1.00  0.00     0.210 C 
ENDROOT
BRANCH   4  20
HETATM   20  N1  UNL     1      26.055   3.587  49.738  1.00  0.00    -0.340 N 
HETATM   21  H5  UNL     1      26.704   2.827  49.954  1.00  0.00     0.167 HD
BRANCH  20  22
HETATM   22  C8  UNL     1      26.404   4.929  49.392  1.00  0.00     0.035 A 
HETATM   23  C9  UNL     1      27.470   5.153  48.582  1.00  0.00     0.032 A 
HETATM   24  C10 UNL     1      27.780   6.461  48.268  1.00  0.00     0.046 A 
HETATM   25  C11 UNL     1      27.003   7.486  48.785  1.00  0.00     0.138 A 
HETATM   26  F1  UNL     1      27.281   8.791  48.496  1.00  0.00    -0.204 F 
HETATM   27  C12 UNL     1      25.919   7.217  49.612  1.00  0.00     0.074 A 
HETATM   28 CL1  UNL     1      24.912   8.497  50.286  1.00  0.00    -0.081 Cl
HETATM   29  C13 UNL     1      25.590   5.897  49.940  1.00  0.00     0.056 A 
ENDBRANCH  20  22
ENDBRANCH   4  20
BRANCH   1  30
HETATM   30  C3  UNL     1      27.116   1.875  53.188  1.00  0.00     0.179 C 
HETATM   31  O1  UNL     1      27.133   2.088  54.409  1.00  0.00    -0.288 OA
BRANCH  30  32
HETATM   32  C2  UNL     1      28.483   2.370  53.120  1.00  0.00     0.045 C 
HETATM   33  C1  UNL     1      29.033   1.725  54.129  1.00  0.00     0.015 C 
ENDBRANCH  30  32
ENDBRANCH   1  30
TORSDOF 4
ENDMDL
MODEL 3
REMARK VINA RESULT:      -9.7      1.881      4.770
REMARK  4 active torsions:
REMARK  status: ('A' for Active; 'I' for Inactive)
REMARK    1  A    between atoms: C2_2  and  C3_3 
REMARK    2  A    between atoms: C3_3  and  C4_5 
REMARK    3  A    between atoms: C7_8  and  N1_9 
REMARK    4  A    between atoms: N1_9  and  C8_10 
ROOT
HETATM    1  C4  UNL     1      22.260   0.746  52.491  1.00  0.00     0.016 C 
HETATM    2  C5  UNL     1      23.253   1.596  52.697  1.00  0.00     0.030 C 
HETATM    3  C6  UNL     1      24.132   2.363  51.822  1.00  0.00     0.038 A 
HETATM    4  C7  UNL     1      25.353   1.664  51.748  1.00  0.00     0.141 A 
HETATM    5  N2  UNL     1      26.488   1.981  51.044  1.00  0.00    -0.224 NA
HETATM    6  C14 UNL     1      26.374   3.133  50.337  1.00  0.00     0.235 A 
HETATM    7  N3  UNL     1      25.228   3.828  50.382  1.00  0.00    -0.243 NA
HETATM    8  C15 UNL     1      24.134   3.499  51.078  1.00  0.00     0.085 A 
HETATM    9  C16 UNL     1      23.137   4.558  50.828  1.00  0.00     0.299 C 
HETATM   10  C17 UNL     1      22.907   4.762  49.346  1.00  0.00     0.210 C 
HETATM   11  O2  UNL     1      22.235   5.948  49.131  1.00  0.00    -0.387 OA
HETATM   12  C18 UNL     1      21.722   6.517  50.266  1.00  0.00     0.198 C 
HETATM   13  C19 UNL     1      21.073   5.557  51.206  1.00  0.00     0.299 C 
HETATM   14  N4  UNL     1      21.881   4.387  51.473  1.00  0.00     0.103 N 
HETATM   15  C20 UNL     1      21.151   3.226  50.987  1.00  0.00     0.275 C 
HETATM   16  C21 UNL     1      20.098   2.755  51.944  1.00  0.00     0.056 C 
HETATM   17  C22 UNL     1      19.527   1.458  51.496  1.00  0.00     0.169 C 
HETATM   18  O3  UNL     1      20.090   0.304  51.767  1.00  0.00    -0.386 OA
HETATM   19  C23 UNL     1      21.367   0.006  51.560  1.00  0.00     0.210 C 
ENDROOT
BRANCH   4  20
HETATM   20  N1  UNL     1      25.546   0.438  52.497  1.00  0.00    -0.340 N 
HETATM   21  H5  UNL     1      24.660  -0.046  52.657  1.00  0.00     0.167 HD
BRANCH  20  22
HETATM   22  C8  UNL     1      26.839   0.011  52.932  1.00  0.00     0.035 A 
HETATM   23  C9  UNL     1      27.254  -1.251  52.648  1.00  0.00     0.032 A 
HETATM   24  C10 UNL     1      28.507  -1.632  53.083  1.00  0.00     0.046 A 
HETATM   25  C11 UNL     1      29.286  -0.726  53.785  1.00  0.00     0.138 A 
HETATM   26  F1  UNL     1      30.530  -1.069  54.231  1.00  0.00    -0.204 F 
HETATM   27  C12 UNL     1      28.827   0.557  54.057  1.00  0.00     0.074 A 
HETATM   28 CL1  UNL     1      29.793   1.731  54.948  1.00  0.00    -0.081 Cl
HETATM   29  C13 UNL     1      27.559   0.960  53.624  1.00  0.00     0.056 A 
ENDBRANCH  20  22
ENDBRANCH   4  20
BRANCH   1  30
HETATM   30  C3  UNL     1      21.781   0.314  53.826  1.00  0.00     0.179 C 
HETATM   31  O1  UNL     1      20.861   0.579  54.613  1.00  0.00    -0.288 OA
BRANCH  30  32
HETATM   32  C2  UNL     1      22.265  -0.671  54.783  1.00  0.00     0.045 C 
HETATM   33  C1  UNL     1      21.411  -1.656  54.580  1.00  0.00     0.015 C 
ENDBRANCH  30  32
ENDBRANCH   1  30
TORSDOF 4
ENDMDL
MODEL 4
REMARK VINA RESULT:      -9.5      3.756      6.866
REMARK  4 active torsions:
REMARK  status: ('A' for Active; 'I' for Inactive)
REMARK    1  A    between atoms: C2_2  and  C3_3 
REMARK    2  A    between atoms: C3_3  and  C4_5 
REMARK    3  A    between atoms: C7_8  and  N1_9 
REMARK    4  A    between atoms: N1_9  and  C8_10 
ROOT
HETATM    1  C4  UNL     1      23.548   2.906  51.277  1.00  0.00     0.016 C 
HETATM    2  C5  UNL     1      23.413   2.491  52.526  1.00  0.00     0.030 C 
HETATM    3  C6  UNL     1      23.487   1.189  53.179  1.00  0.00     0.038 A 
HETATM    4  C7  UNL     1      22.163   0.749  53.373  1.00  0.00     0.141 A 
HETATM    5  N2  UNL     1      21.716  -0.418  53.939  1.00  0.00    -0.224 NA
HETATM    6  C14 UNL     1      22.720  -1.230  54.354  1.00  0.00     0.235 A 
HETATM    7  N3  UNL     1      23.994  -0.846  54.188  1.00  0.00    -0.243 NA
HETATM    8  C15 UNL     1      24.406   0.299  53.633  1.00  0.00     0.085 A 
HETATM    9  C16 UNL     1      25.881   0.284  53.674  1.00  0.00     0.299 C 
HETATM   10  C17 UNL     1      26.439  -0.967  53.031  1.00  0.00     0.210 C 
HETATM   11  O2  UNL     1      27.770  -1.115  53.362  1.00  0.00    -0.387 OA
HETATM   12  C18 UNL     1      28.329  -0.013  53.954  1.00  0.00     0.198 C 
HETATM   13  C19 UNL     1      27.949   1.289  53.331  1.00  0.00     0.299 C 
HETATM   14  N4  UNL     1      26.525   1.421  53.112  1.00  0.00     0.103 N 
HETATM   15  C20 UNL     1      26.307   1.541  51.678  1.00  0.00     0.275 C 
HETATM   16  C21 UNL     1      26.547   2.929  51.165  1.00  0.00     0.056 C 
HETATM   17  C22 UNL     1      26.117   3.042  49.747  1.00  0.00     0.169 C 
HETATM   18  O3  UNL     1      24.875   3.279  49.399  1.00  0.00    -0.386 OA
HETATM   19  C23 UNL     1      23.814   2.616  49.843  1.00  0.00     0.210 C 
ENDROOT
BRANCH   4  20
HETATM   20  N1  UNL     1      21.045   1.580  52.971  1.00  0.00    -0.340 N 
HETATM   21  H5  UNL     1      21.069   2.490  53.436  1.00  0.00     0.167 HD
BRANCH  20  22
HETATM   22  C8  UNL     1      20.062   1.129  52.037  1.00  0.00     0.035 A 
HETATM   23  C9  UNL     1      20.125   1.550  50.748  1.00  0.00     0.032 A 
HETATM   24  C10 UNL     1      19.160   1.096  49.872  1.00  0.00     0.046 A 
HETATM   25  C11 UNL     1      18.174   0.238  50.333  1.00  0.00     0.138 A 
HETATM   26  F1  UNL     1      17.203  -0.230  49.495  1.00  0.00    -0.204 F 
HETATM   27  C12 UNL     1      18.142  -0.172  51.660  1.00  0.00     0.074 A 
HETATM   28 CL1  UNL     1      16.901  -1.260  52.278  1.00  0.00    -0.081 Cl
HETATM   29  C13 UNL     1      19.113   0.279  52.563  1.00  0.00     0.056 A 
ENDBRANCH  20  22
ENDBRANCH   4  20
BRANCH   1  30
HETATM   30  C3  UNL     1      23.349   4.376  51.288  1.00  0.00     0.179 C 
HETATM   31  O1  UNL     1      23.830   5.373  51.846  1.00  0.00    -0.288 OA
BRANCH  30  32
HETATM   32  C2  UNL     1      22.432   5.258  50.582  1.00  0.00     0.045 C 
HETATM   33  C1  UNL     1      21.332   5.093  51.290  1.00  0.00     0.015 C 
ENDBRANCH  30  32
ENDBRANCH   1  30
TORSDOF 4
ENDMDL
MODEL 5
REMARK VINA RESULT:      -9.3      1.990      2.763
REMARK  4 active torsions:
REMARK  status: ('A' for Active; 'I' for Inactive)
REMARK    1  A    between atoms: C2_2  and  C3_3 
REMARK    2  A    between atoms: C3_3  and  C4_5 
REMARK    3  A    between atoms: C7_8  and  N1_9 
REMARK    4  A    between atoms: N1_9  and  C8_10 
ROOT
HETATM    1  C4  UNL     1      24.975   4.749  50.333  1.00  0.00     0.016 C 
HETATM    2  C5  UNL     1      24.839   3.436  50.415  1.00  0.00     0.030 C 
HETATM    3  C6  UNL     1      23.955   2.550  51.163  1.00  0.00     0.038 A 
HETATM    4  C7  UNL     1      24.682   2.086  52.277  1.00  0.00     0.141 A 
HETATM    5  N2  UNL     1      24.279   1.238  53.278  1.00  0.00    -0.224 NA
HETATM    6  C14 UNL     1      22.999   0.811  53.135  1.00  0.00     0.235 A 
HETATM    7  N3  UNL     1      22.274   1.230  52.087  1.00  0.00    -0.243 NA
HETATM    8  C15 UNL     1      22.690   2.058  51.122  1.00  0.00     0.085 A 
HETATM    9  C16 UNL     1      21.559   2.224  50.188  1.00  0.00     0.299 C 
HETATM   10  C17 UNL     1      20.307   2.671  50.910  1.00  0.00     0.210 C 
HETATM   11  O2  UNL     1      19.207   2.508  50.094  1.00  0.00    -0.387 OA
HETATM   12  C18 UNL     1      19.512   2.237  48.786  1.00  0.00     0.198 C 
HETATM   13  C19 UNL     1      20.629   3.051  48.225  1.00  0.00     0.299 C 
HETATM   14  N4  UNL     1      21.793   3.089  49.084  1.00  0.00     0.103 N 
HETATM   15  C20 UNL     1      22.000   4.473  49.487  1.00  0.00     0.275 C 
HETATM   16  C21 UNL     1      22.705   5.285  48.443  1.00  0.00     0.056 C 
HETATM   17  C22 UNL     1      23.070   6.622  48.981  1.00  0.00     0.169 C 
HETATM   18  O3  UNL     1      24.160   6.832  49.680  1.00  0.00    -0.386 OA
HETATM   19  C23 UNL     1      24.548   6.118  50.730  1.00  0.00     0.210 C 
ENDROOT
BRANCH   4  20
HETATM   20  N1  UNL     1      26.061   2.486  52.475  1.00  0.00    -0.340 N 
HETATM   21  H5  UNL     1      26.196   3.479  52.271  1.00  0.00     0.167 HD
BRANCH  20  22
HETATM   22  C8  UNL     1      27.064   1.563  52.905  1.00  0.00     0.035 A 
HETATM   23  C9  UNL     1      28.153   2.025  53.572  1.00  0.00     0.032 A 
HETATM   24  C10 UNL     1      29.103   1.108  53.972  1.00  0.00     0.046 A 
HETATM   25  C11 UNL     1      28.915  -0.235  53.682  1.00  0.00     0.138 A 
HETATM   26  F1  UNL     1      29.835  -1.170  54.061  1.00  0.00    -0.204 F 
HETATM   27  C12 UNL     1      27.787  -0.670  52.997  1.00  0.00     0.074 A 
HETATM   28 CL1  UNL     1      27.519  -2.369  52.612  1.00  0.00    -0.081 Cl
HETATM   29  C13 UNL     1      26.813   0.247  52.584  1.00  0.00     0.056 A 
ENDBRANCH  20  22
ENDBRANCH   4  20
BRANCH   1  30
HETATM   30  C3  UNL     1      26.079   5.009  49.378  1.00  0.00     0.179 C 
HETATM   31  O1  UNL     1      26.469   5.921  48.636  1.00  0.00    -0.288 OA
BRANCH  30  32
HETATM   32  C2  UNL     1      27.209   4.209  48.927  1.00  0.00     0.045 C 
HETATM   33  C1  UNL     1      28.003   5.146  48.448  1.00  0.00     0.015 C 
ENDBRANCH  30  32
ENDBRANCH   1  30
TORSDOF 4
ENDMDL
MODEL 6
REMARK VINA RESULT:      -9.1      3.906      6.773
REMARK  4 active torsions:
REMARK  status: ('A' for Active; 'I' for Inactive)
REMARK    1  A    between atoms: C2_2  and  C3_3 
REMARK    2  A    between atoms: C3_3  and  C4_5 
REMARK    3  A    between atoms: C7_8  and  N1_9 
REMARK    4  A    between atoms: N1_9  and  C8_10 
ROOT
HETATM    1  C4  UNL     1      23.677   3.183  51.223  1.00  0.00     0.016 C 
HETATM    2  C5  UNL     1      23.458   2.703  52.437  1.00  0.00     0.030 C 
HETATM    3  C6  UNL     1      23.395   1.361  53.004  1.00  0.00     0.038 A 
HETATM    4  C7  UNL     1      22.031   1.027  53.123  1.00  0.00     0.141 A 
HETATM    5  N2  UNL     1      21.464  -0.129  53.595  1.00  0.00    -0.224 NA
HETATM    6  C14 UNL     1      22.378  -1.051  53.990  1.00  0.00     0.235 A 
HETATM    7  N3  UNL     1      23.686  -0.770  53.893  1.00  0.00    -0.243 NA
HETATM    8  C15 UNL     1      24.216   0.367  53.430  1.00  0.00     0.085 A 
HETATM    9  C16 UNL     1      25.682   0.221  53.520  1.00  0.00     0.299 C 
HETATM   10  C17 UNL     1      26.156  -1.030  52.816  1.00  0.00     0.210 C 
HETATM   11  O2  UNL     1      27.456  -1.315  53.182  1.00  0.00    -0.387 OA
HETATM   12  C18 UNL     1      28.082  -0.305  53.864  1.00  0.00     0.198 C 
HETATM   13  C19 UNL     1      27.840   1.061  53.315  1.00  0.00     0.299 C 
HETATM   14  N4  UNL     1      26.442   1.331  53.057  1.00  0.00     0.103 N 
HETATM   15  C20 UNL     1      26.292   1.560  51.628  1.00  0.00     0.275 C 
HETATM   16  C21 UNL     1      26.669   2.950  51.216  1.00  0.00     0.056 C 
HETATM   17  C22 UNL     1      26.308   3.190  49.794  1.00  0.00     0.169 C 
HETATM   18  O3  UNL     1      25.105   3.556  49.420  1.00  0.00    -0.386 OA
HETATM   19  C23 UNL     1      23.974   2.961  49.783  1.00  0.00     0.210 C 
ENDROOT
BRANCH   4  20
HETATM   20  N1  UNL     1      21.005   1.976  52.739  1.00  0.00    -0.340 N 
HETATM   21  H5  UNL     1      20.653   2.495  53.547  1.00  0.00     0.167 HD
BRANCH  20  22
HETATM   22  C8  UNL     1      20.577   2.124  51.383  1.00  0.00     0.035 A 
HETATM   23  C9  UNL     1      20.770   1.103  50.509  1.00  0.00     0.032 A 
HETATM   24  C10 UNL     1      20.346   1.278  49.207  1.00  0.00     0.046 A 
HETATM   25  C11 UNL     1      19.747   2.474  48.843  1.00  0.00     0.138 A 
HETATM   26  F1  UNL     1      19.317   2.682  47.565  1.00  0.00    -0.204 F 
HETATM   27  C12 UNL     1      19.567   3.497  49.767  1.00  0.00     0.074 A 
HETATM   28 CL1  UNL     1      18.811   5.029  49.336  1.00  0.00    -0.081 Cl
HETATM   29  C13 UNL     1      19.991   3.336  51.091  1.00  0.00     0.056 A 
ENDBRANCH  20  22
ENDBRANCH   4  20
BRANCH   1  30
HETATM   30  C3  UNL     1      23.604   4.660  51.325  1.00  0.00     0.179 C 
HETATM   31  O1  UNL     1      24.161   5.577  51.946  1.00  0.00    -0.288 OA
BRANCH  30  32
HETATM   32  C2  UNL     1      22.772   5.660  50.669  1.00  0.00     0.045 C 
HETATM   33  C1  UNL     1      23.531   6.731  50.786  1.00  0.00     0.015 C 
ENDBRANCH  30  32
ENDBRANCH   1  30
TORSDOF 4
ENDMDL
MODEL 7
REMARK VINA RESULT:      -8.6      4.026      5.837
REMARK  4 active torsions:
REMARK  status: ('A' for Active; 'I' for Inactive)
REMARK    1  A    between atoms: C2_2  and  C3_3 
REMARK    2  A    between atoms: C3_3  and  C4_5 
REMARK    3  A    between atoms: C7_8  and  N1_9 
REMARK    4  A    between atoms: N1_9  and  C8_10 
ROOT
HETATM    1  C4  UNL     1      22.673   4.621  49.147  1.00  0.00     0.016 C 
HETATM    2  C5  UNL     1      23.571   3.651  49.088  1.00  0.00     0.030 C 
HETATM    3  C6  UNL     1      24.465   3.032  50.060  1.00  0.00     0.038 A 
HETATM    4  C7  UNL     1      25.739   3.602  49.870  1.00  0.00     0.141 A 
HETATM    5  N2  UNL     1      26.906   3.352  50.546  1.00  0.00    -0.224 NA
HETATM    6  C14 UNL     1      26.769   2.421  51.523  1.00  0.00     0.235 A 
HETATM    7  N3  UNL     1      25.572   1.854  51.735  1.00  0.00    -0.243 NA
HETATM    8  C15 UNL     1      24.447   2.115  51.061  1.00  0.00     0.085 A 
HETATM    9  C16 UNL     1      23.396   1.253  51.637  1.00  0.00     0.299 C 
HETATM   10  C17 UNL     1      23.293   1.435  53.136  1.00  0.00     0.210 C 
HETATM   11  O2  UNL     1      22.552   0.410  53.686  1.00  0.00    -0.387 OA
HETATM   12  C18 UNL     1      21.889  -0.361  52.769  1.00  0.00     0.198 C 
HETATM   13  C19 UNL     1      21.233   0.405  51.670  1.00  0.00     0.299 C 
HETATM   14  N4  UNL     1      22.102   1.389  51.063  1.00  0.00     0.103 N 
HETATM   15  C20 UNL     1      21.517   2.701  51.296  1.00  0.00     0.275 C 
HETATM   16  C21 UNL     1      20.419   3.030  50.331  1.00  0.00     0.056 C 
HETATM   17  C22 UNL     1      19.999   4.448  50.483  1.00  0.00     0.169 C 
HETATM   18  O3  UNL     1      20.624   5.440  49.894  1.00  0.00    -0.386 OA
HETATM   19  C23 UNL     1      21.934   5.649  49.927  1.00  0.00     0.210 C 
ENDROOT
BRANCH   4  20
HETATM   20  N1  UNL     1      25.957   4.586  48.828  1.00  0.00    -0.340 N 
HETATM   21  H5  UNL     1      25.778   4.195  47.900  1.00  0.00     0.167 HD
BRANCH  20  22
HETATM   22  C8  UNL     1      26.372   5.922  49.120  1.00  0.00     0.035 A 
HETATM   23  C9  UNL     1      25.659   6.661  50.009  1.00  0.00     0.032 A 
HETATM   24  C10 UNL     1      26.086   7.948  50.269  1.00  0.00     0.046 A 
HETATM   25  C11 UNL     1      27.211   8.433  49.622  1.00  0.00     0.138 A 
HETATM   26  F1  UNL     1      27.661   9.701  49.854  1.00  0.00    -0.204 F 
HETATM   27  C12 UNL     1      27.915   7.647  48.718  1.00  0.00     0.074 A 
HETATM   28 CL1  UNL     1      29.348   8.235  47.878  1.00  0.00    -0.081 Cl
HETATM   29  C13 UNL     1      27.496   6.340  48.443  1.00  0.00     0.056 A 
ENDBRANCH  20  22
ENDBRANCH   4  20
BRANCH   1  30
HETATM   30  C3  UNL     1      22.105   4.765  47.785  1.00  0.00     0.179 C 
HETATM   31  O1  UNL     1      21.864   5.668  46.971  1.00  0.00    -0.288 OA
BRANCH  30  32
HETATM   32  C2  UNL     1      21.577   3.807  46.824  1.00  0.00     0.045 C 
HETATM   33  C1  UNL     1      20.418   4.362  46.530  1.00  0.00     0.015 C 
ENDBRANCH  30  32
ENDBRANCH   1  30
TORSDOF 4
ENDMDL
MODEL 8
REMARK VINA RESULT:      -8.4      4.647      7.327
REMARK  4 active torsions:
REMARK  status: ('A' for Active; 'I' for Inactive)
REMARK    1  A    between atoms: C2_2  and  C3_3 
REMARK    2  A    between atoms: C3_3  and  C4_5 
REMARK    3  A    between atoms: C7_8  and  N1_9 
REMARK    4  A    between atoms: N1_9  and  C8_10 
ROOT
HETATM    1  C4  UNL     1      21.508   2.941  50.853  1.00  0.00     0.016 C 
HETATM    2  C5  UNL     1      22.593   2.574  50.191  1.00  0.00     0.030 C 
HETATM    3  C6  UNL     1      24.024   2.776  50.390  1.00  0.00     0.038 A 
HETATM    4  C7  UNL     1      24.415   3.828  49.538  1.00  0.00     0.141 A 
HETATM    5  N2  UNL     1      25.656   4.388  49.372  1.00  0.00    -0.224 NA
HETATM    6  C14 UNL     1      26.608   3.821  50.156  1.00  0.00     0.235 A 
HETATM    7  N3  UNL     1      26.275   2.817  50.980  1.00  0.00    -0.243 NA
HETATM    8  C15 UNL     1      25.056   2.286  51.124  1.00  0.00     0.085 A 
HETATM    9  C16 UNL     1      25.175   1.212  52.129  1.00  0.00     0.299 C 
HETATM   10  C17 UNL     1      25.799   1.721  53.410  1.00  0.00     0.210 C 
HETATM   11  O2  UNL     1      26.194   0.659  54.198  1.00  0.00    -0.387 OA
HETATM   12  C18 UNL     1      25.719  -0.556  53.782  1.00  0.00     0.198 C 
HETATM   13  C19 UNL     1      24.290  -0.554  53.353  1.00  0.00     0.299 C 
HETATM   14  N4  UNL     1      23.971   0.522  52.441  1.00  0.00     0.103 N 
HETATM   15  C20 UNL     1      22.986   1.374  53.090  1.00  0.00     0.275 C 
HETATM   16  C21 UNL     1      21.591   0.835  52.990  1.00  0.00     0.056 C 
HETATM   17  C22 UNL     1      20.609   1.834  53.485  1.00  0.00     0.169 C 
HETATM   18  O3  UNL     1      20.139   2.800  52.732  1.00  0.00    -0.386 OA
HETATM   19  C23 UNL     1      20.873   3.634  52.006  1.00  0.00     0.210 C 
ENDROOT
BRANCH   4  20
HETATM   20  N1  UNL     1      23.451   4.461  48.659  1.00  0.00    -0.340 N 
HETATM   21  H5  UNL     1      23.081   3.800  47.972  1.00  0.00     0.167 HD
BRANCH  20  22
HETATM   22  C8  UNL     1      23.101   5.840  48.786  1.00  0.00     0.035 A 
HETATM   23  C9  UNL     1      22.769   6.334  50.007  1.00  0.00     0.032 A 
HETATM   24  C10 UNL     1      22.435   7.670  50.095  1.00  0.00     0.046 A 
HETATM   25  C11 UNL     1      22.449   8.450  48.949  1.00  0.00     0.138 A 
HETATM   26  F1  UNL     1      22.123   9.775  48.999  1.00  0.00    -0.204 F 
HETATM   27  C12 UNL     1      22.794   7.909  47.717  1.00  0.00     0.074 A 
HETATM   28 CL1  UNL     1      22.820   8.873  46.242  1.00  0.00    -0.081 Cl
HETATM   29  C13 UNL     1      23.135   6.556  47.610  1.00  0.00     0.056 A 
ENDBRANCH  20  22
ENDBRANCH   4  20
BRANCH   1  30
HETATM   30  C3  UNL     1      20.346   2.405  50.106  1.00  0.00     0.179 C 
HETATM   31  O1  UNL     1      19.304   2.826  49.582  1.00  0.00    -0.288 OA
BRANCH  30  32
HETATM   32  C2  UNL     1      19.975   1.064  49.677  1.00  0.00     0.045 C 
HETATM   33  C1  UNL     1      18.726   1.004  50.095  1.00  0.00     0.015 C 
ENDBRANCH  30  32
ENDBRANCH   1  30
TORSDOF 4
ENDMDL
MODEL 9
REMARK VINA RESULT:      -8.4      3.542      5.187
REMARK  4 active torsions:
REMARK  status: ('A' for Active; 'I' for Inactive)
REMARK    1  A    between atoms: C2_2  and  C3_3 
REMARK    2  A    between atoms: C3_3  and  C4_5 
REMARK    3  A    between atoms: C7_8  and  N1_9 
REMARK    4  A    between atoms: N1_9  and  C8_10 
ROOT
HETATM    1  C4  UNL     1      21.368   3.013  50.225  1.00  0.00     0.016 C 
HETATM    2  C5  UNL     1      22.320   2.093  50.229  1.00  0.00     0.030 C 
HETATM    3  C6  UNL     1      23.275   1.623  51.225  1.00  0.00     0.038 A 
HETATM    4  C7  UNL     1      24.508   2.242  50.938  1.00  0.00     0.141 A 
HETATM    5  N2  UNL     1      25.707   2.124  51.596  1.00  0.00    -0.224 NA
HETATM    6  C14 UNL     1      25.651   1.287  52.662  1.00  0.00     0.235 A 
HETATM    7  N3  UNL     1      24.496   0.678  52.968  1.00  0.00    -0.243 NA
HETATM    8  C15 UNL     1      23.339   0.809  52.310  1.00  0.00     0.085 A 
HETATM    9  C16 UNL     1      22.357  -0.049  53.001  1.00  0.00     0.299 C 
HETATM   10  C17 UNL     1      22.285   0.273  54.478  1.00  0.00     0.210 C 
HETATM   11  O2  UNL     1      21.621  -0.733  55.149  1.00  0.00    -0.387 OA
HETATM   12  C18 UNL     1      20.979  -1.626  54.333  1.00  0.00     0.198 C 
HETATM   13  C19 UNL     1      20.248  -1.009  53.188  1.00  0.00     0.299 C 
HETATM   14  N4  UNL     1      21.042  -0.043  52.460  1.00  0.00     0.103 N 
HETATM   15  C20 UNL     1      20.388   1.251  52.586  1.00  0.00     0.275 C 
HETATM   16  C21 UNL     1      19.246   1.424  51.631  1.00  0.00     0.056 C 
HETATM   17  C22 UNL     1      18.748   2.824  51.660  1.00  0.00     0.169 C 
HETATM   18  O3  UNL     1      19.297   3.786  50.958  1.00  0.00    -0.386 OA
HETATM   19  C23 UNL     1      20.593   4.070  50.927  1.00  0.00     0.210 C 
ENDROOT
BRANCH   4  20
HETATM   20  N1  UNL     1      24.639   3.129  49.800  1.00  0.00    -0.340 N 
HETATM   21  H5  UNL     1      24.483   2.634  48.919  1.00  0.00     0.167 HD
BRANCH  20  22
HETATM   22  C8  UNL     1      24.950   4.516  49.951  1.00  0.00     0.035 A 
HETATM   23  C9  UNL     1      24.225   5.271  50.815  1.00  0.00     0.032 A 
HETATM   24  C10 UNL     1      24.550   6.607  50.937  1.00  0.00     0.046 A 
HETATM   25  C11 UNL     1      25.592   7.123  50.182  1.00  0.00     0.138 A 
HETATM   26  F1  UNL     1      25.941   8.440  50.276  1.00  0.00    -0.204 F 
HETATM   27  C12 UNL     1      26.312   6.319  49.307  1.00  0.00     0.074 A 
HETATM   28 CL1  UNL     1      27.640   6.945  48.332  1.00  0.00    -0.081 Cl
HETATM   29  C13 UNL     1      25.995   4.962  49.171  1.00  0.00     0.056 A 
ENDBRANCH  20  22
ENDBRANCH   4  20
BRANCH   1  30
HETATM   30  C3  UNL     1      20.755   2.991  48.875  1.00  0.00     0.179 C 
HETATM   31  O1  UNL     1      20.040   2.244  48.192  1.00  0.00    -0.288 OA
BRANCH  30  32
HETATM   32  C2  UNL     1      20.776   3.929  47.761  1.00  0.00     0.045 C 
HETATM   33  C1  UNL     1      19.636   3.634  47.166  1.00  0.00     0.015 C 
ENDBRANCH  30  32
ENDBRANCH   1  30
TORSDOF 4
ENDMDL
