MODEL 1
REMARK VINA RESULT:      -7.1      0.000      0.000
REMARK  7 active torsions:
REMARK  status: ('A' for Active; 'I' for Inactive)
REMARK    1  A    between atoms: N1_2  and  C2_3 
REMARK    2  A    between atoms: C3_5  and  N3_6 
REMARK    3  A    between atoms: C4_9  and  N5_10 
REMARK    4  A    between atoms: N5_10  and  N6_11 
REMARK    5  A    between atoms: N6_11  and  C5_12 
REMARK    6  A    between atoms: C5_12  and  C6_13 
REMARK    7  A    between atoms: C9_16  and  O2_17 
ROOT
HETATM    1  C2  UNL     1      26.624   1.720  53.349  1.00  0.00     0.753 A 
HETATM    2  N2  UNL     1      27.929   1.440  53.059  1.00  0.00     0.135 NA
HETATM    3  C3  UNL     1      28.559   0.416  53.687  1.00  0.00     0.805 A 
HETATM    4  N4  UNL     1      27.893  -0.315  54.592  1.00  0.00     0.139 NA
HETATM    5  C4  UNL     1      26.604  -0.071  54.906  1.00  0.00     0.808 A 
HETATM    6  N7  UNL     1      25.997   0.940  54.280  1.00  0.00     0.135 NA
ENDROOT
BRANCH   5   7
HETATM    7  N5  UNL     1      25.742  -0.780  55.817  1.00  0.00     0.097 NA
BRANCH   7   8
HETATM    8  N6  UNL     1      24.723  -1.184  55.529  1.00  0.00    -0.326 NA
BRANCH   8   9
HETATM    9  C5  UNL     1      23.440  -1.555  55.489  1.00  0.00     0.287 C 
BRANCH   9  10
HETATM   10  C6  UNL     1      22.619  -0.790  54.466  1.00  0.00    -0.026 A 
HETATM   11  C7  UNL     1      21.422  -0.283  54.925  1.00  0.00     0.012 A 
HETATM   12  C8  UNL     1      20.591   0.390  54.055  1.00  0.00     0.037 A 
HETATM   13  C9  UNL     1      20.914   0.573  52.735  1.00  0.00     0.068 A 
HETATM   14  C11 UNL     1      22.141   0.050  52.282  1.00  0.00     0.037 A 
HETATM   15  C12 UNL     1      23.004  -0.632  53.126  1.00  0.00     0.012 A 
BRANCH  13  16
HETATM   16  O2  UNL     1      20.233   1.206  51.720  1.00  0.00    -0.356 OA
HETATM   17  C10 UNL     1      19.213   0.594  50.968  1.00  0.00     0.210 C 
ENDBRANCH  13  16
ENDBRANCH   9  10
ENDBRANCH   8   9
ENDBRANCH   7   8
ENDBRANCH   5   7
BRANCH   3  18
HETATM   18  N3  UNL     1      29.883  -0.007  53.506  1.00  0.00     0.101 NA
HETATM   19  O1  UNL     1      30.332  -1.109  53.891  1.00  0.00    -0.044 OA
ENDBRANCH   3  18
BRANCH   1  20
HETATM   20  N1  UNL     1      25.935   2.770  52.697  1.00  0.00    -0.226 N 
HETATM   21  C1  UNL     1      24.512   2.852  53.048  1.00  0.00     0.165 C 
HETATM   22  H4  UNL     1      26.294   3.482  52.008  1.00  0.00     0.177 HD
ENDBRANCH   1  20
TORSDOF 7
ENDMDL
MODEL 2
REMARK VINA RESULT:      -6.8      2.031      3.822
REMARK  7 active torsions:
REMARK  status: ('A' for Active; 'I' for Inactive)
REMARK    1  A    between atoms: N1_2  and  C2_3 
REMARK    2  A    between atoms: C3_5  and  N3_6 
REMARK    3  A    between atoms: C4_9  and  N5_10 
REMARK    4  A    between atoms: N5_10  and  N6_11 
REMARK    5  A    between atoms: N6_11  and  C5_12 
REMARK    6  A    between atoms: C5_12  and  C6_13 
REMARK    7  A    between atoms: C9_16  and  O2_17 
ROOT
HETATM    1  C2  UNL     1      27.326  -0.152  53.243  1.00  0.00     0.753 A 
HETATM    2  N2  UNL     1      28.269   0.451  54.024  1.00  0.00     0.135 NA
HETATM    3  C3  UNL     1      28.651   1.726  53.764  1.00  0.00     0.805 A 
HETATM    4  N4  UNL     1      28.096   2.386  52.738  1.00  0.00     0.139 NA
HETATM    5  C4  UNL     1      27.161   1.827  51.944  1.00  0.00     0.808 A 
HETATM    6  N7  UNL     1      26.796   0.570  52.212  1.00  0.00     0.135 NA
ENDROOT
BRANCH   5   7
HETATM    7  N5  UNL     1      26.444   2.407  50.836  1.00  0.00     0.097 NA
BRANCH   7   8
HETATM    8  N6  UNL     1      25.335   2.640  50.861  1.00  0.00    -0.326 NA
BRANCH   8   9
HETATM    9  C5  UNL     1      24.023   2.725  50.623  1.00  0.00     0.287 C 
BRANCH   9  10
HETATM   10  C6  UNL     1      23.199   1.712  51.397  1.00  0.00    -0.026 A 
HETATM   11  C7  UNL     1      22.108   1.199  50.728  1.00  0.00     0.012 A 
HETATM   12  C8  UNL     1      21.278   0.304  51.369  1.00  0.00     0.037 A 
HETATM   13  C9  UNL     1      21.499  -0.097  52.661  1.00  0.00     0.068 A 
HETATM   14  C11 UNL     1      22.618   0.435  53.330  1.00  0.00     0.037 A 
HETATM   15  C12 UNL     1      23.477   1.337  52.720  1.00  0.00     0.012 A 
BRANCH  13  16
HETATM   16  O2  UNL     1      20.801  -0.968  53.467  1.00  0.00    -0.356 OA
HETATM   17  C10 UNL     1      21.356  -1.597  54.596  1.00  0.00     0.210 C 
ENDBRANCH  13  16
ENDBRANCH   9  10
ENDBRANCH   8   9
ENDBRANCH   7   8
ENDBRANCH   5   7
BRANCH   3  18
HETATM   18  N3  UNL     1      29.595   2.491  54.463  1.00  0.00     0.101 NA
HETATM   19  O1  UNL     1      29.858   2.351  55.678  1.00  0.00    -0.044 OA
ENDBRANCH   3  18
BRANCH   1  20
HETATM   20  N1  UNL     1      26.895  -1.476  53.501  1.00  0.00    -0.226 N 
HETATM   21  C1  UNL     1      26.811  -2.316  52.300  1.00  0.00     0.165 C 
HETATM   22  H4  UNL     1      26.630  -1.929  54.415  1.00  0.00     0.177 HD
ENDBRANCH   1  20
TORSDOF 7
ENDMDL
MODEL 3
REMARK VINA RESULT:      -6.7      3.861      6.026
REMARK  7 active torsions:
REMARK  status: ('A' for Active; 'I' for Inactive)
REMARK    1  A    between atoms: N1_2  and  C2_3 
REMARK    2  A    between atoms: C3_5  and  N3_6 
REMARK    3  A    between atoms: C4_9  and  N5_10 
REMARK    4  A    between atoms: N5_10  and  N6_11 
REMARK    5  A    between atoms: N6_11  and  C5_12 
REMARK    6  A    between atoms: C5_12  and  C6_13 
REMARK    7  A    between atoms: C9_16  and  O2_17 
ROOT
HETATM    1  C2  UNL     1      27.174  -0.685  53.108  1.00  0.00     0.753 A 
HETATM    2  N2  UNL     1      28.117   0.198  53.550  1.00  0.00     0.135 NA
HETATM    3  C3  UNL     1      27.822   1.519  53.635  1.00  0.00     0.805 A 
HETATM    4  N4  UNL     1      26.602   1.948  53.282  1.00  0.00     0.139 NA
HETATM    5  C4  UNL     1      25.643   1.108  52.841  1.00  0.00     0.808 A 
HETATM    6  N7  UNL     1      25.949  -0.189  52.763  1.00  0.00     0.135 NA
ENDROOT
BRANCH   5   7
HETATM    7  N5  UNL     1      24.283   1.400  52.465  1.00  0.00     0.097 NA
BRANCH   7   8
HETATM    8  N6  UNL     1      24.003   1.994  51.541  1.00  0.00    -0.326 NA
BRANCH   8   9
HETATM    9  C5  UNL     1      23.724   2.407  50.301  1.00  0.00     0.287 C 
BRANCH   9  10
HETATM   10  C6  UNL     1      24.696   3.449  49.776  1.00  0.00    -0.026 A 
HETATM   11  C7  UNL     1      26.018   3.061  49.737  1.00  0.00     0.012 A 
HETATM   12  C8  UNL     1      26.976   3.957  49.313  1.00  0.00     0.037 A 
HETATM   13  C9  UNL     1      26.659   5.234  48.927  1.00  0.00     0.068 A 
HETATM   14  C11 UNL     1      25.303   5.614  48.971  1.00  0.00     0.037 A 
HETATM   15  C12 UNL     1      24.310   4.742  49.390  1.00  0.00     0.012 A 
BRANCH  13  16
HETATM   16  O2  UNL     1      27.454   6.263  48.478  1.00  0.00    -0.356 OA
HETATM   17  C10 UNL     1      27.291   7.603  48.879  1.00  0.00     0.210 C 
ENDBRANCH  13  16
ENDBRANCH   9  10
ENDBRANCH   8   9
ENDBRANCH   7   8
ENDBRANCH   5   7
BRANCH   3  18
HETATM   18  N3  UNL     1      28.663   2.553  54.069  1.00  0.00     0.101 NA
HETATM   19  O1  UNL     1      29.606   2.404  54.877  1.00  0.00    -0.044 OA
ENDBRANCH   3  18
BRANCH   1  20
HETATM   20  N1  UNL     1      27.448  -2.072  53.025  1.00  0.00    -0.226 N 
HETATM   21  C1  UNL     1      28.873  -2.402  53.149  1.00  0.00     0.165 C 
HETATM   22  H4  UNL     1      26.785  -2.879  52.889  1.00  0.00     0.177 HD
ENDBRANCH   1  20
TORSDOF 7
ENDMDL
MODEL 4
REMARK VINA RESULT:      -6.7      4.824      7.402
REMARK  7 active torsions:
REMARK  status: ('A' for Active; 'I' for Inactive)
REMARK    1  A    between atoms: N1_2  and  C2_3 
REMARK    2  A    between atoms: C3_5  and  N3_6 
REMARK    3  A    between atoms: C4_9  and  N5_10 
REMARK    4  A    between atoms: N5_10  and  N6_11 
REMARK    5  A    between atoms: N6_11  and  C5_12 
REMARK    6  A    between atoms: C5_12  and  C6_13 
REMARK    7  A    between atoms: C9_16  and  O2_17 
ROOT
HETATM    1  C2  UNL     1      27.655  -0.821  53.186  1.00  0.00     0.753 A 
HETATM    2  N2  UNL     1      26.371  -1.202  53.450  1.00  0.00     0.135 NA
HETATM    3  C3  UNL     1      25.344  -0.358  53.179  1.00  0.00     0.805 A 
HETATM    4  N4  UNL     1      25.600   0.847  52.652  1.00  0.00     0.139 NA
HETATM    5  C4  UNL     1      26.854   1.261  52.376  1.00  0.00     0.808 A 
HETATM    6  N7  UNL     1      27.854   0.419  52.649  1.00  0.00     0.135 NA
ENDROOT
BRANCH   5   7
HETATM    7  N5  UNL     1      27.292   2.496  51.778  1.00  0.00     0.097 NA
BRANCH   7   8
HETATM    8  N6  UNL     1      26.860   2.915  50.818  1.00  0.00    -0.326 NA
BRANCH   8   9
HETATM    9  C5  UNL     1      26.485   3.140  49.555  1.00  0.00     0.287 C 
BRANCH   9  10
HETATM   10  C6  UNL     1      26.787   4.548  49.073  1.00  0.00    -0.026 A 
HETATM   11  C7  UNL     1      25.725   5.426  49.105  1.00  0.00     0.012 A 
HETATM   12  C8  UNL     1      25.896   6.715  48.648  1.00  0.00     0.037 A 
HETATM   13  C9  UNL     1      27.096   7.159  48.154  1.00  0.00     0.068 A 
HETATM   14  C11 UNL     1      28.171   6.250  48.130  1.00  0.00     0.037 A 
HETATM   15  C12 UNL     1      28.040   4.945  48.582  1.00  0.00     0.012 A 
BRANCH  13  16
HETATM   16  O2  UNL     1      27.467   8.387  47.658  1.00  0.00    -0.356 OA
HETATM   17  C10 UNL     1      27.162   9.607  48.291  1.00  0.00     0.210 C 
ENDBRANCH  13  16
ENDBRANCH   9  10
ENDBRANCH   8   9
ENDBRANCH   7   8
ENDBRANCH   5   7
BRANCH   3  18
HETATM   18  N3  UNL     1      23.976  -0.590  53.381  1.00  0.00     0.101 NA
HETATM   19  O1  UNL     1      23.450  -0.784  54.499  1.00  0.00    -0.044 OA
ENDBRANCH   3  18
BRANCH   1  20
HETATM   20  N1  UNL     1      28.745  -1.687  53.442  1.00  0.00    -0.226 N 
HETATM   21  C1  UNL     1      30.009  -0.987  53.703  1.00  0.00     0.165 C 
HETATM   22  H4  UNL     1      28.774  -2.740  53.468  1.00  0.00     0.177 HD
ENDBRANCH   1  20
TORSDOF 7
ENDMDL
MODEL 5
REMARK VINA RESULT:      -6.5      4.995      7.359
REMARK  7 active torsions:
REMARK  status: ('A' for Active; 'I' for Inactive)
REMARK    1  A    between atoms: N1_2  and  C2_3 
REMARK    2  A    between atoms: C3_5  and  N3_6 
REMARK    3  A    between atoms: C4_9  and  N5_10 
REMARK    4  A    between atoms: N5_10  and  N6_11 
REMARK    5  A    between atoms: N6_11  and  C5_12 
REMARK    6  A    between atoms: C5_12  and  C6_13 
REMARK    7  A    between atoms: C9_16  and  O2_17 
ROOT
HETATM    1  C2  UNL     1      24.475   0.605  52.844  1.00  0.00     0.753 A 
HETATM    2  N2  UNL     1      25.043  -0.608  53.112  1.00  0.00     0.135 NA
HETATM    3  C3  UNL     1      26.348  -0.826  52.814  1.00  0.00     0.805 A 
HETATM    4  N4  UNL     1      27.072   0.155  52.257  1.00  0.00     0.139 NA
HETATM    5  C4  UNL     1      26.549   1.366  51.978  1.00  0.00     0.808 A 
HETATM    6  N7  UNL     1      25.262   1.566  52.276  1.00  0.00     0.135 NA
ENDROOT
BRANCH   5   7
HETATM    7  N5  UNL     1      27.195   2.529  51.422  1.00  0.00     0.097 NA
BRANCH   7   8
HETATM    8  N6  UNL     1      26.747   3.156  50.592  1.00  0.00    -0.326 NA
BRANCH   8   9
HETATM    9  C5  UNL     1      26.104   3.607  49.511  1.00  0.00     0.287 C 
BRANCH   9  10
HETATM   10  C6  UNL     1      26.680   4.898  48.956  1.00  0.00    -0.026 A 
HETATM   11  C7  UNL     1      28.013   4.852  48.610  1.00  0.00     0.012 A 
HETATM   12  C8  UNL     1      28.631   5.989  48.137  1.00  0.00     0.037 A 
HETATM   13  C9  UNL     1      27.962   7.178  47.998  1.00  0.00     0.068 A 
HETATM   14  C11 UNL     1      26.600   7.208  48.355  1.00  0.00     0.037 A 
HETATM   15  C12 UNL     1      25.942   6.085  48.834  1.00  0.00     0.012 A 
BRANCH  13  16
HETATM   16  O2  UNL     1      28.391   8.407  47.551  1.00  0.00    -0.356 OA
HETATM   17  C10 UNL     1      27.921   9.629  48.067  1.00  0.00     0.210 C 
ENDBRANCH  13  16
ENDBRANCH   9  10
ENDBRANCH   8   9
ENDBRANCH   7   8
ENDBRANCH   5   7
BRANCH   3  18
HETATM   18  N3  UNL     1      27.084  -2.000  53.026  1.00  0.00     0.101 NA
HETATM   19  O1  UNL     1      28.241  -2.033  53.500  1.00  0.00    -0.044 OA
ENDBRANCH   3  18
BRANCH   1  20
HETATM   20  N1  UNL     1      23.120   0.867  53.160  1.00  0.00    -0.226 N 
HETATM   21  C1  UNL     1      22.230  -0.282  52.952  1.00  0.00     0.165 C 
HETATM   22  H4  UNL     1      22.673   1.754  53.513  1.00  0.00     0.177 HD
ENDBRANCH   1  20
TORSDOF 7
ENDMDL
MODEL 6
REMARK VINA RESULT:      -6.5      3.790      6.598
REMARK  7 active torsions:
REMARK  status: ('A' for Active; 'I' for Inactive)
REMARK    1  A    between atoms: N1_2  and  C2_3 
REMARK    2  A    between atoms: C3_5  and  N3_6 
REMARK    3  A    between atoms: C4_9  and  N5_10 
REMARK    4  A    between atoms: N5_10  and  N6_11 
REMARK    5  A    between atoms: N6_11  and  C5_12 
REMARK    6  A    between atoms: C5_12  and  C6_13 
REMARK    7  A    between atoms: C9_16  and  O2_17 
ROOT
HETATM    1  C2  UNL     1      26.128  -0.201  54.363  1.00  0.00     0.753 A 
HETATM    2  N2  UNL     1      25.293  -0.912  55.175  1.00  0.00     0.135 NA
HETATM    3  C3  UNL     1      23.975  -1.014  54.871  1.00  0.00     0.805 A 
HETATM    4  N4  UNL     1      23.502  -0.412  53.771  1.00  0.00     0.139 NA
HETATM    5  C4  UNL     1      24.294   0.299  52.943  1.00  0.00     0.808 A 
HETATM    6  N7  UNL     1      25.589   0.390  53.256  1.00  0.00     0.135 NA
ENDROOT
BRANCH   5   7
HETATM    7  N5  UNL     1      23.954   0.967  51.712  1.00  0.00     0.097 NA
BRANCH   7   8
HETATM    8  N6  UNL     1      24.059   2.085  51.557  1.00  0.00    -0.326 NA
BRANCH   8   9
HETATM    9  C5  UNL     1      24.103   3.414  51.692  1.00  0.00     0.287 C 
BRANCH   9  10
HETATM   10  C6  UNL     1      25.027   4.095  50.699  1.00  0.00    -0.026 A 
HETATM   11  C7  UNL     1      26.050   3.312  50.207  1.00  0.00     0.012 A 
HETATM   12  C8  UNL     1      26.963   3.859  49.332  1.00  0.00     0.037 A 
HETATM   13  C9  UNL     1      26.891   5.167  48.928  1.00  0.00     0.068 A 
HETATM   14  C11 UNL     1      25.839   5.953  49.438  1.00  0.00     0.037 A 
HETATM   15  C12 UNL     1      24.901   5.440  50.320  1.00  0.00     0.012 A 
BRANCH  13  16
HETATM   16  O2  UNL     1      27.690   5.892  48.074  1.00  0.00    -0.356 OA
HETATM   17  C10 UNL     1      29.097   5.869  48.118  1.00  0.00     0.210 C 
ENDBRANCH  13  16
ENDBRANCH   9  10
ENDBRANCH   8   9
ENDBRANCH   7   8
ENDBRANCH   5   7
BRANCH   3  18
HETATM   18  N3  UNL     1      22.987  -1.704  55.587  1.00  0.00     0.101 NA
HETATM   19  O1  UNL     1      21.814  -1.875  55.189  1.00  0.00    -0.044 OA
ENDBRANCH   3  18
BRANCH   1  20
HETATM   20  N1  UNL     1      27.511  -0.093  54.645  1.00  0.00    -0.226 N 
HETATM   21  C1  UNL     1      28.376  -0.614  53.579  1.00  0.00     0.165 C 
HETATM   22  H4  UNL     1      27.994   0.299  55.496  1.00  0.00     0.177 HD
ENDBRANCH   1  20
TORSDOF 7
ENDMDL
MODEL 7
REMARK VINA RESULT:      -6.4      3.293      6.916
REMARK  7 active torsions:
REMARK  status: ('A' for Active; 'I' for Inactive)
REMARK    1  A    between atoms: N1_2  and  C2_3 
REMARK    2  A    between atoms: C3_5  and  N3_6 
REMARK    3  A    between atoms: C4_9  and  N5_10 
REMARK    4  A    between atoms: N5_10  and  N6_11 
REMARK    5  A    between atoms: N6_11  and  C5_12 
REMARK    6  A    between atoms: C5_12  and  C6_13 
REMARK    7  A    between atoms: C9_16  and  O2_17 
ROOT
HETATM    1  C2  UNL     1      19.322  -0.227  52.642  1.00  0.00     0.753 A 
HETATM    2  N2  UNL     1      19.742  -1.129  53.577  1.00  0.00     0.135 NA
HETATM    3  C3  UNL     1      20.969  -0.999  54.141  1.00  0.00     0.805 A 
HETATM    4  N4  UNL     1      21.761   0.018  53.775  1.00  0.00     0.139 NA
HETATM    5  C4  UNL     1      21.382   0.930  52.856  1.00  0.00     0.808 A 
HETATM    6  N7  UNL     1      20.172   0.789  52.309  1.00  0.00     0.135 NA
ENDROOT
BRANCH   5   7
HETATM    7  N5  UNL     1      22.091   2.093  52.385  1.00  0.00     0.097 NA
BRANCH   7   8
HETATM    8  N6  UNL     1      23.197   2.095  52.140  1.00  0.00    -0.326 NA
BRANCH   8   9
HETATM    9  C5  UNL     1      24.393   2.118  51.542  1.00  0.00     0.287 C 
BRANCH   9  10
HETATM   10  C6  UNL     1      25.463   1.351  52.298  1.00  0.00    -0.026 A 
HETATM   11  C7  UNL     1      25.239   1.195  53.650  1.00  0.00     0.012 A 
HETATM   12  C8  UNL     1      26.178   0.548  54.423  1.00  0.00     0.037 A 
HETATM   13  C9  UNL     1      27.341   0.051  53.893  1.00  0.00     0.068 A 
HETATM   14  C11 UNL     1      27.554   0.217  52.511  1.00  0.00     0.037 A 
HETATM   15  C12 UNL     1      26.634   0.862  51.699  1.00  0.00     0.012 A 
BRANCH  13  16
HETATM   16  O2  UNL     1      28.388  -0.616  54.486  1.00  0.00    -0.356 OA
HETATM   17  C10 UNL     1      29.573  -0.962  53.808  1.00  0.00     0.210 C 
ENDBRANCH  13  16
ENDBRANCH   9  10
ENDBRANCH   8   9
ENDBRANCH   7   8
ENDBRANCH   5   7
BRANCH   3  18
HETATM   18  N3  UNL     1      21.551  -1.826  55.112  1.00  0.00     0.101 NA
HETATM   19  O1  UNL     1      22.703  -1.672  55.574  1.00  0.00    -0.044 OA
ENDBRANCH   3  18
BRANCH   1  20
HETATM   20  N1  UNL     1      18.040  -0.327  52.049  1.00  0.00    -0.226 N 
HETATM   21  C1  UNL     1      17.968   0.237  50.696  1.00  0.00     0.165 C 
HETATM   22  H4  UNL     1      17.151  -0.739  52.438  1.00  0.00     0.177 HD
ENDBRANCH   1  20
TORSDOF 7
ENDMDL
MODEL 8
REMARK VINA RESULT:      -6.3      4.085      6.637
REMARK  7 active torsions:
REMARK  status: ('A' for Active; 'I' for Inactive)
REMARK    1  A    between atoms: N1_2  and  C2_3 
REMARK    2  A    between atoms: C3_5  and  N3_6 
REMARK    3  A    between atoms: C4_9  and  N5_10 
REMARK    4  A    between atoms: N5_10  and  N6_11 
REMARK    5  A    between atoms: N6_11  and  C5_12 
REMARK    6  A    between atoms: C5_12  and  C6_13 
REMARK    7  A    between atoms: C9_16  and  O2_17 
ROOT
HETATM    1  C2  UNL     1      23.696  -0.333  53.455  1.00  0.00     0.753 A 
HETATM    2  N2  UNL     1      24.933  -0.816  53.768  1.00  0.00     0.135 NA
HETATM    3  C3  UNL     1      26.013   0.003  53.721  1.00  0.00     0.805 A 
HETATM    4  N4  UNL     1      25.855   1.286  53.366  1.00  0.00     0.139 NA
HETATM    5  C4  UNL     1      24.650   1.802  53.051  1.00  0.00     0.808 A 
HETATM    6  N7  UNL     1      23.596   0.983  53.101  1.00  0.00     0.135 NA
ENDROOT
BRANCH   5   7
HETATM    7  N5  UNL     1      24.307   3.155  52.691  1.00  0.00     0.097 NA
BRANCH   7   8
HETATM    8  N6  UNL     1      24.151   3.497  51.622  1.00  0.00    -0.326 NA
BRANCH   8   9
HETATM    9  C5  UNL     1      24.090   3.606  50.292  1.00  0.00     0.287 C 
BRANCH   9  10
HETATM   10  C6  UNL     1      25.288   4.315  49.685  1.00  0.00    -0.026 A 
HETATM   11  C7  UNL     1      25.075   5.624  49.309  1.00  0.00     0.012 A 
HETATM   12  C8  UNL     1      26.094   6.333  48.711  1.00  0.00     0.037 A 
HETATM   13  C9  UNL     1      27.325   5.778  48.473  1.00  0.00     0.068 A 
HETATM   14  C11 UNL     1      27.527   4.440  48.865  1.00  0.00     0.037 A 
HETATM   15  C12 UNL     1      26.527   3.694  49.469  1.00  0.00     0.012 A 
BRANCH  13  16
HETATM   16  O2  UNL     1      28.457   6.308  47.898  1.00  0.00    -0.356 OA
HETATM   17  C10 UNL     1      29.763   5.975  48.301  1.00  0.00     0.210 C 
ENDBRANCH  13  16
ENDBRANCH   9  10
ENDBRANCH   8   9
ENDBRANCH   7   8
ENDBRANCH   5   7
BRANCH   3  18
HETATM   18  N3  UNL     1      27.344  -0.326  54.014  1.00  0.00     0.101 NA
HETATM   19  O1  UNL     1      27.840  -0.311  55.162  1.00  0.00    -0.044 OA
ENDBRANCH   3  18
BRANCH   1  20
HETATM   20  N1  UNL     1      22.547  -1.159  53.512  1.00  0.00    -0.226 N 
HETATM   21  C1  UNL     1      21.967  -1.275  54.856  1.00  0.00     0.165 C 
HETATM   22  H4  UNL     1      22.065  -1.692  52.741  1.00  0.00     0.177 HD
ENDBRANCH   1  20
TORSDOF 7
ENDMDL
MODEL 9
REMARK VINA RESULT:      -6.1      2.091      2.833
REMARK  7 active torsions:
REMARK  status: ('A' for Active; 'I' for Inactive)
REMARK    1  A    between atoms: N1_2  and  C2_3 
REMARK    2  A    between atoms: C3_5  and  N3_6 
REMARK    3  A    between atoms: C4_9  and  N5_10 
REMARK    4  A    between atoms: N5_10  and  N6_11 
REMARK    5  A    between atoms: N6_11  and  C5_12 
REMARK    6  A    between atoms: C5_12  and  C6_13 
REMARK    7  A    between atoms: C9_16  and  O2_17 
ROOT
HETATM    1  C2  UNL     1      25.500   1.918  53.492  1.00  0.00     0.753 A 
HETATM    2  N2  UNL     1      26.718   1.591  54.014  1.00  0.00     0.135 NA
HETATM    3  C3  UNL     1      26.947   0.331  54.463  1.00  0.00     0.805 A 
HETATM    4  N4  UNL     1      25.972  -0.585  54.390  1.00  0.00     0.139 NA
HETATM    5  C4  UNL     1      24.755  -0.302  53.881  1.00  0.00     0.808 A 
HETATM    6  N7  UNL     1      24.544   0.942  53.443  1.00  0.00     0.135 NA
ENDROOT
BRANCH   5   7
HETATM    7  N5  UNL     1      23.623  -1.173  53.697  1.00  0.00     0.097 NA
BRANCH   7   8
HETATM    8  N6  UNL     1      22.603  -0.811  53.360  1.00  0.00    -0.326 NA
BRANCH   8   9
HETATM    9  C5  UNL     1      21.308  -0.497  53.257  1.00  0.00     0.287 C 
BRANCH   9  10
HETATM   10  C6  UNL     1      21.045   0.712  52.377  1.00  0.00    -0.026 A 
HETATM   11  C7  UNL     1      21.564   0.641  51.101  1.00  0.00     0.012 A 
HETATM   12  C8  UNL     1      21.410   1.710  50.246  1.00  0.00     0.037 A 
HETATM   13  C9  UNL     1      20.754   2.854  50.621  1.00  0.00     0.068 A 
HETATM   14  C11 UNL     1      20.228   2.910  51.926  1.00  0.00     0.037 A 
HETATM   15  C12 UNL     1      20.362   1.855  52.817  1.00  0.00     0.012 A 
BRANCH  13  16
HETATM   16  O2  UNL     1      20.497   4.014  49.927  1.00  0.00    -0.356 OA
HETATM   17  C10 UNL     1      20.652   5.300  50.477  1.00  0.00     0.210 C 
ENDBRANCH  13  16
ENDBRANCH   9  10
ENDBRANCH   8   9
ENDBRANCH   7   8
ENDBRANCH   5   7
BRANCH   3  18
HETATM   18  N3  UNL     1      28.132  -0.171  55.019  1.00  0.00     0.101 NA
HETATM   19  O1  UNL     1      28.970  -0.858  54.395  1.00  0.00    -0.044 OA
ENDBRANCH   3  18
BRANCH   1  20
HETATM   20  N1  UNL     1      25.237   3.219  52.999  1.00  0.00    -0.226 N 
HETATM   21  C1  UNL     1      23.823   3.456  52.681  1.00  0.00     0.165 C 
HETATM   22  H4  UNL     1      25.901   4.020  52.832  1.00  0.00     0.177 HD
ENDBRANCH   1  20
TORSDOF 7
ENDMDL
