MODEL 1
REMARK VINA RESULT:      -7.5      0.000      0.000
REMARK  8 active torsions:
REMARK  status: ('A' for Active; 'I' for Inactive)
REMARK    1  A    between atoms: O1_1  and  C1_2 
REMARK    2  A    between atoms: C1_2  and  C2_4 
REMARK    3  A    between atoms: C3_5  and  C4_6 
REMARK    4  A    between atoms: C4_6  and  N1_7 
REMARK    5  A    between atoms: N1_7  and  C5_8 
REMARK    6  A    between atoms: C8_13  and  N4_14 
REMARK    7  A    between atoms: N4_14  and  C9_15 
REMARK    8  A    between atoms: C9_15  and  C10_16 
ROOT
HETATM    1  C5  UNL     1      27.292   1.861  53.088  1.00  0.00     0.092 A 
HETATM    2  C6  UNL     1      28.439   2.313  53.694  1.00  0.00     0.151 A 
HETATM    3  N2  UNL     1      29.175   1.568  54.567  1.00  0.00    -0.252 NA
HETATM    4  C7  UNL     1      28.774   0.310  54.869  1.00  0.00     0.235 A 
HETATM    5  N3  UNL     1      27.672  -0.144  54.297  1.00  0.00    -0.222 NA
HETATM    6  C8  UNL     1      26.939   0.576  53.439  1.00  0.00     0.153 A 
ENDROOT
BRANCH   1   7
HETATM    7  N1  UNL     1      26.560   2.686  52.198  1.00  0.00    -0.382 N 
HETATM    8  H7  UNL     1      25.942   3.417  52.611  1.00  0.00     0.160 HD
BRANCH   7   9
HETATM    9  C4  UNL     1      26.572   2.632  50.752  1.00  0.00     0.147 C 
BRANCH   9  10
HETATM   10  C3  UNL     1      25.251   3.078  50.246  1.00  0.00    -0.006 C 
HETATM   11  C2  UNL     1      25.203   4.227  49.534  1.00  0.00     0.035 C 
BRANCH  11  12
HETATM   12  C1  UNL     1      26.140   5.272  49.058  1.00  0.00     0.328 C 
HETATM   13  F1  UNL     1      27.273   4.735  48.473  1.00  0.00    -0.215 F 
BRANCH  12  14
HETATM   14  O1  UNL     1      26.499   6.180  50.059  1.00  0.00    -0.364 OA
HETATM   15  H1  UNL     1      25.753   6.833  50.100  1.00  0.00     0.213 HD
ENDBRANCH  12  14
ENDBRANCH  11  12
ENDBRANCH   9  10
ENDBRANCH   7   9
ENDBRANCH   1   7
BRANCH   6  16
HETATM   16  N4  UNL     1      25.753  -0.010  52.868  1.00  0.00    -0.369 N 
HETATM   17  H10 UNL     1      25.416   0.130  51.909  1.00  0.00     0.161 HD
BRANCH  16  18
HETATM   18  C9  UNL     1      24.946  -0.879  53.700  1.00  0.00     0.160 C 
BRANCH  18  19
HETATM   19  C10 UNL     1      23.544  -0.406  53.755  1.00  0.00    -0.041 A 
HETATM   20  C11 UNL     1      22.597  -0.932  54.611  1.00  0.00     0.009 A 
HETATM   21  C12 UNL     1      21.305  -0.422  54.590  1.00  0.00     0.001 A 
HETATM   22  C13 UNL     1      20.899   0.601  53.750  1.00  0.00     0.000 A 
HETATM   23  C14 UNL     1      21.897   1.084  52.917  1.00  0.00     0.001 A 
HETATM   24  C15 UNL     1      23.198   0.613  52.896  1.00  0.00     0.009 A 
ENDBRANCH  18  19
ENDBRANCH  16  18
ENDBRANCH   6  16
TORSDOF 8
ENDMDL
MODEL 2
REMARK VINA RESULT:      -7.3      3.502      5.140
REMARK  8 active torsions:
REMARK  status: ('A' for Active; 'I' for Inactive)
REMARK    1  A    between atoms: O1_1  and  C1_2 
REMARK    2  A    between atoms: C1_2  and  C2_4 
REMARK    3  A    between atoms: C3_5  and  C4_6 
REMARK    4  A    between atoms: C4_6  and  N1_7 
REMARK    5  A    between atoms: N1_7  and  C5_8 
REMARK    6  A    between atoms: C8_13  and  N4_14 
REMARK    7  A    between atoms: N4_14  and  C9_15 
REMARK    8  A    between atoms: C9_15  and  C10_16 
ROOT
HETATM    1  C5  UNL     1      27.018   0.332  53.667  1.00  0.00     0.092 A 
HETATM    2  C6  UNL     1      27.794   0.312  54.799  1.00  0.00     0.151 A 
HETATM    3  N2  UNL     1      28.843   1.156  55.010  1.00  0.00    -0.252 NA
HETATM    4  C7  UNL     1      29.156   2.075  54.065  1.00  0.00     0.235 A 
HETATM    5  N3  UNL     1      28.421   2.111  52.967  1.00  0.00    -0.222 NA
HETATM    6  C8  UNL     1      27.389   1.288  52.747  1.00  0.00     0.153 A 
ENDROOT
BRANCH   1   7
HETATM    7  N1  UNL     1      25.947  -0.581  53.497  1.00  0.00    -0.382 N 
HETATM    8  H7  UNL     1      26.113  -1.419  52.899  1.00  0.00     0.160 HD
BRANCH   7   9
HETATM    9  C4  UNL     1      24.621  -0.484  54.070  1.00  0.00     0.147 C 
BRANCH   9  10
HETATM   10  C3  UNL     1      23.632  -0.377  52.970  1.00  0.00    -0.006 C 
HETATM   11  C2  UNL     1      22.329  -0.583  53.270  1.00  0.00     0.035 C 
BRANCH  11  12
HETATM   12  C1  UNL     1      21.507  -0.910  54.460  1.00  0.00     0.328 C 
HETATM   13  F1  UNL     1      21.371   0.168  55.316  1.00  0.00    -0.215 F 
BRANCH  12  14
HETATM   14  O1  UNL     1      21.980  -2.024  55.160  1.00  0.00    -0.364 OA
HETATM   15  H1  UNL     1      22.204  -1.688  56.066  1.00  0.00     0.213 HD
ENDBRANCH  12  14
ENDBRANCH  11  12
ENDBRANCH   9  10
ENDBRANCH   7   9
ENDBRANCH   1   7
BRANCH   6  16
HETATM   16  N4  UNL     1      26.649   1.407  51.516  1.00  0.00    -0.369 N 
HETATM   17  H10 UNL     1      26.443   0.643  50.862  1.00  0.00     0.161 HD
BRANCH  16  18
HETATM   18  C9  UNL     1      26.137   2.710  51.145  1.00  0.00     0.160 C 
BRANCH  18  19
HETATM   19  C10 UNL     1      24.664   2.762  51.290  1.00  0.00    -0.041 A 
HETATM   20  C11 UNL     1      23.787   2.338  50.311  1.00  0.00     0.009 A 
HETATM   21  C12 UNL     1      22.420   2.425  50.540  1.00  0.00     0.001 A 
HETATM   22  C13 UNL     1      21.869   2.920  51.711  1.00  0.00     0.000 A 
HETATM   23  C14 UNL     1      22.803   3.328  52.651  1.00  0.00     0.001 A 
HETATM   24  C15 UNL     1      24.174   3.263  52.475  1.00  0.00     0.009 A 
ENDBRANCH  18  19
ENDBRANCH  16  18
ENDBRANCH   6  16
TORSDOF 8
ENDMDL
MODEL 3
REMARK VINA RESULT:      -7.2      2.059      2.130
REMARK  8 active torsions:
REMARK  status: ('A' for Active; 'I' for Inactive)
REMARK    1  A    between atoms: O1_1  and  C1_2 
REMARK    2  A    between atoms: C1_2  and  C2_4 
REMARK    3  A    between atoms: C3_5  and  C4_6 
REMARK    4  A    between atoms: C4_6  and  N1_7 
REMARK    5  A    between atoms: N1_7  and  C5_8 
REMARK    6  A    between atoms: C8_13  and  N4_14 
REMARK    7  A    between atoms: N4_14  and  C9_15 
REMARK    8  A    between atoms: C9_15  and  C10_16 
ROOT
HETATM    1  C5  UNL     1      26.855   1.672  53.477  1.00  0.00     0.092 A 
HETATM    2  C6  UNL     1      28.029   2.313  53.788  1.00  0.00     0.151 A 
HETATM    3  N2  UNL     1      29.096   1.694  54.368  1.00  0.00    -0.252 NA
HETATM    4  C7  UNL     1      29.019   0.374  54.662  1.00  0.00     0.235 A 
HETATM    5  N3  UNL     1      27.898  -0.262  54.370  1.00  0.00    -0.222 NA
HETATM    6  C8  UNL     1      26.842   0.333  53.802  1.00  0.00     0.153 A 
ENDROOT
BRANCH   1   7
HETATM    7  N1  UNL     1      25.773   2.371  52.886  1.00  0.00    -0.382 N 
HETATM    8  H7  UNL     1      24.949   2.589  53.487  1.00  0.00     0.160 HD
BRANCH   7   9
HETATM    9  C4  UNL     1      25.676   2.829  51.517  1.00  0.00     0.147 C 
BRANCH   9  10
HETATM   10  C3  UNL     1      24.262   2.731  51.078  1.00  0.00    -0.006 C 
HETATM   11  C2  UNL     1      23.421   3.728  51.432  1.00  0.00     0.035 C 
BRANCH  11  12
HETATM   12  C1  UNL     1      23.473   5.003  52.187  1.00  0.00     0.328 C 
HETATM   13  F1  UNL     1      23.811   4.813  53.515  1.00  0.00    -0.215 F 
BRANCH  12  14
HETATM   14  O1  UNL     1      22.290   5.743  52.092  1.00  0.00    -0.364 OA
HETATM   15  H1  UNL     1      22.546   6.675  52.318  1.00  0.00     0.213 HD
ENDBRANCH  12  14
ENDBRANCH  11  12
ENDBRANCH   9  10
ENDBRANCH   7   9
ENDBRANCH   1   7
BRANCH   6  16
HETATM   16  N4  UNL     1      25.664  -0.449  53.523  1.00  0.00    -0.369 N 
HETATM   17  H10 UNL     1      25.380  -0.800  52.601  1.00  0.00     0.161 HD
BRANCH  16  18
HETATM   18  C9  UNL     1      24.784  -0.783  54.625  1.00  0.00     0.160 C 
BRANCH  18  19
HETATM   19  C10 UNL     1      23.366  -0.740  54.201  1.00  0.00    -0.041 A 
HETATM   20  C11 UNL     1      22.338  -1.311  54.924  1.00  0.00     0.009 A 
HETATM   21  C12 UNL     1      21.037  -1.217  54.445  1.00  0.00     0.001 A 
HETATM   22  C13 UNL     1      20.699  -0.577  53.265  1.00  0.00     0.000 A 
HETATM   23  C14 UNL     1      21.777  -0.027  52.587  1.00  0.00     0.001 A 
HETATM   24  C15 UNL     1      23.090  -0.090  53.019  1.00  0.00     0.009 A 
ENDBRANCH  18  19
ENDBRANCH  16  18
ENDBRANCH   6  16
TORSDOF 8
ENDMDL
MODEL 4
REMARK VINA RESULT:      -7.0      2.440      5.701
REMARK  8 active torsions:
REMARK  status: ('A' for Active; 'I' for Inactive)
REMARK    1  A    between atoms: O1_1  and  C1_2 
REMARK    2  A    between atoms: C1_2  and  C2_4 
REMARK    3  A    between atoms: C3_5  and  C4_6 
REMARK    4  A    between atoms: C4_6  and  N1_7 
REMARK    5  A    between atoms: N1_7  and  C5_8 
REMARK    6  A    between atoms: C8_13  and  N4_14 
REMARK    7  A    between atoms: N4_14  and  C9_15 
REMARK    8  A    between atoms: C9_15  and  C10_16 
ROOT
HETATM    1  C5  UNL     1      23.791  -0.253  53.604  1.00  0.00     0.092 A 
HETATM    2  C6  UNL     1      23.358  -1.018  54.659  1.00  0.00     0.151 A 
HETATM    3  N2  UNL     1      22.088  -0.975  55.152  1.00  0.00    -0.252 NA
HETATM    4  C7  UNL     1      21.185  -0.139  54.585  1.00  0.00     0.235 A 
HETATM    5  N3  UNL     1      21.581   0.606  53.568  1.00  0.00    -0.222 NA
HETATM    6  C8  UNL     1      22.825   0.574  53.075  1.00  0.00     0.153 A 
ENDROOT
BRANCH   1   7
HETATM    7  N1  UNL     1      25.129  -0.332  53.143  1.00  0.00    -0.382 N 
HETATM    8  H7  UNL     1      25.287  -0.369  52.113  1.00  0.00     0.160 HD
BRANCH   7   9
HETATM    9  C4  UNL     1      26.328  -0.366  53.953  1.00  0.00     0.147 C 
BRANCH   9  10
HETATM   10  C3  UNL     1      27.511  -0.341  53.058  1.00  0.00    -0.006 C 
HETATM   11  C2  UNL     1      28.259   0.785  53.030  1.00  0.00     0.035 C 
BRANCH  11  12
HETATM   12  C1  UNL     1      28.269   2.122  53.673  1.00  0.00     0.328 C 
HETATM   13  F1  UNL     1      26.993   2.619  53.869  1.00  0.00    -0.215 F 
BRANCH  12  14
HETATM   14  O1  UNL     1      29.048   3.054  52.981  1.00  0.00    -0.364 OA
HETATM   15  H1  UNL     1      28.453   3.834  52.834  1.00  0.00     0.213 HD
ENDBRANCH  12  14
ENDBRANCH  11  12
ENDBRANCH   9  10
ENDBRANCH   7   9
ENDBRANCH   1   7
BRANCH   6  16
HETATM   16  N4  UNL     1      23.158   1.427  51.962  1.00  0.00    -0.369 N 
HETATM   17  H10 UNL     1      23.185   1.144  50.976  1.00  0.00     0.161 HD
BRANCH  16  18
HETATM   18  C9  UNL     1      23.490   2.811  52.232  1.00  0.00     0.160 C 
BRANCH  18  19
HETATM   19  C10 UNL     1      24.501   3.310  51.270  1.00  0.00    -0.041 A 
HETATM   20  C11 UNL     1      24.404   4.527  50.627  1.00  0.00     0.009 A 
HETATM   21  C12 UNL     1      25.404   4.909  49.742  1.00  0.00     0.001 A 
HETATM   22  C13 UNL     1      26.514   4.132  49.458  1.00  0.00     0.000 A 
HETATM   23  C14 UNL     1      26.550   2.923  50.136  1.00  0.00     0.001 A 
HETATM   24  C15 UNL     1      25.583   2.493  51.028  1.00  0.00     0.009 A 
ENDBRANCH  18  19
ENDBRANCH  16  18
ENDBRANCH   6  16
TORSDOF 8
ENDMDL
MODEL 5
REMARK VINA RESULT:      -7.0      3.422      6.309
REMARK  8 active torsions:
REMARK  status: ('A' for Active; 'I' for Inactive)
REMARK    1  A    between atoms: O1_1  and  C1_2 
REMARK    2  A    between atoms: C1_2  and  C2_4 
REMARK    3  A    between atoms: C3_5  and  C4_6 
REMARK    4  A    between atoms: C4_6  and  N1_7 
REMARK    5  A    between atoms: N1_7  and  C5_8 
REMARK    6  A    between atoms: C8_13  and  N4_14 
REMARK    7  A    between atoms: N4_14  and  C9_15 
REMARK    8  A    between atoms: C9_15  and  C10_16 
ROOT
HETATM    1  C5  UNL     1      26.596   0.975  53.909  1.00  0.00     0.092 A 
HETATM    2  C6  UNL     1      27.438   0.235  54.702  1.00  0.00     0.151 A 
HETATM    3  N2  UNL     1      28.793   0.377  54.704  1.00  0.00    -0.252 NA
HETATM    4  C7  UNL     1      29.364   1.294  53.886  1.00  0.00     0.235 A 
HETATM    5  N3  UNL     1      28.572   2.017  53.114  1.00  0.00    -0.222 NA
HETATM    6  C8  UNL     1      27.240   1.888  53.102  1.00  0.00     0.153 A 
ENDROOT
BRANCH   1   7
HETATM    7  N1  UNL     1      25.193   0.773  53.941  1.00  0.00    -0.382 N 
HETATM    8  H7  UNL     1      24.580   1.616  53.924  1.00  0.00     0.160 HD
BRANCH   7   9
HETATM    9  C4  UNL     1      24.497  -0.495  53.994  1.00  0.00     0.147 C 
BRANCH   9  10
HETATM   10  C3  UNL     1      23.464  -0.519  52.930  1.00  0.00    -0.006 C 
HETATM   11  C2  UNL     1      22.188  -0.779  53.295  1.00  0.00     0.035 C 
BRANCH  11  12
HETATM   12  C1  UNL     1      21.431  -1.072  54.535  1.00  0.00     0.328 C 
HETATM   13  F1  UNL     1      21.282   0.046  55.336  1.00  0.00    -0.215 F 
BRANCH  12  14
HETATM   14  O1  UNL     1      21.980  -2.125  55.274  1.00  0.00    -0.364 OA
HETATM   15  H1  UNL     1      22.144  -1.752  56.178  1.00  0.00     0.213 HD
ENDBRANCH  12  14
ENDBRANCH  11  12
ENDBRANCH   9  10
ENDBRANCH   7   9
ENDBRANCH   1   7
BRANCH   6  16
HETATM   16  N4  UNL     1      26.463   2.724  52.224  1.00  0.00    -0.369 N 
HETATM   17  H10 UNL     1      25.840   3.487  52.515  1.00  0.00     0.161 HD
BRANCH  16  18
HETATM   18  C9  UNL     1      26.549   2.490  50.797  1.00  0.00     0.160 C 
BRANCH  18  19
HETATM   19  C10 UNL     1      26.320   3.743  50.040  1.00  0.00    -0.041 A 
HETATM   20  C11 UNL     1      27.274   4.332  49.235  1.00  0.00     0.009 A 
HETATM   21  C12 UNL     1      26.965   5.508  48.564  1.00  0.00     0.001 A 
HETATM   22  C13 UNL     1      25.735   6.139  48.652  1.00  0.00     0.000 A 
HETATM   23  C14 UNL     1      24.823   5.497  49.475  1.00  0.00     0.001 A 
HETATM   24  C15 UNL     1      25.078   4.326  50.166  1.00  0.00     0.009 A 
ENDBRANCH  18  19
ENDBRANCH  16  18
ENDBRANCH   6  16
TORSDOF 8
ENDMDL
MODEL 6
REMARK VINA RESULT:      -6.9      3.653      6.412
REMARK  8 active torsions:
REMARK  status: ('A' for Active; 'I' for Inactive)
REMARK    1  A    between atoms: O1_1  and  C1_2 
REMARK    2  A    between atoms: C1_2  and  C2_4 
REMARK    3  A    between atoms: C3_5  and  C4_6 
REMARK    4  A    between atoms: C4_6  and  N1_7 
REMARK    5  A    between atoms: N1_7  and  C5_8 
REMARK    6  A    between atoms: C8_13  and  N4_14 
REMARK    7  A    between atoms: N4_14  and  C9_15 
REMARK    8  A    between atoms: C9_15  and  C10_16 
ROOT
HETATM    1  C5  UNL     1      24.249   2.854  51.640  1.00  0.00     0.092 A 
HETATM    2  C6  UNL     1      24.016   3.196  50.331  1.00  0.00     0.151 A 
HETATM    3  N2  UNL     1      25.005   3.394  49.414  1.00  0.00    -0.252 NA
HETATM    4  C7  UNL     1      26.298   3.250  49.792  1.00  0.00     0.235 A 
HETATM    5  N3  UNL     1      26.545   2.921  51.048  1.00  0.00    -0.222 NA
HETATM    6  C8  UNL     1      25.584   2.724  51.959  1.00  0.00     0.153 A 
ENDROOT
BRANCH   1   7
HETATM    7  N1  UNL     1      23.179   2.674  52.552  1.00  0.00    -0.382 N 
HETATM    8  H7  UNL     1      23.167   3.266  53.411  1.00  0.00     0.160 HD
BRANCH   7   9
HETATM    9  C4  UNL     1      22.077   1.744  52.428  1.00  0.00     0.147 C 
BRANCH   9  10
HETATM   10  C3  UNL     1      22.616   0.362  52.423  1.00  0.00    -0.006 C 
HETATM   11  C2  UNL     1      22.037  -0.545  53.243  1.00  0.00     0.035 C 
BRANCH  11  12
HETATM   12  C1  UNL     1      20.933  -0.595  54.232  1.00  0.00     0.328 C 
HETATM   13  F1  UNL     1      21.021   0.420  55.168  1.00  0.00    -0.215 F 
BRANCH  12  14
HETATM   14  O1  UNL     1      20.830  -1.834  54.872  1.00  0.00    -0.364 OA
HETATM   15  H1  UNL     1      20.069  -1.740  55.502  1.00  0.00     0.213 HD
ENDBRANCH  12  14
ENDBRANCH  11  12
ENDBRANCH   9  10
ENDBRANCH   7   9
ENDBRANCH   1   7
BRANCH   6  16
HETATM   16  N4  UNL     1      25.956   2.368  53.304  1.00  0.00    -0.369 N 
HETATM   17  H10 UNL     1      26.237   3.023  54.043  1.00  0.00     0.161 HD
BRANCH  16  18
HETATM   18  C9  UNL     1      25.942   0.968  53.674  1.00  0.00     0.160 C 
BRANCH  18  19
HETATM   19  C10 UNL     1      27.304   0.388  53.603  1.00  0.00    -0.041 A 
HETATM   20  C11 UNL     1      28.452   1.106  53.871  1.00  0.00     0.009 A 
HETATM   21  C12 UNL     1      29.685   0.474  53.779  1.00  0.00     0.001 A 
HETATM   22  C13 UNL     1      29.839  -0.857  53.430  1.00  0.00     0.000 A 
HETATM   23  C14 UNL     1      28.649  -1.521  53.174  1.00  0.00     0.001 A 
HETATM   24  C15 UNL     1      27.395  -0.941  53.251  1.00  0.00     0.009 A 
ENDBRANCH  18  19
ENDBRANCH  16  18
ENDBRANCH   6  16
TORSDOF 8
ENDMDL
MODEL 7
REMARK VINA RESULT:      -6.9      3.278      7.058
REMARK  8 active torsions:
REMARK  status: ('A' for Active; 'I' for Inactive)
REMARK    1  A    between atoms: O1_1  and  C1_2 
REMARK    2  A    between atoms: C1_2  and  C2_4 
REMARK    3  A    between atoms: C3_5  and  C4_6 
REMARK    4  A    between atoms: C4_6  and  N1_7 
REMARK    5  A    between atoms: N1_7  and  C5_8 
REMARK    6  A    between atoms: C8_13  and  N4_14 
REMARK    7  A    between atoms: N4_14  and  C9_15 
REMARK    8  A    between atoms: C9_15  and  C10_16 
ROOT
HETATM    1  C5  UNL     1      24.600   1.628  51.984  1.00  0.00     0.092 A 
HETATM    2  C6  UNL     1      23.310   1.371  52.380  1.00  0.00     0.151 A 
HETATM    3  N2  UNL     1      22.308   2.294  52.335  1.00  0.00    -0.252 NA
HETATM    4  C7  UNL     1      22.575   3.541  51.876  1.00  0.00     0.235 A 
HETATM    5  N3  UNL     1      23.810   3.809  51.490  1.00  0.00    -0.222 NA
HETATM    6  C8  UNL     1      24.803   2.913  51.529  1.00  0.00     0.153 A 
ENDROOT
BRANCH   1   7
HETATM    7  N1  UNL     1      25.604   0.631  52.066  1.00  0.00    -0.382 N 
HETATM    8  H7  UNL     1      26.401   0.688  51.396  1.00  0.00     0.160 HD
BRANCH   7   9
HETATM    9  C4  UNL     1      25.654  -0.479  52.992  1.00  0.00     0.147 C 
BRANCH   9  10
HETATM   10  C3  UNL     1      26.743  -1.399  52.579  1.00  0.00    -0.006 C 
HETATM   11  C2  UNL     1      27.994  -1.134  53.018  1.00  0.00     0.035 C 
BRANCH  11  12
HETATM   12  C1  UNL     1      28.679  -0.123  53.859  1.00  0.00     0.328 C 
HETATM   13  F1  UNL     1      30.054  -0.160  53.708  1.00  0.00    -0.215 F 
BRANCH  12  14
HETATM   14  O1  UNL     1      28.340  -0.218  55.212  1.00  0.00    -0.364 OA
HETATM   15  H1  UNL     1      29.018  -0.822  55.610  1.00  0.00     0.213 HD
ENDBRANCH  12  14
ENDBRANCH  11  12
ENDBRANCH   9  10
ENDBRANCH   7   9
ENDBRANCH   1   7
BRANCH   6  16
HETATM   16  N4  UNL     1      26.117   3.304  51.084  1.00  0.00    -0.369 N 
HETATM   17  H10 UNL     1      26.882   3.632  51.685  1.00  0.00     0.161 HD
BRANCH  16  18
HETATM   18  C9  UNL     1      26.412   3.237  49.668  1.00  0.00     0.160 C 
BRANCH  18  19
HETATM   19  C10 UNL     1      26.635   4.591  49.109  1.00  0.00    -0.041 A 
HETATM   20  C11 UNL     1      25.650   5.556  49.037  1.00  0.00     0.009 A 
HETATM   21  C12 UNL     1      25.956   6.799  48.497  1.00  0.00     0.001 A 
HETATM   22  C13 UNL     1      27.210   7.138  48.016  1.00  0.00     0.000 A 
HETATM   23  C14 UNL     1      28.152   6.125  48.117  1.00  0.00     0.001 A 
HETATM   24  C15 UNL     1      27.901   4.870  48.647  1.00  0.00     0.009 A 
ENDBRANCH  18  19
ENDBRANCH  16  18
ENDBRANCH   6  16
TORSDOF 8
ENDMDL
MODEL 8
REMARK VINA RESULT:      -6.8      2.537      5.379
REMARK  8 active torsions:
REMARK  status: ('A' for Active; 'I' for Inactive)
REMARK    1  A    between atoms: O1_1  and  C1_2 
REMARK    2  A    between atoms: C1_2  and  C2_4 
REMARK    3  A    between atoms: C3_5  and  C4_6 
REMARK    4  A    between atoms: C4_6  and  N1_7 
REMARK    5  A    between atoms: N1_7  and  C5_8 
REMARK    6  A    between atoms: C8_13  and  N4_14 
REMARK    7  A    between atoms: N4_14  and  C9_15 
REMARK    8  A    between atoms: C9_15  and  C10_16 
ROOT
HETATM    1  C5  UNL     1      22.055   0.817  52.645  1.00  0.00     0.092 A 
HETATM    2  C6  UNL     1      20.697   0.644  52.757  1.00  0.00     0.151 A 
HETATM    3  N2  UNL     1      20.120  -0.343  53.499  1.00  0.00    -0.252 NA
HETATM    4  C7  UNL     1      20.910  -1.214  54.172  1.00  0.00     0.235 A 
HETATM    5  N3  UNL     1      22.219  -1.066  54.078  1.00  0.00    -0.222 NA
HETATM    6  C8  UNL     1      22.800  -0.102  53.353  1.00  0.00     0.153 A 
ENDROOT
BRANCH   1   7
HETATM    7  N1  UNL     1      22.598   1.855  51.847  1.00  0.00    -0.382 N 
HETATM    8  H7  UNL     1      22.632   2.814  52.254  1.00  0.00     0.160 HD
BRANCH   7   9
HETATM    9  C4  UNL     1      23.124   1.736  50.504  1.00  0.00     0.147 C 
BRANCH   9  10
HETATM   10  C3  UNL     1      23.785   3.012  50.134  1.00  0.00    -0.006 C 
HETATM   11  C2  UNL     1      24.993   3.278  50.678  1.00  0.00     0.035 C 
BRANCH  11  12
HETATM   12  C1  UNL     1      25.951   2.637  51.610  1.00  0.00     0.328 C 
HETATM   13  F1  UNL     1      26.257   1.340  51.239  1.00  0.00    -0.215 F 
BRANCH  12  14
HETATM   14  O1  UNL     1      25.522   2.669  52.941  1.00  0.00    -0.364 OA
HETATM   15  H1  UNL     1      26.104   2.023  53.418  1.00  0.00     0.213 HD
ENDBRANCH  12  14
ENDBRANCH  11  12
ENDBRANCH   9  10
ENDBRANCH   7   9
ENDBRANCH   1   7
BRANCH   6  16
HETATM   16  N4  UNL     1      24.238  -0.024  53.314  1.00  0.00    -0.369 N 
HETATM   17  H10 UNL     1      24.795   0.439  52.587  1.00  0.00     0.161 HD
BRANCH  16  18
HETATM   18  C9  UNL     1      24.989  -0.647  54.385  1.00  0.00     0.160 C 
BRANCH  18  19
HETATM   19  C10 UNL     1      26.445  -0.579  54.118  1.00  0.00    -0.041 A 
HETATM   20  C11 UNL     1      27.073  -1.312  53.131  1.00  0.00     0.009 A 
HETATM   21  C12 UNL     1      28.444  -1.180  52.957  1.00  0.00     0.001 A 
HETATM   22  C13 UNL     1      29.238  -0.344  53.724  1.00  0.00     0.000 A 
HETATM   23  C14 UNL     1      28.546   0.363  54.696  1.00  0.00     0.001 A 
HETATM   24  C15 UNL     1      27.182   0.270  54.913  1.00  0.00     0.009 A 
ENDBRANCH  18  19
ENDBRANCH  16  18
ENDBRANCH   6  16
TORSDOF 8
ENDMDL
MODEL 9
REMARK VINA RESULT:      -6.8      3.092      5.118
REMARK  8 active torsions:
REMARK  status: ('A' for Active; 'I' for Inactive)
REMARK    1  A    between atoms: O1_1  and  C1_2 
REMARK    2  A    between atoms: C1_2  and  C2_4 
REMARK    3  A    between atoms: C3_5  and  C4_6 
REMARK    4  A    between atoms: C4_6  and  N1_7 
REMARK    5  A    between atoms: N1_7  and  C5_8 
REMARK    6  A    between atoms: C8_13  and  N4_14 
REMARK    7  A    between atoms: N4_14  and  C9_15 
REMARK    8  A    between atoms: C9_15  and  C10_16 
ROOT
HETATM    1  C5  UNL     1      25.016   3.403  50.924  1.00  0.00     0.092 A 
HETATM    2  C6  UNL     1      25.486   4.492  50.233  1.00  0.00     0.151 A 
HETATM    3  N2  UNL     1      24.827   5.063  49.185  1.00  0.00    -0.252 NA
HETATM    4  C7  UNL     1      23.641   4.545  48.786  1.00  0.00     0.235 A 
HETATM    5  N3  UNL     1      23.170   3.497  49.438  1.00  0.00    -0.222 NA
HETATM    6  C8  UNL     1      23.806   2.926  50.468  1.00  0.00     0.153 A 
ENDROOT
BRANCH   1   7
HETATM    7  N1  UNL     1      25.752   2.844  51.999  1.00  0.00    -0.382 N 
HETATM    8  H7  UNL     1      25.425   3.044  52.969  1.00  0.00     0.160 HD
BRANCH   7   9
HETATM    9  C4  UNL     1      26.930   2.008  51.905  1.00  0.00     0.147 C 
BRANCH   9  10
HETATM   10  C3  UNL     1      26.509   0.586  51.905  1.00  0.00    -0.006 C 
HETATM   11  C2  UNL     1      27.230  -0.286  52.645  1.00  0.00     0.035 C 
BRANCH  11  12
HETATM   12  C1  UNL     1      28.415  -0.264  53.536  1.00  0.00     0.328 C 
HETATM   13  F1  UNL     1      29.361  -1.207  53.175  1.00  0.00    -0.215 F 
BRANCH  12  14
HETATM   14  O1  UNL     1      28.084  -0.407  54.887  1.00  0.00    -0.364 OA
HETATM   15  H1  UNL     1      27.106  -0.245  54.935  1.00  0.00     0.213 HD
ENDBRANCH  12  14
ENDBRANCH  11  12
ENDBRANCH   9  10
ENDBRANCH   7   9
ENDBRANCH   1   7
BRANCH   6  16
HETATM   16  N4  UNL     1      23.209   1.785  51.114  1.00  0.00    -0.369 N 
HETATM   17  H10 UNL     1      23.386   0.801  50.880  1.00  0.00     0.161 HD
BRANCH  16  18
HETATM   18  C9  UNL     1      22.272   2.018  52.194  1.00  0.00     0.160 C 
BRANCH  18  19
HETATM   19  C10 UNL     1      22.112   0.805  53.028  1.00  0.00    -0.041 A 
HETATM   20  C11 UNL     1      20.886   0.262  53.356  1.00  0.00     0.009 A 
HETATM   21  C12 UNL     1      20.838  -0.880  54.145  1.00  0.00     0.001 A 
HETATM   22  C13 UNL     1      21.964  -1.523  54.632  1.00  0.00     0.000 A 
HETATM   23  C14 UNL     1      23.162  -0.928  54.267  1.00  0.00     0.001 A 
HETATM   24  C15 UNL     1      23.267   0.209  53.484  1.00  0.00     0.009 A 
ENDBRANCH  18  19
ENDBRANCH  16  18
ENDBRANCH   6  16
TORSDOF 8
ENDMDL
