MODEL 1
REMARK VINA RESULT:      -7.6      0.000      0.000
REMARK  4 active torsions:
REMARK  status: ('A' for Active; 'I' for Inactive)
REMARK    1  A    between atoms: C7_9  and  N3_10 
REMARK    2  A    between atoms: N3_10  and  C8_11 
REMARK    3  A    between atoms: C11_14  and  S1_15 
REMARK    4  A    between atoms: S1_15  and  N4_16 
ROOT
HETATM    1  N1  UNL     1      29.053   2.503  54.444  1.00  0.00    -0.191 NA
HETATM    2  C1  UNL     1      28.842   1.402  54.136  1.00  0.00     0.103 C 
HETATM    3  C2  UNL     1      28.595   0.047  53.755  1.00  0.00     0.086 C 
HETATM    4  C3  UNL     1      29.627  -0.748  53.524  1.00  0.00    -0.000 C 
HETATM    5  C4  UNL     1      29.725  -2.152  53.126  1.00  0.00     0.030 C 
HETATM    6  C5  UNL     1      28.455  -2.944  53.257  1.00  0.00     0.026 C 
HETATM    7  C6  UNL     1      27.319  -2.472  52.413  1.00  0.00     0.151 C 
HETATM    8  N2  UNL     1      26.589  -1.402  53.112  1.00  0.00    -0.272 NA
HETATM    9  C7  UNL     1      27.209  -0.393  53.639  1.00  0.00     0.143 C 
ENDROOT
BRANCH   9  10
HETATM   10  N3  UNL     1      26.266   0.483  54.243  1.00  0.00    -0.340 N 
HETATM   11  H8  UNL     1      26.393   0.782  55.251  1.00  0.00     0.167 HD
BRANCH  10  12
HETATM   12  C8  UNL     1      25.100   1.063  53.671  1.00  0.00     0.033 A 
HETATM   13  C9  UNL     1      23.908   0.472  53.315  1.00  0.00     0.031 A 
HETATM   14  C10 UNL     1      22.901   1.244  52.766  1.00  0.00     0.027 A 
HETATM   15  C11 UNL     1      23.053   2.607  52.561  1.00  0.00     0.074 A 
HETATM   16  C12 UNL     1      24.242   3.225  52.911  1.00  0.00     0.027 A 
HETATM   17  C13 UNL     1      25.239   2.427  53.460  1.00  0.00     0.031 A 
BRANCH  15  18
HETATM   18  S1  UNL     1      21.752   3.543  51.870  1.00  0.00     0.239 S 
HETATM   19  O1  UNL     1      22.046   5.018  51.919  1.00  0.00    -0.206 OA
HETATM   20  O2  UNL     1      21.640   3.209  50.389  1.00  0.00    -0.206 OA
BRANCH  18  21
HETATM   21  N4  UNL     1      20.233   3.211  52.584  1.00  0.00    -0.225 NA
HETATM   22  H11 UNL     1      19.499   3.055  51.835  1.00  0.00     0.136 HD
HETATM   23  H12 UNL     1      19.903   3.983  53.224  1.00  0.00     0.136 HD
ENDBRANCH  18  21
ENDBRANCH  15  18
ENDBRANCH  10  12
ENDBRANCH   9  10
TORSDOF 4
ENDMDL
MODEL 2
REMARK VINA RESULT:      -7.2      4.719      6.343
REMARK  4 active torsions:
REMARK  status: ('A' for Active; 'I' for Inactive)
REMARK    1  A    between atoms: C7_9  and  N3_10 
REMARK    2  A    between atoms: N3_10  and  C8_11 
REMARK    3  A    between atoms: C11_14  and  S1_15 
REMARK    4  A    between atoms: S1_15  and  N4_16 
ROOT
HETATM    1  N1  UNL     1      21.859   3.278  51.117  1.00  0.00    -0.191 NA
HETATM    2  C1  UNL     1      22.853   2.716  51.341  1.00  0.00     0.103 C 
HETATM    3  C2  UNL     1      24.068   2.020  51.625  1.00  0.00     0.086 C 
HETATM    4  C3  UNL     1      24.030   0.981  52.443  1.00  0.00    -0.000 C 
HETATM    5  C4  UNL     1      25.064   0.070  52.933  1.00  0.00     0.030 C 
HETATM    6  C5  UNL     1      26.368   0.120  52.188  1.00  0.00     0.026 C 
HETATM    7  C6  UNL     1      27.078   1.432  52.232  1.00  0.00     0.151 C 
HETATM    8  N2  UNL     1      26.567   2.312  51.169  1.00  0.00    -0.272 NA
HETATM    9  C7  UNL     1      25.295   2.494  50.995  1.00  0.00     0.143 C 
ENDROOT
BRANCH   9  10
HETATM   10  N3  UNL     1      25.087   3.388  49.908  1.00  0.00    -0.340 N 
HETATM   11  H8  UNL     1      24.433   3.117  49.120  1.00  0.00     0.167 HD
BRANCH  10  12
HETATM   12  C8  UNL     1      25.653   4.675  49.697  1.00  0.00     0.033 A 
HETATM   13  C9  UNL     1      26.685   5.058  48.871  1.00  0.00     0.031 A 
HETATM   14  C10 UNL     1      27.072   6.384  48.830  1.00  0.00     0.027 A 
HETATM   15  C11 UNL     1      26.447   7.353  49.601  1.00  0.00     0.074 A 
HETATM   16  C12 UNL     1      25.404   6.994  50.440  1.00  0.00     0.027 A 
HETATM   17  C13 UNL     1      25.036   5.654  50.464  1.00  0.00     0.031 A 
BRANCH  15  18
HETATM   18  S1  UNL     1      26.964   9.018  49.513  1.00  0.00     0.239 S 
HETATM   19  O1  UNL     1      27.950   9.231  48.397  1.00  0.00    -0.206 OA
HETATM   20  O2  UNL     1      25.765   9.884  49.155  1.00  0.00    -0.206 OA
BRANCH  18  21
HETATM   21  N4  UNL     1      27.595   9.603  50.991  1.00  0.00    -0.225 NA
HETATM   22  H11 UNL     1      28.534  10.070  50.832  1.00  0.00     0.136 HD
HETATM   23  H12 UNL     1      27.716   8.844  51.715  1.00  0.00     0.136 HD
ENDBRANCH  18  21
ENDBRANCH  15  18
ENDBRANCH  10  12
ENDBRANCH   9  10
TORSDOF 4
ENDMDL
MODEL 3
REMARK VINA RESULT:      -7.2      1.754      2.290
REMARK  4 active torsions:
REMARK  status: ('A' for Active; 'I' for Inactive)
REMARK    1  A    between atoms: C7_9  and  N3_10 
REMARK    2  A    between atoms: N3_10  and  C8_11 
REMARK    3  A    between atoms: C11_14  and  S1_15 
REMARK    4  A    between atoms: S1_15  and  N4_16 
ROOT
HETATM    1  N1  UNL     1      27.631   2.753  54.107  1.00  0.00    -0.191 NA
HETATM    2  C1  UNL     1      27.821   1.626  53.894  1.00  0.00     0.103 C 
HETATM    3  C2  UNL     1      28.066   0.243  53.630  1.00  0.00     0.086 C 
HETATM    4  C3  UNL     1      29.316  -0.169  53.498  1.00  0.00    -0.000 C 
HETATM    5  C4  UNL     1      29.903  -1.481  53.231  1.00  0.00     0.030 C 
HETATM    6  C5  UNL     1      28.969  -2.646  53.400  1.00  0.00     0.026 C 
HETATM    7  C6  UNL     1      27.787  -2.654  52.489  1.00  0.00     0.151 C 
HETATM    8  N2  UNL     1      26.703  -1.847  53.070  1.00  0.00    -0.272 NA
HETATM    9  C7  UNL     1      26.918  -0.650  53.520  1.00  0.00     0.143 C 
ENDROOT
BRANCH   9  10
HETATM   10  N3  UNL     1      25.702  -0.104  54.019  1.00  0.00    -0.340 N 
HETATM   11  H8  UNL     1      25.594   0.082  55.056  1.00  0.00     0.167 HD
BRANCH  10  12
HETATM   12  C8  UNL     1      24.531   0.258  53.299  1.00  0.00     0.033 A 
HETATM   13  C9  UNL     1      24.374   1.160  52.271  1.00  0.00     0.031 A 
HETATM   14  C10 UNL     1      23.123   1.353  51.716  1.00  0.00     0.027 A 
HETATM   15  C11 UNL     1      22.009   0.660  52.164  1.00  0.00     0.074 A 
HETATM   16  C12 UNL     1      22.140  -0.254  53.197  1.00  0.00     0.027 A 
HETATM   17  C13 UNL     1      23.408  -0.429  53.738  1.00  0.00     0.031 A 
BRANCH  15  18
HETATM   18  S1  UNL     1      20.449   0.931  51.430  1.00  0.00     0.239 S 
HETATM   19  O1  UNL     1      19.453  -0.118  51.845  1.00  0.00    -0.206 OA
HETATM   20  O2  UNL     1      19.883   2.244  51.952  1.00  0.00    -0.206 OA
BRANCH  18  21
HETATM   21  N4  UNL     1      20.521   1.048  49.725  1.00  0.00    -0.225 NA
HETATM   22  H11 UNL     1      20.421   0.088  49.285  1.00  0.00     0.136 HD
HETATM   23  H12 UNL     1      21.418   1.484  49.381  1.00  0.00     0.136 HD
ENDBRANCH  18  21
ENDBRANCH  15  18
ENDBRANCH  10  12
ENDBRANCH   9  10
TORSDOF 4
ENDMDL
MODEL 4
REMARK VINA RESULT:      -7.2      4.131      7.199
REMARK  4 active torsions:
REMARK  status: ('A' for Active; 'I' for Inactive)
REMARK    1  A    between atoms: C7_9  and  N3_10 
REMARK    2  A    between atoms: N3_10  and  C8_11 
REMARK    3  A    between atoms: C11_14  and  S1_15 
REMARK    4  A    between atoms: S1_15  and  N4_16 
ROOT
HETATM    1  N1  UNL     1      20.845   0.188  54.860  1.00  0.00    -0.191 NA
HETATM    2  C1  UNL     1      20.759   0.431  53.726  1.00  0.00     0.103 C 
HETATM    3  C2  UNL     1      20.643   0.722  52.332  1.00  0.00     0.086 C 
HETATM    4  C3  UNL     1      19.499   0.462  51.720  1.00  0.00    -0.000 C 
HETATM    5  C4  UNL     1      19.055   0.634  50.338  1.00  0.00     0.030 C 
HETATM    6  C5  UNL     1      19.931   1.511  49.488  1.00  0.00     0.026 C 
HETATM    7  C6  UNL     1      21.328   1.022  49.296  1.00  0.00     0.151 C 
HETATM    8  N2  UNL     1      22.170   1.464  50.420  1.00  0.00    -0.272 NA
HETATM    9  C7  UNL     1      21.798   1.295  51.650  1.00  0.00     0.143 C 
ENDROOT
BRANCH   9  10
HETATM   10  N3  UNL     1      22.797   1.808  52.524  1.00  0.00    -0.340 N 
HETATM   11  H8  UNL     1      22.624   2.711  53.049  1.00  0.00     0.167 HD
BRANCH  10  12
HETATM   12  C8  UNL     1      24.076   1.265  52.826  1.00  0.00     0.033 A 
HETATM   13  C9  UNL     1      24.466  -0.050  52.945  1.00  0.00     0.031 A 
HETATM   14  C10 UNL     1      25.781  -0.347  53.251  1.00  0.00     0.027 A 
HETATM   15  C11 UNL     1      26.730   0.646  53.443  1.00  0.00     0.074 A 
HETATM   16  C12 UNL     1      26.362   1.977  53.328  1.00  0.00     0.027 A 
HETATM   17  C13 UNL     1      25.034   2.248  53.020  1.00  0.00     0.031 A 
BRANCH  15  18
HETATM   18  S1  UNL     1      28.381   0.226  53.823  1.00  0.00     0.239 S 
HETATM   19  O1  UNL     1      28.542  -0.123  55.277  1.00  0.00    -0.206 OA
HETATM   20  O2  UNL     1      28.749  -1.043  53.067  1.00  0.00    -0.206 OA
BRANCH  18  21
HETATM   21  N4  UNL     1      29.503   1.434  53.368  1.00  0.00    -0.225 NA
HETATM   22  H11 UNL     1      29.064   2.396  53.457  1.00  0.00     0.136 HD
HETATM   23  H12 UNL     1      29.857   1.315  52.381  1.00  0.00     0.136 HD
ENDBRANCH  18  21
ENDBRANCH  15  18
ENDBRANCH  10  12
ENDBRANCH   9  10
TORSDOF 4
ENDMDL
MODEL 5
REMARK VINA RESULT:      -7.2      3.230      5.183
REMARK  4 active torsions:
REMARK  status: ('A' for Active; 'I' for Inactive)
REMARK    1  A    between atoms: C7_9  and  N3_10 
REMARK    2  A    between atoms: N3_10  and  C8_11 
REMARK    3  A    between atoms: C11_14  and  S1_15 
REMARK    4  A    between atoms: S1_15  and  N4_16 
ROOT
HETATM    1  N1  UNL     1      26.251  -0.758  54.060  1.00  0.00    -0.191 NA
HETATM    2  C1  UNL     1      25.109  -0.586  53.922  1.00  0.00     0.103 C 
HETATM    3  C2  UNL     1      23.704  -0.384  53.761  1.00  0.00     0.086 C 
HETATM    4  C3  UNL     1      22.875  -0.956  54.620  1.00  0.00    -0.000 C 
HETATM    5  C4  UNL     1      21.418  -0.954  54.739  1.00  0.00     0.030 C 
HETATM    6  C5  UNL     1      20.710   0.092  53.925  1.00  0.00     0.026 C 
HETATM    7  C6  UNL     1      20.890  -0.020  52.448  1.00  0.00     0.151 C 
HETATM    8  N2  UNL     1      22.128   0.666  52.043  1.00  0.00    -0.272 NA
HETATM    9  C7  UNL     1      23.252   0.448  52.652  1.00  0.00     0.143 C 
ENDROOT
BRANCH   9  10
HETATM   10  N3  UNL     1      24.276   1.235  52.056  1.00  0.00    -0.340 N 
HETATM   11  H8  UNL     1      25.184   0.780  51.757  1.00  0.00     0.167 HD
BRANCH  10  12
HETATM   12  C8  UNL     1      24.274   2.630  51.777  1.00  0.00     0.033 A 
HETATM   13  C9  UNL     1      23.629   3.656  52.429  1.00  0.00     0.031 A 
HETATM   14  C10 UNL     1      23.773   4.953  51.972  1.00  0.00     0.027 A 
HETATM   15  C11 UNL     1      24.555   5.257  50.868  1.00  0.00     0.074 A 
HETATM   16  C12 UNL     1      25.216   4.242  50.195  1.00  0.00     0.027 A 
HETATM   17  C13 UNL     1      25.053   2.948  50.674  1.00  0.00     0.031 A 
BRANCH  15  18
HETATM   18  S1  UNL     1      24.713   6.910  50.330  1.00  0.00     0.239 S 
HETATM   19  O1  UNL     1      24.444   7.039  48.855  1.00  0.00    -0.206 OA
HETATM   20  O2  UNL     1      23.639   7.750  51.005  1.00  0.00    -0.206 OA
BRANCH  18  21
HETATM   21  N4  UNL     1      26.227   7.602  50.725  1.00  0.00    -0.225 NA
HETATM   22  H11 UNL     1      26.444   8.410  50.074  1.00  0.00     0.136 HD
HETATM   23  H12 UNL     1      27.021   6.908  50.678  1.00  0.00     0.136 HD
ENDBRANCH  18  21
ENDBRANCH  15  18
ENDBRANCH  10  12
ENDBRANCH   9  10
TORSDOF 4
ENDMDL
MODEL 6
REMARK VINA RESULT:      -7.1      2.623      3.852
REMARK  4 active torsions:
REMARK  status: ('A' for Active; 'I' for Inactive)
REMARK    1  A    between atoms: C7_9  and  N3_10 
REMARK    2  A    between atoms: N3_10  and  C8_11 
REMARK    3  A    between atoms: C11_14  and  S1_15 
REMARK    4  A    between atoms: S1_15  and  N4_16 
ROOT
HETATM    1  N1  UNL     1      23.934  -0.303  53.295  1.00  0.00    -0.191 NA
HETATM    2  C1  UNL     1      25.038   0.049  53.398  1.00  0.00     0.103 C 
HETATM    3  C2  UNL     1      26.395   0.474  53.534  1.00  0.00     0.086 C 
HETATM    4  C3  UNL     1      27.161  -0.119  54.437  1.00  0.00    -0.000 C 
HETATM    5  C4  UNL     1      28.558   0.069  54.826  1.00  0.00     0.030 C 
HETATM    6  C5  UNL     1      29.385   0.883  53.870  1.00  0.00     0.026 C 
HETATM    7  C6  UNL     1      28.935   2.292  53.678  1.00  0.00     0.151 C 
HETATM    8  N2  UNL     1      27.891   2.345  52.642  1.00  0.00    -0.272 NA
HETATM    9  C7  UNL     1      26.871   1.546  52.667  1.00  0.00     0.143 C 
ENDROOT
BRANCH   9  10
HETATM   10  N3  UNL     1      26.025   1.817  51.556  1.00  0.00    -0.340 N 
HETATM   11  H8  UNL     1      25.745   1.032  50.903  1.00  0.00     0.167 HD
BRANCH  10  12
HETATM   12  C8  UNL     1      25.457   3.057  51.155  1.00  0.00     0.033 A 
HETATM   13  C9  UNL     1      25.772   3.865  50.086  1.00  0.00     0.031 A 
HETATM   14  C10 UNL     1      25.076   5.043  49.891  1.00  0.00     0.027 A 
HETATM   15  C11 UNL     1      24.060   5.443  50.746  1.00  0.00     0.074 A 
HETATM   16  C12 UNL     1      23.723   4.648  51.829  1.00  0.00     0.027 A 
HETATM   17  C13 UNL     1      24.438   3.469  52.003  1.00  0.00     0.031 A 
BRANCH  15  18
HETATM   18  S1  UNL     1      23.204   6.936  50.458  1.00  0.00     0.239 S 
HETATM   19  O1  UNL     1      24.065   8.133  50.757  1.00  0.00    -0.206 OA
HETATM   20  O2  UNL     1      22.882   7.038  48.975  1.00  0.00    -0.206 OA
BRANCH  18  21
HETATM   21  N4  UNL     1      21.724   7.036  51.310  1.00  0.00    -0.225 NA
HETATM   22  H11 UNL     1      21.849   7.596  52.202  1.00  0.00     0.136 HD
HETATM   23  H12 UNL     1      21.329   6.089  51.560  1.00  0.00     0.136 HD
ENDBRANCH  18  21
ENDBRANCH  15  18
ENDBRANCH  10  12
ENDBRANCH   9  10
TORSDOF 4
ENDMDL
MODEL 7
REMARK VINA RESULT:      -7.0      4.853      7.287
REMARK  4 active torsions:
REMARK  status: ('A' for Active; 'I' for Inactive)
REMARK    1  A    between atoms: C7_9  and  N3_10 
REMARK    2  A    between atoms: N3_10  and  C8_11 
REMARK    3  A    between atoms: C11_14  and  S1_15 
REMARK    4  A    between atoms: S1_15  and  N4_16 
ROOT
HETATM    1  N1  UNL     1      28.064   4.679  48.507  1.00  0.00    -0.191 NA
HETATM    2  C1  UNL     1      27.064   5.176  48.834  1.00  0.00     0.103 C 
HETATM    3  C2  UNL     1      25.841   5.797  49.232  1.00  0.00     0.086 C 
HETATM    4  C3  UNL     1      25.650   7.074  48.941  1.00  0.00    -0.000 C 
HETATM    5  C4  UNL     1      24.541   7.992  49.197  1.00  0.00     0.030 C 
HETATM    6  C5  UNL     1      23.255   7.340  49.622  1.00  0.00     0.026 C 
HETATM    7  C6  UNL     1      23.319   6.582  50.905  1.00  0.00     0.151 C 
HETATM    8  N2  UNL     1      23.797   5.213  50.653  1.00  0.00    -0.272 NA
HETATM    9  C7  UNL     1      24.858   4.987  49.943  1.00  0.00     0.143 C 
ENDROOT
BRANCH   9  10
HETATM   10  N3  UNL     1      25.088   3.586  49.864  1.00  0.00    -0.340 N 
HETATM   11  H8  UNL     1      25.073   3.101  48.923  1.00  0.00     0.167 HD
BRANCH  10  12
HETATM   12  C8  UNL     1      25.356   2.670  50.918  1.00  0.00     0.033 A 
HETATM   13  C9  UNL     1      24.490   1.877  51.636  1.00  0.00     0.031 A 
HETATM   14  C10 UNL     1      24.982   1.053  52.631  1.00  0.00     0.027 A 
HETATM   15  C11 UNL     1      26.335   0.999  52.933  1.00  0.00     0.074 A 
HETATM   16  C12 UNL     1      27.228   1.787  52.226  1.00  0.00     0.027 A 
HETATM   17  C13 UNL     1      26.707   2.606  51.231  1.00  0.00     0.031 A 
BRANCH  15  18
HETATM   18  S1  UNL     1      26.913  -0.060  54.195  1.00  0.00     0.239 S 
HETATM   19  O1  UNL     1      27.814  -1.132  53.646  1.00  0.00    -0.206 OA
HETATM   20  O2  UNL     1      27.787   0.744  55.147  1.00  0.00    -0.206 OA
BRANCH  18  21
HETATM   21  N4  UNL     1      25.652  -0.752  55.120  1.00  0.00    -0.225 NA
HETATM   22  H11 UNL     1      25.410  -0.126  55.940  1.00  0.00     0.136 HD
HETATM   23  H12 UNL     1      25.893  -1.712  55.488  1.00  0.00     0.136 HD
ENDBRANCH  18  21
ENDBRANCH  15  18
ENDBRANCH  10  12
ENDBRANCH   9  10
TORSDOF 4
ENDMDL
MODEL 8
REMARK VINA RESULT:      -7.0      4.113      7.147
REMARK  4 active torsions:
REMARK  status: ('A' for Active; 'I' for Inactive)
REMARK    1  A    between atoms: C7_9  and  N3_10 
REMARK    2  A    between atoms: N3_10  and  C8_11 
REMARK    3  A    between atoms: C11_14  and  S1_15 
REMARK    4  A    between atoms: S1_15  and  N4_16 
ROOT
HETATM    1  N1  UNL     1      23.356   4.871  52.620  1.00  0.00    -0.191 NA
HETATM    2  C1  UNL     1      22.573   4.063  52.326  1.00  0.00     0.103 C 
HETATM    3  C2  UNL     1      21.602   3.078  51.969  1.00  0.00     0.086 C 
HETATM    4  C3  UNL     1      20.318   3.392  52.043  1.00  0.00    -0.000 C 
HETATM    5  C4  UNL     1      19.098   2.639  51.758  1.00  0.00     0.030 C 
HETATM    6  C5  UNL     1      19.296   1.368  50.981  1.00  0.00     0.026 C 
HETATM    7  C6  UNL     1      20.136   0.334  51.653  1.00  0.00     0.151 C 
HETATM    8  N2  UNL     1      21.559   0.591  51.377  1.00  0.00    -0.272 NA
HETATM    9  C7  UNL     1      22.077   1.768  51.538  1.00  0.00     0.143 C 
ENDROOT
BRANCH   9  10
HETATM   10  N3  UNL     1      23.459   1.729  51.202  1.00  0.00    -0.340 N 
HETATM   11  H8  UNL     1      23.793   2.156  50.293  1.00  0.00     0.167 HD
BRANCH  10  12
HETATM   12  C8  UNL     1      24.537   1.173  51.945  1.00  0.00     0.033 A 
HETATM   13  C9  UNL     1      24.519   0.238  52.955  1.00  0.00     0.031 A 
HETATM   14  C10 UNL     1      25.707  -0.158  53.540  1.00  0.00     0.027 A 
HETATM   15  C11 UNL     1      26.929   0.361  53.140  1.00  0.00     0.074 A 
HETATM   16  C12 UNL     1      26.974   1.303  52.126  1.00  0.00     0.027 A 
HETATM   17  C13 UNL     1      25.766   1.685  51.554  1.00  0.00     0.031 A 
BRANCH  15  18
HETATM   18  S1  UNL     1      28.405  -0.172  53.904  1.00  0.00     0.239 S 
HETATM   19  O1  UNL     1      28.270  -0.208  55.402  1.00  0.00    -0.206 OA
HETATM   20  O2  UNL     1      28.675  -1.613  53.494  1.00  0.00    -0.206 OA
BRANCH  18  21
HETATM   21  N4  UNL     1      29.769   0.753  53.448  1.00  0.00    -0.225 NA
HETATM   22  H11 UNL     1      29.463   1.669  53.010  1.00  0.00     0.136 HD
HETATM   23  H12 UNL     1      30.398   0.248  52.767  1.00  0.00     0.136 HD
ENDBRANCH  18  21
ENDBRANCH  15  18
ENDBRANCH  10  12
ENDBRANCH   9  10
TORSDOF 4
ENDMDL
MODEL 9
REMARK VINA RESULT:      -6.9      4.377      7.089
REMARK  4 active torsions:
REMARK  status: ('A' for Active; 'I' for Inactive)
REMARK    1  A    between atoms: C7_9  and  N3_10 
REMARK    2  A    between atoms: N3_10  and  C8_11 
REMARK    3  A    between atoms: C11_14  and  S1_15 
REMARK    4  A    between atoms: S1_15  and  N4_16 
ROOT
HETATM    1  N1  UNL     1      23.208   5.787  51.547  1.00  0.00    -0.191 NA
HETATM    2  C1  UNL     1      22.989   4.923  50.800  1.00  0.00     0.103 C 
HETATM    3  C2  UNL     1      22.717   3.869  49.874  1.00  0.00     0.086 C 
HETATM    4  C3  UNL     1      22.540   4.172  48.598  1.00  0.00    -0.000 C 
HETATM    5  C4  UNL     1      22.253   3.358  47.418  1.00  0.00     0.030 C 
HETATM    6  C5  UNL     1      22.456   1.879  47.596  1.00  0.00     0.026 C 
HETATM    7  C6  UNL     1      21.587   1.235  48.624  1.00  0.00     0.151 C 
HETATM    8  N2  UNL     1      22.206   1.365  49.953  1.00  0.00    -0.272 NA
HETATM    9  C7  UNL     1      22.648   2.505  50.385  1.00  0.00     0.143 C 
ENDROOT
BRANCH   9  10
HETATM   10  N3  UNL     1      23.189   2.342  51.690  1.00  0.00    -0.340 N 
HETATM   11  H8  UNL     1      22.617   2.618  52.537  1.00  0.00     0.167 HD
BRANCH  10  12
HETATM   12  C8  UNL     1      24.462   1.830  52.065  1.00  0.00     0.033 A 
HETATM   13  C9  UNL     1      25.699   2.052  51.503  1.00  0.00     0.031 A 
HETATM   14  C10 UNL     1      26.815   1.439  52.042  1.00  0.00     0.027 A 
HETATM   15  C11 UNL     1      26.728   0.598  53.141  1.00  0.00     0.074 A 
HETATM   16  C12 UNL     1      25.495   0.358  53.725  1.00  0.00     0.027 A 
HETATM   17  C13 UNL     1      24.389   0.987  53.164  1.00  0.00     0.031 A 
BRANCH  15  18
HETATM   18  S1  UNL     1      28.163  -0.152  53.792  1.00  0.00     0.239 S 
HETATM   19  O1  UNL     1      28.085  -0.290  55.288  1.00  0.00    -0.206 OA
HETATM   20  O2  UNL     1      28.253  -1.577  53.265  1.00  0.00    -0.206 OA
BRANCH  18  21
HETATM   21  N4  UNL     1      29.604   0.652  53.339  1.00  0.00    -0.225 NA
HETATM   22  H11 UNL     1      30.291  -0.035  52.915  1.00  0.00     0.136 HD
HETATM   23  H12 UNL     1      30.073   1.141  54.148  1.00  0.00     0.136 HD
ENDBRANCH  18  21
ENDBRANCH  15  18
ENDBRANCH  10  12
ENDBRANCH   9  10
TORSDOF 4
ENDMDL
