MODEL 1
REMARK VINA RESULT:      -8.0      0.000      0.000
REMARK  5 active torsions:
REMARK  status: ('A' for Active; 'I' for Inactive)
REMARK    1  A    between atoms: O1_2  and  C2_3 
REMARK    2  A    between atoms: C15_22  and  N6_23 
REMARK    3  A    between atoms: N6_23  and  C17_25 
REMARK    4  A    between atoms: C17_25  and  C18_26 
REMARK    5  A    between atoms: C18_26  and  N7_27 
ROOT
HETATM    1  C2  UNL     1      22.819   1.021  53.030  1.00  0.00     0.057 C 
HETATM    2  C3  UNL     1      21.679   1.692  52.684  1.00  0.00    -0.039 A 
HETATM    3  C4  UNL     1      20.325   2.264  52.474  1.00  0.00     0.053 A 
HETATM    4  C5  UNL     1      21.588   2.811  51.769  1.00  0.00     0.075 A 
HETATM    5  C6  UNL     1      21.687   2.521  50.324  1.00  0.00     0.061 A 
HETATM    6  P1  UNL     1      21.717   1.645  48.915  1.00  0.00     0.030 P 
HETATM    7  C7  UNL     1      21.972   3.311  48.187  1.00  0.00     0.105 A 
HETATM    8  C8  UNL     1      22.157   4.306  47.325  1.00  0.00     0.138 C 
HETATM    9  N1  UNL     1      21.735   5.461  47.773  1.00  0.00    -0.057 NA
HETATM   10  C9  UNL     1      22.307   5.879  49.044  1.00  0.00     0.740 C 
HETATM   11  N2  UNL     1      22.058   4.981  49.969  1.00  0.00     0.026 NA
HETATM   12  N3  UNL     1      21.888   3.659  49.554  1.00  0.00    -0.217 N 
HETATM   13  N4  UNL     1      23.087   7.083  49.292  1.00  0.00    -0.218 N 
HETATM   14  C10 UNL     1      24.037   6.721  50.368  1.00  0.00     0.167 C 
HETATM   15  C11 UNL     1      24.950   5.666  49.788  1.00  0.00     0.010 C 
HETATM   16  C12 UNL     1      24.962   4.482  50.363  1.00  0.00     0.085 C 
HETATM   17  N5  UNL     1      25.430   3.145  50.459  1.00  0.00    -0.376 N 
HETATM   18  C13 UNL     1      26.521   2.395  50.938  1.00  0.00     0.085 C 
HETATM   19  C14 UNL     1      26.358   1.460  51.849  1.00  0.00     0.016 C 
HETATM   20  C15 UNL     1      25.258   0.901  52.607  1.00  0.00     0.041 C 
HETATM   21  C21 UNL     1      24.061   1.509  52.310  1.00  0.00     0.153 C 
HETATM   22  H7  UNL     1      22.776   7.852  48.665  1.00  0.00     0.178 HD
HETATM   23  H12 UNL     1      24.794   2.390  50.034  1.00  0.00     0.164 HD
ENDROOT
BRANCH  20  24
HETATM   24  N6  UNL     1      26.118  -0.050  53.297  1.00  0.00    -0.406 N 
HETATM   25  C16 UNL     1      26.396  -1.309  52.686  1.00  0.00     0.144 C 
BRANCH  24  26
HETATM   26  C17 UNL     1      26.657   0.341  54.582  1.00  0.00     0.147 C 
BRANCH  26  27
HETATM   27  C18 UNL     1      28.109  -0.034  54.728  1.00  0.00     0.290 C 
BRANCH  27  28
HETATM   28  N7  UNL     1      28.977   0.595  53.752  1.00  0.00     0.081 N 
HETATM   29  C19 UNL     1      29.420   1.845  54.397  1.00  0.00     0.309 C 
HETATM   30  C20 UNL     1      30.167  -0.272  53.637  1.00  0.00     0.309 C 
ENDBRANCH  27  28
ENDBRANCH  26  27
ENDBRANCH  24  26
ENDBRANCH  20  24
BRANCH   1  31
HETATM   31  O1  UNL     1      22.219   0.109  53.987  1.00  0.00    -0.359 OA
HETATM   32  C1  UNL     1      22.286  -1.242  53.555  1.00  0.00     0.209 C 
ENDBRANCH   1  31
TORSDOF 5
ENDMDL
MODEL 2
REMARK VINA RESULT:      -7.1      2.695      4.075
REMARK  5 active torsions:
REMARK  status: ('A' for Active; 'I' for Inactive)
REMARK    1  A    between atoms: O1_2  and  C2_3 
REMARK    2  A    between atoms: C15_22  and  N6_23 
REMARK    3  A    between atoms: N6_23  and  C17_25 
REMARK    4  A    between atoms: C17_25  and  C18_26 
REMARK    5  A    between atoms: C18_26  and  N7_27 
ROOT
HETATM    1  C2  UNL     1      23.003   4.934  51.399  1.00  0.00     0.057 C 
HETATM    2  C3  UNL     1      22.469   6.147  51.061  1.00  0.00    -0.039 A 
HETATM    3  C4  UNL     1      21.702   7.402  50.856  1.00  0.00     0.053 A 
HETATM    4  C5  UNL     1      23.058   7.123  50.168  1.00  0.00     0.075 A 
HETATM    5  C6  UNL     1      22.992   6.848  48.718  1.00  0.00     0.061 A 
HETATM    6  P1  UNL     1      22.529   6.137  47.293  1.00  0.00     0.030 P 
HETATM    7  C7  UNL     1      23.714   7.355  46.598  1.00  0.00     0.105 A 
HETATM    8  C8  UNL     1      24.456   8.069  45.757  1.00  0.00     0.138 C 
HETATM    9  N1  UNL     1      24.776   9.248  46.225  1.00  0.00    -0.057 NA
HETATM   10  C9  UNL     1      25.464   9.240  47.507  1.00  0.00     0.740 C 
HETATM   11  N2  UNL     1      24.726   8.641  48.413  1.00  0.00     0.026 NA
HETATM   12  N3  UNL     1      23.827   7.669  47.971  1.00  0.00    -0.217 N 
HETATM   13  N4  UNL     1      26.794   9.765  47.782  1.00  0.00    -0.218 N 
HETATM   14  C10 UNL     1      27.342   8.904  48.855  1.00  0.00     0.167 C 
HETATM   15  C11 UNL     1      27.482   7.522  48.259  1.00  0.00     0.010 C 
HETATM   16  C12 UNL     1      26.797   6.544  48.810  1.00  0.00     0.085 C 
HETATM   17  N5  UNL     1      26.400   5.182  48.882  1.00  0.00    -0.376 N 
HETATM   18  C13 UNL     1      26.846   3.932  49.351  1.00  0.00     0.085 C 
HETATM   19  C14 UNL     1      26.157   3.253  50.243  1.00  0.00     0.016 C 
HETATM   20  C15 UNL     1      24.925   3.426  50.985  1.00  0.00     0.041 C 
HETATM   21  C21 UNL     1      24.307   4.620  50.694  1.00  0.00     0.153 C 
HETATM   22  H7  UNL     1      26.997  10.579  47.169  1.00  0.00     0.178 HD
HETATM   23  H12 UNL     1      25.450   4.943  48.439  1.00  0.00     0.164 HD
ENDROOT
BRANCH  20  24
HETATM   24  N6  UNL     1      25.064   2.143  51.660  1.00  0.00    -0.406 N 
HETATM   25  C16 UNL     1      23.906   1.336  51.864  1.00  0.00     0.144 C 
BRANCH  24  26
HETATM   26  C17 UNL     1      26.389   1.749  52.088  1.00  0.00     0.147 C 
BRANCH  26  27
HETATM   27  C18 UNL     1      26.453   1.487  53.570  1.00  0.00     0.290 C 
BRANCH  27  28
HETATM   28  N7  UNL     1      26.836   0.130  53.909  1.00  0.00     0.081 N 
HETATM   29  C19 UNL     1      27.254  -0.470  52.627  1.00  0.00     0.309 C 
HETATM   30  C20 UNL     1      28.048   0.239  54.746  1.00  0.00     0.309 C 
ENDBRANCH  27  28
ENDBRANCH  26  27
ENDBRANCH  24  26
ENDBRANCH  20  24
BRANCH   1  31
HETATM   31  O1  UNL     1      21.970   4.527  52.336  1.00  0.00    -0.359 OA
HETATM   32  C1  UNL     1      20.924   3.807  51.700  1.00  0.00     0.209 C 
ENDBRANCH   1  31
TORSDOF 5
ENDMDL
MODEL 3
REMARK VINA RESULT:      -7.0      2.642      6.688
REMARK  5 active torsions:
REMARK  status: ('A' for Active; 'I' for Inactive)
REMARK    1  A    between atoms: O1_2  and  C2_3 
REMARK    2  A    between atoms: C15_22  and  N6_23 
REMARK    3  A    between atoms: N6_23  and  C17_25 
REMARK    4  A    between atoms: C17_25  and  C18_26 
REMARK    5  A    between atoms: C18_26  and  N7_27 
ROOT
HETATM    1  C2  UNL     1      21.737   3.618  49.153  1.00  0.00     0.057 C 
HETATM    2  C3  UNL     1      21.572   2.261  49.133  1.00  0.00    -0.039 A 
HETATM    3  C4  UNL     1      21.276   0.827  48.887  1.00  0.00     0.053 A 
HETATM    4  C5  UNL     1      22.059   1.324  50.123  1.00  0.00     0.075 A 
HETATM    5  C6  UNL     1      21.334   1.251  51.408  1.00  0.00     0.061 A 
HETATM    6  P1  UNL     1      20.130   1.479  52.526  1.00  0.00     0.030 P 
HETATM    7  C7  UNL     1      21.286   0.528  53.587  1.00  0.00     0.105 A 
HETATM    8  C8  UNL     1      21.833  -0.109  54.618  1.00  0.00     0.138 C 
HETATM    9  N1  UNL     1      22.701  -1.021  54.259  1.00  0.00    -0.057 NA
HETATM   10  C9  UNL     1      23.790  -0.544  53.421  1.00  0.00     0.740 C 
HETATM   11  N2  UNL     1      23.312   0.002  52.325  1.00  0.00     0.026 NA
HETATM   12  N3  UNL     1      22.035   0.561  52.389  1.00  0.00    -0.217 N 
HETATM   13  N4  UNL     1      25.212  -0.598  53.729  1.00  0.00    -0.218 N 
HETATM   14  C10 UNL     1      25.802   0.592  53.074  1.00  0.00     0.167 C 
HETATM   15  C11 UNL     1      25.204   1.795  53.765  1.00  0.00     0.010 C 
HETATM   16  C12 UNL     1      24.499   2.633  53.037  1.00  0.00     0.085 C 
HETATM   17  N5  UNL     1      23.716   3.809  52.892  1.00  0.00    -0.376 N 
HETATM   18  C13 UNL     1      23.845   5.205  52.759  1.00  0.00     0.085 C 
HETATM   19  C14 UNL     1      23.376   5.836  51.704  1.00  0.00     0.016 C 
HETATM   20  C15 UNL     1      22.682   5.483  50.482  1.00  0.00     0.041 C 
HETATM   21  C21 UNL     1      22.458   4.130  50.384  1.00  0.00     0.153 C 
HETATM   22  H7  UNL     1      25.425  -1.434  54.309  1.00  0.00     0.178 HD
HETATM   23  H12 UNL     1      22.650   3.669  52.882  1.00  0.00     0.164 HD
ENDROOT
BRANCH  20  24
HETATM   24  N6  UNL     1      22.620   6.867  50.031  1.00  0.00    -0.406 N 
HETATM   25  C16 UNL     1      21.417   7.609  50.224  1.00  0.00     0.144 C 
BRANCH  24  26
HETATM   26  C17 UNL     1      23.801   7.423  49.406  1.00  0.00     0.147 C 
BRANCH  26  27
HETATM   27  C18 UNL     1      24.420   6.474  48.413  1.00  0.00     0.290 C 
BRANCH  27  28
HETATM   28  N7  UNL     1      25.857   6.337  48.550  1.00  0.00     0.081 N 
HETATM   29  C19 UNL     1      26.224   7.300  49.606  1.00  0.00     0.309 C 
HETATM   30  C20 UNL     1      26.093   4.987  49.100  1.00  0.00     0.309 C 
ENDBRANCH  27  28
ENDBRANCH  26  27
ENDBRANCH  24  26
ENDBRANCH  20  24
BRANCH   1  31
HETATM   31  O1  UNL     1      21.088   3.907  47.886  1.00  0.00    -0.359 OA
HETATM   32  C1  UNL     1      22.016   3.979  46.813  1.00  0.00     0.209 C 
ENDBRANCH   1  31
TORSDOF 5
ENDMDL
MODEL 4
REMARK VINA RESULT:      -6.9      2.839      4.854
REMARK  5 active torsions:
REMARK  status: ('A' for Active; 'I' for Inactive)
REMARK    1  A    between atoms: O1_2  and  C2_3 
REMARK    2  A    between atoms: C15_22  and  N6_23 
REMARK    3  A    between atoms: N6_23  and  C17_25 
REMARK    4  A    between atoms: C17_25  and  C18_26 
REMARK    5  A    between atoms: C18_26  and  N7_27 
ROOT
HETATM    1  C2  UNL     1      22.887   4.946  51.358  1.00  0.00     0.057 C 
HETATM    2  C3  UNL     1      22.386   6.176  51.029  1.00  0.00    -0.039 A 
HETATM    3  C4  UNL     1      21.650   7.449  50.828  1.00  0.00     0.053 A 
HETATM    4  C5  UNL     1      23.017   7.154  50.168  1.00  0.00     0.075 A 
HETATM    5  C6  UNL     1      22.982   6.907  48.713  1.00  0.00     0.061 A 
HETATM    6  P1  UNL     1      22.541   6.231  47.263  1.00  0.00     0.030 P 
HETATM    7  C7  UNL     1      23.768   7.436  46.621  1.00  0.00     0.105 A 
HETATM    8  C8  UNL     1      24.545   8.149  45.811  1.00  0.00     0.138 C 
HETATM    9  N1  UNL     1      24.877   9.313  46.309  1.00  0.00    -0.057 NA
HETATM   10  C9  UNL     1      25.533   9.267  47.607  1.00  0.00     0.740 C 
HETATM   11  N2  UNL     1      24.760   8.668  48.484  1.00  0.00     0.026 NA
HETATM   12  N3  UNL     1      23.853   7.723  48.001  1.00  0.00    -0.217 N 
HETATM   13  N4  UNL     1      26.866   9.759  47.925  1.00  0.00    -0.218 N 
HETATM   14  C10 UNL     1      27.369   8.868  48.995  1.00  0.00     0.167 C 
HETATM   15  C11 UNL     1      27.495   7.495  48.377  1.00  0.00     0.010 C 
HETATM   16  C12 UNL     1      26.777   6.522  48.894  1.00  0.00     0.085 C 
HETATM   17  N5  UNL     1      26.350   5.167  48.931  1.00  0.00    -0.376 N 
HETATM   18  C13 UNL     1      26.758   3.900  49.388  1.00  0.00     0.085 C 
HETATM   19  C14 UNL     1      26.034   3.220  50.250  1.00  0.00     0.016 C 
HETATM   20  C15 UNL     1      24.787   3.406  50.964  1.00  0.00     0.041 C 
HETATM   21  C21 UNL     1      24.202   4.617  50.680  1.00  0.00     0.153 C 
HETATM   22  H7  UNL     1      27.101  10.580  47.331  1.00  0.00     0.178 HD
HETATM   23  H12 UNL     1      25.407   4.955  48.461  1.00  0.00     0.164 HD
ENDROOT
BRANCH  20  24
HETATM   24  N6  UNL     1      24.882   2.109  51.619  1.00  0.00    -0.406 N 
HETATM   25  C16 UNL     1      26.130   1.700  52.177  1.00  0.00     0.144 C 
BRANCH  24  26
HETATM   26  C17 UNL     1      23.687   1.295  51.674  1.00  0.00     0.147 C 
BRANCH  26  27
HETATM   27  C18 UNL     1      23.229   1.052  53.088  1.00  0.00     0.290 C 
BRANCH  27  28
HETATM   28  N7  UNL     1      21.797   0.863  53.216  1.00  0.00     0.081 N 
HETATM   29  C19 UNL     1      21.403   0.150  51.986  1.00  0.00     0.309 C 
HETATM   30  C20 UNL     1      21.601  -0.077  54.338  1.00  0.00     0.309 C 
ENDBRANCH  27  28
ENDBRANCH  26  27
ENDBRANCH  24  26
ENDBRANCH  20  24
BRANCH   1  31
HETATM   31  O1  UNL     1      21.822   4.544  52.261  1.00  0.00    -0.359 OA
HETATM   32  C1  UNL     1      20.743   3.925  51.576  1.00  0.00     0.209 C 
ENDBRANCH   1  31
TORSDOF 5
ENDMDL
MODEL 5
REMARK VINA RESULT:      -6.9      6.909     10.108
REMARK  5 active torsions:
REMARK  status: ('A' for Active; 'I' for Inactive)
REMARK    1  A    between atoms: O1_2  and  C2_3 
REMARK    2  A    between atoms: C15_22  and  N6_23 
REMARK    3  A    between atoms: N6_23  and  C17_25 
REMARK    4  A    between atoms: C17_25  and  C18_26 
REMARK    5  A    between atoms: C18_26  and  N7_27 
ROOT
HETATM    1  C2  UNL     1      28.083   9.811  48.975  1.00  0.00     0.057 C 
HETATM    2  C3  UNL     1      29.274  10.455  48.787  1.00  0.00    -0.039 A 
HETATM    3  C4  UNL     1      30.438  11.366  48.648  1.00  0.00     0.053 A 
HETATM    4  C5  UNL     1      30.535   9.838  48.434  1.00  0.00     0.075 A 
HETATM    5  C6  UNL     1      30.713   9.400  47.035  1.00  0.00     0.061 A 
HETATM    6  P1  UNL     1      30.427   9.247  45.408  1.00  0.00     0.030 P 
HETATM    7  C7  UNL     1      31.922   8.186  45.506  1.00  0.00     0.105 A 
HETATM    8  C8  UNL     1      32.936   7.388  45.188  1.00  0.00     0.138 C 
HETATM    9  N1  UNL     1      33.943   7.478  46.019  1.00  0.00    -0.057 NA
HETATM   10  C9  UNL     1      33.618   7.228  47.415  1.00  0.00     0.740 C 
HETATM   11  N2  UNL     1      32.692   8.066  47.822  1.00  0.00     0.026 NA
HETATM   12  N3  UNL     1      31.810   8.565  46.862  1.00  0.00    -0.217 N 
HETATM   13  N4  UNL     1      34.176   6.184  48.264  1.00  0.00    -0.218 N 
HETATM   14  C10 UNL     1      33.094   5.824  49.208  1.00  0.00     0.167 C 
HETATM   15  C11 UNL     1      31.986   5.226  48.372  1.00  0.00     0.010 C 
HETATM   16  C12 UNL     1      30.816   5.829  48.382  1.00  0.00     0.085 C 
HETATM   17  N5  UNL     1      29.463   5.937  47.965  1.00  0.00    -0.376 N 
HETATM   18  C13 UNL     1      28.187   5.407  48.230  1.00  0.00     0.085 C 
HETATM   19  C14 UNL     1      27.195   6.178  48.621  1.00  0.00     0.016 C 
HETATM   20  C15 UNL     1      26.996   7.585  48.900  1.00  0.00     0.041 C 
HETATM   21  C21 UNL     1      28.146   8.318  48.720  1.00  0.00     0.153 C 
HETATM   22  H7  UNL     1      35.157   5.978  47.987  1.00  0.00     0.178 HD
HETATM   23  H12 UNL     1      29.268   6.635  47.171  1.00  0.00     0.164 HD
ENDROOT
BRANCH  20  24
HETATM   24  N6  UNL     1      25.591   7.397  49.234  1.00  0.00    -0.406 N 
HETATM   25  C16 UNL     1      24.606   7.544  48.213  1.00  0.00     0.144 C 
BRANCH  24  26
HETATM   26  C17 UNL     1      25.267   7.060  50.604  1.00  0.00     0.147 C 
BRANCH  26  27
HETATM   27  C18 UNL     1      24.110   6.097  50.694  1.00  0.00     0.290 C 
BRANCH  27  28
HETATM   28  N7  UNL     1      24.511   4.715  50.867  1.00  0.00     0.081 N 
HETATM   29  C19 UNL     1      23.584   4.182  51.883  1.00  0.00     0.309 C 
HETATM   30  C20 UNL     1      24.195   4.030  49.597  1.00  0.00     0.309 C 
ENDBRANCH  27  28
ENDBRANCH  26  27
ENDBRANCH  24  26
ENDBRANCH  20  24
BRANCH   1  31
HETATM   31  O1  UNL     1      27.297  10.973  49.353  1.00  0.00    -0.359 OA
HETATM   32  C1  UNL     1      26.536  11.482  48.267  1.00  0.00     0.209 C 
ENDBRANCH   1  31
TORSDOF 5
ENDMDL
MODEL 6
REMARK VINA RESULT:      -6.8      2.898      4.989
REMARK  5 active torsions:
REMARK  status: ('A' for Active; 'I' for Inactive)
REMARK    1  A    between atoms: O1_2  and  C2_3 
REMARK    2  A    between atoms: C15_22  and  N6_23 
REMARK    3  A    between atoms: N6_23  and  C17_25 
REMARK    4  A    between atoms: C17_25  and  C18_26 
REMARK    5  A    between atoms: C18_26  and  N7_27 
ROOT
HETATM    1  C2  UNL     1      23.693   2.524  49.992  1.00  0.00     0.057 C 
HETATM    2  C3  UNL     1      22.919   2.959  48.952  1.00  0.00    -0.039 A 
HETATM    3  C4  UNL     1      22.300   3.493  47.713  1.00  0.00     0.053 A 
HETATM    4  C5  UNL     1      21.476   2.872  48.864  1.00  0.00     0.075 A 
HETATM    5  C6  UNL     1      20.685   3.825  49.667  1.00  0.00     0.061 A 
HETATM    6  P1  UNL     1      20.335   5.146  50.609  1.00  0.00     0.030 P 
HETATM    7  C7  UNL     1      18.645   4.432  50.531  1.00  0.00     0.105 A 
HETATM    8  C8  UNL     1      17.341   4.234  50.695  1.00  0.00     0.138 C 
HETATM    9  N1  UNL     1      16.804   3.521  49.738  1.00  0.00    -0.057 NA
HETATM   10  C9  UNL     1      17.414   2.219  49.518  1.00  0.00     0.740 C 
HETATM   11  N2  UNL     1      18.690   2.357  49.240  1.00  0.00     0.026 NA
HETATM   12  N3  UNL     1      19.342   3.481  49.753  1.00  0.00    -0.217 N 
HETATM   13  N4  UNL     1      16.759   0.923  49.626  1.00  0.00    -0.218 N 
HETATM   14  C10 UNL     1      17.810  -0.013  50.085  1.00  0.00     0.167 C 
HETATM   15  C11 UNL     1      18.206   0.444  51.470  1.00  0.00     0.010 C 
HETATM   16  C12 UNL     1      19.455   0.810  51.661  1.00  0.00     0.085 C 
HETATM   17  N5  UNL     1      20.503   1.292  52.490  1.00  0.00    -0.376 N 
HETATM   18  C13 UNL     1      21.425   0.855  53.460  1.00  0.00     0.085 C 
HETATM   19  C14 UNL     1      22.722   0.976  53.274  1.00  0.00     0.016 C 
HETATM   20  C15 UNL     1      23.598   1.483  52.239  1.00  0.00     0.041 C 
HETATM   21  C21 UNL     1      22.900   1.959  51.154  1.00  0.00     0.153 C 
HETATM   22  H7  UNL     1      15.757   1.000  49.358  1.00  0.00     0.178 HD
HETATM   23  H12 UNL     1      20.720   2.342  52.415  1.00  0.00     0.164 HD
ENDROOT
BRANCH  20  24
HETATM   24  N6  UNL     1      24.800   1.172  53.000  1.00  0.00    -0.406 N 
HETATM   25  C16 UNL     1      25.610   2.240  53.490  1.00  0.00     0.144 C 
BRANCH  24  26
HETATM   26  C17 UNL     1      25.109  -0.223  53.227  1.00  0.00     0.147 C 
BRANCH  26  27
HETATM   27  C18 UNL     1      26.498  -0.416  53.780  1.00  0.00     0.290 C 
BRANCH  27  28
HETATM   28  N7  UNL     1      27.460  -0.875  52.798  1.00  0.00     0.081 N 
HETATM   29  C19 UNL     1      28.754  -0.857  53.507  1.00  0.00     0.309 C 
HETATM   30  C20 UNL     1      27.137  -2.292  52.533  1.00  0.00     0.309 C 
ENDBRANCH  27  28
ENDBRANCH  26  27
ENDBRANCH  24  26
ENDBRANCH  20  24
BRANCH   1  31
HETATM   31  O1  UNL     1      24.986   2.849  49.414  1.00  0.00    -0.359 OA
HETATM   32  C1  UNL     1      25.494   4.084  49.897  1.00  0.00     0.209 C 
ENDBRANCH   1  31
TORSDOF 5
ENDMDL
MODEL 7
REMARK VINA RESULT:      -6.8      8.259     11.884
REMARK  5 active torsions:
REMARK  status: ('A' for Active; 'I' for Inactive)
REMARK    1  A    between atoms: O1_2  and  C2_3 
REMARK    2  A    between atoms: C15_22  and  N6_23 
REMARK    3  A    between atoms: N6_23  and  C17_25 
REMARK    4  A    between atoms: C17_25  and  C18_26 
REMARK    5  A    between atoms: C18_26  and  N7_27 
ROOT
HETATM    1  C2  UNL     1      28.711   8.406  48.461  1.00  0.00     0.057 C 
HETATM    2  C3  UNL     1      28.690   7.046  48.319  1.00  0.00    -0.039 A 
HETATM    3  C4  UNL     1      28.437   5.584  48.279  1.00  0.00     0.053 A 
HETATM    4  C5  UNL     1      29.703   6.236  47.676  1.00  0.00     0.075 A 
HETATM    5  C6  UNL     1      30.957   5.997  48.418  1.00  0.00     0.061 A 
HETATM    6  P1  UNL     1      32.024   5.946  49.687  1.00  0.00     0.030 P 
HETATM    7  C7  UNL     1      33.135   5.270  48.391  1.00  0.00     0.105 A 
HETATM    8  C8  UNL     1      34.190   4.765  47.759  1.00  0.00     0.138 C 
HETATM    9  N1  UNL     1      33.870   4.071  46.697  1.00  0.00    -0.057 NA
HETATM   10  C9  UNL     1      33.074   4.783  45.708  1.00  0.00     0.740 C 
HETATM   11  N2  UNL     1      31.958   5.214  46.250  1.00  0.00     0.026 NA
HETATM   12  N3  UNL     1      31.968   5.475  47.622  1.00  0.00    -0.217 N 
HETATM   13  N4  UNL     1      33.440   5.044  44.323  1.00  0.00    -0.218 N 
HETATM   14  C10 UNL     1      32.805   6.339  43.986  1.00  0.00     0.167 C 
HETATM   15  C11 UNL     1      33.467   7.375  44.864  1.00  0.00     0.010 C 
HETATM   16  C12 UNL     1      32.708   8.040  45.708  1.00  0.00     0.085 C 
HETATM   17  N5  UNL     1      32.527   9.013  46.727  1.00  0.00    -0.376 N 
HETATM   18  C13 UNL     1      32.394  10.403  46.906  1.00  0.00     0.085 C 
HETATM   19  C14 UNL     1      31.318  10.919  47.461  1.00  0.00     0.016 C 
HETATM   20  C15 UNL     1      30.071  10.428  48.009  1.00  0.00     0.041 C 
HETATM   21  C21 UNL     1      29.969   9.059  47.922  1.00  0.00     0.153 C 
HETATM   22  H7  UNL     1      34.032   4.273  43.953  1.00  0.00     0.178 HD
HETATM   23  H12 UNL     1      32.475   8.640  47.733  1.00  0.00     0.164 HD
ENDROOT
BRANCH  20  24
HETATM   24  N6  UNL     1      29.612  11.765  48.359  1.00  0.00    -0.406 N 
HETATM   25  C16 UNL     1      30.448  12.602  49.156  1.00  0.00     0.144 C 
BRANCH  24  26
HETATM   26  C17 UNL     1      28.315  12.180  47.867  1.00  0.00     0.147 C 
BRANCH  26  27
HETATM   27  C18 UNL     1      27.849  13.463  48.506  1.00  0.00     0.290 C 
BRANCH  27  28
HETATM   28  N7  UNL     1      27.379  14.453  47.558  1.00  0.00     0.081 N 
HETATM   29  C19 UNL     1      28.609  15.037  46.988  1.00  0.00     0.309 C 
HETATM   30  C20 UNL     1      26.717  13.704  46.471  1.00  0.00     0.309 C 
ENDBRANCH  27  28
ENDBRANCH  26  27
ENDBRANCH  24  26
ENDBRANCH  20  24
BRANCH   1  31
HETATM   31  O1  UNL     1      27.418   8.550  49.107  1.00  0.00    -0.359 OA
HETATM   32  C1  UNL     1      27.492   9.340  50.285  1.00  0.00     0.209 C 
ENDBRANCH   1  31
TORSDOF 5
ENDMDL
MODEL 8
REMARK VINA RESULT:      -6.6      8.068     11.547
REMARK  5 active torsions:
REMARK  status: ('A' for Active; 'I' for Inactive)
REMARK    1  A    between atoms: O1_2  and  C2_3 
REMARK    2  A    between atoms: C15_22  and  N6_23 
REMARK    3  A    between atoms: N6_23  and  C17_25 
REMARK    4  A    between atoms: C17_25  and  C18_26 
REMARK    5  A    between atoms: C18_26  and  N7_27 
ROOT
HETATM    1  C2  UNL     1      31.191   9.434  47.859  1.00  0.00     0.057 C 
HETATM    2  C3  UNL     1      32.453   9.456  47.333  1.00  0.00    -0.039 A 
HETATM    3  C4  UNL     1      33.812   9.732  46.803  1.00  0.00     0.053 A 
HETATM    4  C5  UNL     1      33.218   8.308  46.895  1.00  0.00     0.075 A 
HETATM    5  C6  UNL     1      32.844   7.690  45.607  1.00  0.00     0.061 A 
HETATM    6  P1  UNL     1      32.123   7.507  44.124  1.00  0.00     0.030 P 
HETATM    7  C7  UNL     1      33.024   5.909  44.168  1.00  0.00     0.105 A 
HETATM    8  C8  UNL     1      33.507   4.713  43.845  1.00  0.00     0.138 C 
HETATM    9  N1  UNL     1      34.636   4.434  44.445  1.00  0.00    -0.057 NA
HETATM   10  C9  UNL     1      34.598   4.505  45.898  1.00  0.00     0.740 C 
HETATM   11  N2  UNL     1      34.231   5.706  46.283  1.00  0.00     0.026 NA
HETATM   12  N3  UNL     1      33.421   6.441  45.415  1.00  0.00    -0.217 N 
HETATM   13  N4  UNL     1      34.873   3.420  46.829  1.00  0.00    -0.218 N 
HETATM   14  C10 UNL     1      34.012   3.683  48.005  1.00  0.00     0.167 C 
HETATM   15  C11 UNL     1      32.586   3.556  47.522  1.00  0.00     0.010 C 
HETATM   16  C12 UNL     1      31.809   4.613  47.617  1.00  0.00     0.085 C 
HETATM   17  N5  UNL     1      30.562   5.268  47.436  1.00  0.00    -0.376 N 
HETATM   18  C13 UNL     1      29.292   5.393  48.029  1.00  0.00     0.085 C 
HETATM   19  C14 UNL     1      28.836   6.563  48.424  1.00  0.00     0.016 C 
HETATM   20  C15 UNL     1      29.307   7.932  48.439  1.00  0.00     0.041 C 
HETATM   21  C21 UNL     1      30.571   8.052  47.909  1.00  0.00     0.153 C 
HETATM   22  H7  UNL     1      35.579   2.770  46.429  1.00  0.00     0.178 HD
HETATM   23  H12 UNL     1      30.478   5.890  46.564  1.00  0.00     0.164 HD
ENDROOT
BRANCH  20  24
HETATM   24  N6  UNL     1      28.082   8.426  49.051  1.00  0.00    -0.406 N 
HETATM   25  C16 UNL     1      28.148   9.537  49.943  1.00  0.00     0.144 C 
BRANCH  24  26
HETATM   26  C17 UNL     1      26.845   7.756  48.712  1.00  0.00     0.147 C 
BRANCH  26  27
HETATM   27  C18 UNL     1      25.635   8.573  49.087  1.00  0.00     0.290 C 
BRANCH  27  28
HETATM   28  N7  UNL     1      24.423   7.790  49.235  1.00  0.00     0.081 N 
HETATM   29  C19 UNL     1      24.847   6.397  48.998  1.00  0.00     0.309 C 
HETATM   30  C20 UNL     1      24.041   7.885  50.658  1.00  0.00     0.309 C 
ENDBRANCH  27  28
ENDBRANCH  26  27
ENDBRANCH  24  26
ENDBRANCH  20  24
BRANCH   1  31
HETATM   31  O1  UNL     1      31.072  10.857  48.126  1.00  0.00    -0.359 OA
HETATM   32  C1  UNL     1      30.088  11.475  47.309  1.00  0.00     0.209 C 
ENDBRANCH   1  31
TORSDOF 5
ENDMDL
MODEL 9
REMARK VINA RESULT:      -6.6      7.980     11.606
REMARK  5 active torsions:
REMARK  status: ('A' for Active; 'I' for Inactive)
REMARK    1  A    between atoms: O1_2  and  C2_3 
REMARK    2  A    between atoms: C15_22  and  N6_23 
REMARK    3  A    between atoms: N6_23  and  C17_25 
REMARK    4  A    between atoms: C17_25  and  C18_26 
REMARK    5  A    between atoms: C18_26  and  N7_27 
ROOT
HETATM    1  C2  UNL     1      28.262   7.763  47.354  1.00  0.00     0.057 C 
HETATM    2  C3  UNL     1      28.516   6.535  47.899  1.00  0.00    -0.039 A 
HETATM    3  C4  UNL     1      28.553   5.217  48.582  1.00  0.00     0.053 A 
HETATM    4  C5  UNL     1      29.733   5.765  47.747  1.00  0.00     0.075 A 
HETATM    5  C6  UNL     1      30.914   6.196  48.521  1.00  0.00     0.061 A 
HETATM    6  P1  UNL     1      31.816   6.998  49.659  1.00  0.00     0.030 P 
HETATM    7  C7  UNL     1      33.179   6.052  48.874  1.00  0.00     0.105 A 
HETATM    8  C8  UNL     1      34.377   5.555  48.581  1.00  0.00     0.138 C 
HETATM    9  N1  UNL     1      34.321   4.386  47.995  1.00  0.00    -0.057 NA
HETATM   10  C9  UNL     1      33.526   4.341  46.777  1.00  0.00     0.740 C 
HETATM   11  N2  UNL     1      32.293   4.718  47.028  1.00  0.00     0.026 NA
HETATM   12  N3  UNL     1      32.093   5.597  48.093  1.00  0.00    -0.217 N 
HETATM   13  N4  UNL     1      33.994   3.982  45.446  1.00  0.00    -0.218 N 
HETATM   14  C10 UNL     1      33.169   4.780  44.510  1.00  0.00     0.167 C 
HETATM   15  C11 UNL     1      33.514   6.227  44.770  1.00  0.00     0.010 C 
HETATM   16  C12 UNL     1      32.549   7.026  45.171  1.00  0.00     0.085 C 
HETATM   17  N5  UNL     1      32.069   8.300  45.577  1.00  0.00    -0.376 N 
HETATM   18  C13 UNL     1      31.654   9.536  45.048  1.00  0.00     0.085 C 
HETATM   19  C14 UNL     1      30.442  10.000  45.268  1.00  0.00     0.016 C 
HETATM   20  C15 UNL     1      29.256   9.567  45.976  1.00  0.00     0.041 C 
HETATM   21  C21 UNL     1      29.427   8.340  46.574  1.00  0.00     0.153 C 
HETATM   22  H7  UNL     1      34.761   3.283  45.508  1.00  0.00     0.178 HD
HETATM   23  H12 UNL     1      31.971   8.452  46.637  1.00  0.00     0.164 HD
ENDROOT
BRANCH  20  24
HETATM   24  N6  UNL     1      28.513  10.768  45.619  1.00  0.00    -0.406 N 
HETATM   25  C16 UNL     1      27.797  10.802  44.386  1.00  0.00     0.144 C 
BRANCH  24  26
HETATM   26  C17 UNL     1      28.539  11.875  46.550  1.00  0.00     0.147 C 
BRANCH  26  27
HETATM   27  C18 UNL     1      28.213  11.443  47.957  1.00  0.00     0.290 C 
BRANCH  27  28
HETATM   28  N7  UNL     1      28.477  12.458  48.957  1.00  0.00     0.081 N 
HETATM   29  C19 UNL     1      29.945  12.608  48.957  1.00  0.00     0.309 C 
HETATM   30  C20 UNL     1      27.918  13.717  48.428  1.00  0.00     0.309 C 
ENDBRANCH  27  28
ENDBRANCH  26  27
ENDBRANCH  24  26
ENDBRANCH  20  24
BRANCH   1  31
HETATM   31  O1  UNL     1      26.899   7.905  47.834  1.00  0.00    -0.359 OA
HETATM   32  C1  UNL     1      25.986   8.184  46.782  1.00  0.00     0.209 C 
ENDBRANCH   1  31
TORSDOF 5
ENDMDL
