MODEL 1
REMARK VINA RESULT:      -8.1      0.000      0.000
REMARK  6 active torsions:
REMARK  status: ('A' for Active; 'I' for Inactive)
REMARK    1  A    between atoms: C2_2  and  O1_3 
REMARK    2  A    between atoms: O1_3  and  C3_4 
REMARK    3  A    between atoms: C8_11  and  N2_12 
REMARK    4  A    between atoms: N2_12  and  C10_14 
REMARK    5  A    between atoms: C10_14  and  C11_15 
REMARK    6  A    between atoms: C11_15  and  N3_16 
ROOT
HETATM    1  C3  UNL     1      21.557   0.537  52.857  1.00  0.00     0.201 C 
HETATM    2  C4  UNL     1      22.971   0.176  53.292  1.00  0.00     0.071 C 
HETATM    3  C5  UNL     1      24.190  -0.410  53.239  1.00  0.00     0.311 A 
HETATM    4  N1  UNL     1      25.397  -0.389  54.124  1.00  0.00     0.140 N 
HETATM    5  C6  UNL     1      24.299  -0.919  54.737  1.00  0.00     0.328 A 
HETATM    6  C7  UNL     1      23.293  -1.496  55.572  1.00  0.00     0.088 C 
HETATM    7  O2  UNL     1      25.348  -0.843  55.439  1.00  0.00    -0.146 OA
HETATM    8  C8  UNL     1      25.859   0.180  52.928  1.00  0.00     0.228 C 
HETATM    9  C14 UNL     1      25.979   1.021  51.883  1.00  0.00     0.102 C 
HETATM   10  C15 UNL     1      25.678   2.183  51.043  1.00  0.00    -0.011 C 
HETATM   11  C16 UNL     1      24.848   3.155  51.084  1.00  0.00     0.028 C 
HETATM   12  C17 UNL     1      23.996   4.227  51.047  1.00  0.00     0.059 A 
HETATM   13  C18 UNL     1      23.609   5.511  50.850  1.00  0.00     0.034 A 
HETATM   14  C19 UNL     1      22.299   5.636  51.251  1.00  0.00     0.035 A 
HETATM   15  C20 UNL     1      21.878   4.405  51.702  1.00  0.00     0.076 A 
HETATM   16  C21 UNL     1      20.632   4.117  52.202  1.00  0.00     0.150 A 
HETATM   17  N4  UNL     1      20.458   2.820  52.605  1.00  0.00    -0.239 NA
HETATM   18  C22 UNL     1      21.517   1.993  52.463  1.00  0.00     0.175 A 
HETATM   19  N5  UNL     1      22.694   2.337  51.970  1.00  0.00    -0.149 NA
HETATM   20  N6  UNL     1      22.934   3.562  51.566  1.00  0.00    -0.231 N 
ENDROOT
BRANCH   8  21
HETATM   21  N2  UNL     1      26.781  -0.903  52.903  1.00  0.00    -0.364 N 
HETATM   22  C9  UNL     1      26.720  -2.203  52.206  1.00  0.00     0.151 C 
BRANCH  21  23
HETATM   23  C10 UNL     1      28.015  -0.803  53.635  1.00  0.00     0.154 C 
BRANCH  23  24
HETATM   24  C11 UNL     1      28.998   0.143  52.986  1.00  0.00     0.291 C 
BRANCH  24  25
HETATM   25  N3  UNL     1      29.405   1.094  54.035  1.00  0.00     0.081 N 
HETATM   26  C12 UNL     1      28.720   0.653  55.234  1.00  0.00     0.309 C 
HETATM   27  C13 UNL     1      28.806   2.386  53.691  1.00  0.00     0.309 C 
ENDBRANCH  24  25
ENDBRANCH  23  24
ENDBRANCH  21  23
ENDBRANCH   8  21
BRANCH   1  28
HETATM   28  O1  UNL     1      20.660   0.222  53.854  1.00  0.00    -0.378 OA
BRANCH  28  29
HETATM   29  C2  UNL     1      19.849  -0.853  53.542  1.00  0.00     0.164 C 
HETATM   30  C1  UNL     1      18.725  -0.457  52.606  1.00  0.00     0.033 C 
ENDBRANCH  28  29
ENDBRANCH   1  28
TORSDOF 6
ENDMDL
MODEL 2
REMARK VINA RESULT:      -7.7      2.683      7.742
REMARK  6 active torsions:
REMARK  status: ('A' for Active; 'I' for Inactive)
REMARK    1  A    between atoms: C2_2  and  O1_3 
REMARK    2  A    between atoms: O1_3  and  C3_4 
REMARK    3  A    between atoms: C8_11  and  N2_12 
REMARK    4  A    between atoms: N2_12  and  C10_14 
REMARK    5  A    between atoms: C10_14  and  C11_15 
REMARK    6  A    between atoms: C11_15  and  N3_16 
ROOT
HETATM    1  C3  UNL     1      25.689   2.932  50.524  1.00  0.00     0.201 C 
HETATM    2  C4  UNL     1      24.202   3.029  50.832  1.00  0.00     0.071 C 
HETATM    3  C5  UNL     1      22.878   2.762  50.733  1.00  0.00     0.311 A 
HETATM    4  N1  UNL     1      21.657   3.268  51.434  1.00  0.00     0.140 N 
HETATM    5  C6  UNL     1      22.312   4.244  50.742  1.00  0.00     0.328 A 
HETATM    6  C7  UNL     1      22.829   5.413  50.104  1.00  0.00     0.088 C 
HETATM    7  O2  UNL     1      21.286   4.608  51.384  1.00  0.00    -0.146 OA
HETATM    8  C8  UNL     1      21.685   1.905  51.769  1.00  0.00     0.228 C 
HETATM    9  C14 UNL     1      22.105   0.726  52.265  1.00  0.00     0.102 C 
HETATM   10  C15 UNL     1      23.001  -0.206  52.954  1.00  0.00    -0.011 C 
HETATM   11  C16 UNL     1      24.138  -0.130  53.533  1.00  0.00     0.028 C 
HETATM   12  C17 UNL     1      25.350  -0.139  54.171  1.00  0.00     0.059 A 
HETATM   13  C18 UNL     1      26.262  -0.464  55.120  1.00  0.00     0.034 A 
HETATM   14  C19 UNL     1      27.416   0.244  54.874  1.00  0.00     0.035 A 
HETATM   15  C20 UNL     1      27.204   1.017  53.756  1.00  0.00     0.076 A 
HETATM   16  C21 UNL     1      28.112   1.880  53.194  1.00  0.00     0.150 A 
HETATM   17  N4  UNL     1      27.661   2.555  52.091  1.00  0.00    -0.239 NA
HETATM   18  C22 UNL     1      26.397   2.293  51.694  1.00  0.00     0.175 A 
HETATM   19  N5  UNL     1      25.572   1.444  52.284  1.00  0.00    -0.149 NA
HETATM   20  N6  UNL     1      25.934   0.765  53.345  1.00  0.00    -0.231 N 
ENDROOT
BRANCH   8  21
HETATM   21  N2  UNL     1      20.416   1.839  51.128  1.00  0.00    -0.364 N 
HETATM   22  C9  UNL     1      20.058   1.519  49.732  1.00  0.00     0.151 C 
BRANCH  21  23
HETATM   23  C10 UNL     1      19.222   2.096  51.888  1.00  0.00     0.154 C 
BRANCH  23  24
HETATM   24  C11 UNL     1      18.073   2.555  51.022  1.00  0.00     0.291 C 
BRANCH  24  25
HETATM   25  N3  UNL     1      17.908   3.994  51.288  1.00  0.00     0.081 N 
HETATM   26  C12 UNL     1      16.523   4.151  51.685  1.00  0.00     0.309 C 
HETATM   27  C13 UNL     1      18.029   4.681  50.000  1.00  0.00     0.309 C 
ENDBRANCH  24  25
ENDBRANCH  23  24
ENDBRANCH  21  23
ENDBRANCH   8  21
BRANCH   1  28
HETATM   28  O1  UNL     1      26.189   4.174  50.204  1.00  0.00    -0.378 OA
BRANCH  28  29
HETATM   29  C2  UNL     1      26.971   4.174  49.064  1.00  0.00     0.164 C 
HETATM   30  C1  UNL     1      27.292   5.581  48.601  1.00  0.00     0.033 C 
ENDBRANCH  28  29
ENDBRANCH   1  28
TORSDOF 6
ENDMDL
MODEL 3
REMARK VINA RESULT:      -7.7      1.906      4.372
REMARK  6 active torsions:
REMARK  status: ('A' for Active; 'I' for Inactive)
REMARK    1  A    between atoms: C2_2  and  O1_3 
REMARK    2  A    between atoms: O1_3  and  C3_4 
REMARK    3  A    between atoms: C8_11  and  N2_12 
REMARK    4  A    between atoms: N2_12  and  C10_14 
REMARK    5  A    between atoms: C10_14  and  C11_15 
REMARK    6  A    between atoms: C11_15  and  N3_16 
ROOT
HETATM    1  C3  UNL     1      22.732   3.785  52.229  1.00  0.00     0.201 C 
HETATM    2  C4  UNL     1      23.764   2.667  52.190  1.00  0.00     0.071 C 
HETATM    3  C5  UNL     1      24.693   1.799  52.653  1.00  0.00     0.311 A 
HETATM    4  N1  UNL     1      25.528   0.729  52.021  1.00  0.00     0.140 N 
HETATM    5  C6  UNL     1      25.796   1.972  51.526  1.00  0.00     0.328 A 
HETATM    6  C7  UNL     1      26.232   3.161  50.863  1.00  0.00     0.088 C 
HETATM    7  O2  UNL     1      26.445   1.016  51.014  1.00  0.00    -0.146 OA
HETATM    8  C8  UNL     1      24.729   0.024  52.934  1.00  0.00     0.228 C 
HETATM    9  C14 UNL     1      23.642  -0.477  53.551  1.00  0.00     0.102 C 
HETATM   10  C15 UNL     1      22.217  -0.718  53.790  1.00  0.00    -0.011 C 
HETATM   11  C16 UNL     1      21.120  -0.364  53.237  1.00  0.00     0.028 C 
HETATM   12  C17 UNL     1      19.899  -0.035  52.709  1.00  0.00     0.059 A 
HETATM   13  C18 UNL     1      18.619  -0.222  52.306  1.00  0.00     0.034 A 
HETATM   14  C19 UNL     1      18.179   0.934  51.704  1.00  0.00     0.035 A 
HETATM   15  C20 UNL     1      19.211   1.844  51.739  1.00  0.00     0.076 A 
HETATM   16  C21 UNL     1      19.175   3.117  51.226  1.00  0.00     0.150 A 
HETATM   17  N4  UNL     1      20.336   3.830  51.366  1.00  0.00    -0.239 NA
HETATM   18  C22 UNL     1      21.361   3.203  51.985  1.00  0.00     0.175 A 
HETATM   19  N5  UNL     1      21.327   1.969  52.460  1.00  0.00    -0.149 NA
HETATM   20  N6  UNL     1      20.250   1.228  52.359  1.00  0.00    -0.231 N 
ENDROOT
BRANCH   8  21
HETATM   21  N2  UNL     1      25.960  -0.367  53.532  1.00  0.00    -0.364 N 
HETATM   22  C9  UNL     1      26.856  -1.503  53.237  1.00  0.00     0.151 C 
BRANCH  21  23
HETATM   23  C10 UNL     1      26.514   0.421  54.600  1.00  0.00     0.154 C 
BRANCH  23  24
HETATM   24  C11 UNL     1      28.002   0.217  54.758  1.00  0.00     0.291 C 
BRANCH  24  25
HETATM   25  N3  UNL     1      28.629   0.844  53.580  1.00  0.00     0.081 N 
HETATM   26  C12 UNL     1      29.986   0.337  53.558  1.00  0.00     0.309 C 
HETATM   27  C13 UNL     1      28.747   2.274  53.874  1.00  0.00     0.309 C 
ENDBRANCH  24  25
ENDBRANCH  23  24
ENDBRANCH  21  23
ENDBRANCH   8  21
BRANCH   1  28
HETATM   28  O1  UNL     1      23.067   4.773  51.330  1.00  0.00    -0.378 OA
BRANCH  28  29
HETATM   29  C2  UNL     1      23.809   5.796  51.889  1.00  0.00     0.164 C 
HETATM   30  C1  UNL     1      24.255   6.802  50.848  1.00  0.00     0.033 C 
ENDBRANCH  28  29
ENDBRANCH   1  28
TORSDOF 6
ENDMDL
MODEL 4
REMARK VINA RESULT:      -7.5      2.027      4.853
REMARK  6 active torsions:
REMARK  status: ('A' for Active; 'I' for Inactive)
REMARK    1  A    between atoms: C2_2  and  O1_3 
REMARK    2  A    between atoms: O1_3  and  C3_4 
REMARK    3  A    between atoms: C8_11  and  N2_12 
REMARK    4  A    between atoms: N2_12  and  C10_14 
REMARK    5  A    between atoms: C10_14  and  C11_15 
REMARK    6  A    between atoms: C11_15  and  N3_16 
ROOT
HETATM    1  C3  UNL     1      20.927   2.938  52.034  1.00  0.00     0.201 C 
HETATM    2  C4  UNL     1      22.274   2.233  52.103  1.00  0.00     0.071 C 
HETATM    3  C5  UNL     1      23.463   1.842  52.620  1.00  0.00     0.311 A 
HETATM    4  N1  UNL     1      24.581   0.978  52.127  1.00  0.00     0.140 N 
HETATM    5  C6  UNL     1      24.389   2.087  51.356  1.00  0.00     0.328 A 
HETATM    6  C7  UNL     1      24.367   3.160  50.412  1.00  0.00     0.088 C 
HETATM    7  O2  UNL     1      25.301   1.297  50.979  1.00  0.00    -0.146 OA
HETATM    8  C8  UNL     1      24.112   0.292  53.257  1.00  0.00     0.228 C 
HETATM    9  C14 UNL     1      23.287  -0.369  54.092  1.00  0.00     0.102 C 
HETATM   10  C15 UNL     1      22.041  -0.990  54.547  1.00  0.00    -0.011 C 
HETATM   11  C16 UNL     1      20.865  -1.146  54.070  1.00  0.00     0.028 C 
HETATM   12  C17 UNL     1      19.582  -1.359  53.639  1.00  0.00     0.059 A 
HETATM   13  C18 UNL     1      18.425  -2.035  53.442  1.00  0.00     0.034 A 
HETATM   14  C19 UNL     1      17.592  -1.257  52.671  1.00  0.00     0.035 A 
HETATM   15  C20 UNL     1      18.255  -0.084  52.390  1.00  0.00     0.076 A 
HETATM   16  C21 UNL     1      17.766   0.951  51.632  1.00  0.00     0.150 A 
HETATM   17  N4  UNL     1      18.622   2.009  51.479  1.00  0.00    -0.239 NA
HETATM   18  C22 UNL     1      19.826   1.908  52.085  1.00  0.00     0.175 A 
HETATM   19  N5  UNL     1      20.234   0.877  52.806  1.00  0.00    -0.149 NA
HETATM   20  N6  UNL     1      19.468  -0.171  52.993  1.00  0.00    -0.231 N 
ENDROOT
BRANCH   8  21
HETATM   21  N2  UNL     1      25.427   0.468  53.769  1.00  0.00    -0.364 N 
HETATM   22  C9  UNL     1      26.072   1.645  54.384  1.00  0.00     0.151 C 
BRANCH  21  23
HETATM   23  C10 UNL     1      26.353  -0.632  53.743  1.00  0.00     0.154 C 
BRANCH  23  24
HETATM   24  C11 UNL     1      27.630  -0.296  53.009  1.00  0.00     0.291 C 
BRANCH  24  25
HETATM   25  N3  UNL     1      28.728  -0.847  53.823  1.00  0.00     0.081 N 
HETATM   26  C12 UNL     1      29.843   0.055  53.616  1.00  0.00     0.309 C 
HETATM   27  C13 UNL     1      29.123  -2.113  53.201  1.00  0.00     0.309 C 
ENDBRANCH  24  25
ENDBRANCH  23  24
ENDBRANCH  21  23
ENDBRANCH   8  21
BRANCH   1  28
HETATM   28  O1  UNL     1      20.867   3.738  50.915  1.00  0.00    -0.378 OA
BRANCH  28  29
HETATM   29  C2  UNL     1      21.206   5.055  51.164  1.00  0.00     0.164 C 
HETATM   30  C1  UNL     1      20.660   5.987  50.100  1.00  0.00     0.033 C 
ENDBRANCH  28  29
ENDBRANCH   1  28
TORSDOF 6
ENDMDL
MODEL 5
REMARK VINA RESULT:      -7.3      2.229      6.136
REMARK  6 active torsions:
REMARK  status: ('A' for Active; 'I' for Inactive)
REMARK    1  A    between atoms: C2_2  and  O1_3 
REMARK    2  A    between atoms: O1_3  and  C3_4 
REMARK    3  A    between atoms: C8_11  and  N2_12 
REMARK    4  A    between atoms: N2_12  and  C10_14 
REMARK    5  A    between atoms: C10_14  and  C11_15 
REMARK    6  A    between atoms: C11_15  and  N3_16 
ROOT
HETATM    1  C3  UNL     1      22.430   0.845  52.918  1.00  0.00     0.201 C 
HETATM    2  C4  UNL     1      22.434   1.345  51.481  1.00  0.00     0.071 C 
HETATM    3  C5  UNL     1      22.350   2.229  50.458  1.00  0.00     0.311 A 
HETATM    4  N1  UNL     1      22.458   2.114  48.970  1.00  0.00     0.140 N 
HETATM    5  C6  UNL     1      21.411   1.405  49.481  1.00  0.00     0.328 A 
HETATM    6  C7  UNL     1      20.274   0.594  49.788  1.00  0.00     0.088 C 
HETATM    7  O2  UNL     1      21.579   1.328  48.231  1.00  0.00    -0.146 OA
HETATM    8  C8  UNL     1      23.534   2.947  49.313  1.00  0.00     0.228 C 
HETATM    9  C14 UNL     1      24.679   3.379  49.875  1.00  0.00     0.102 C 
HETATM   10  C15 UNL     1      25.890   3.309  50.696  1.00  0.00    -0.011 C 
HETATM   11  C16 UNL     1      26.447   2.429  51.439  1.00  0.00     0.028 C 
HETATM   12  C17 UNL     1      27.110   1.550  52.253  1.00  0.00     0.059 A 
HETATM   13  C18 UNL     1      28.172   0.901  52.792  1.00  0.00     0.034 A 
HETATM   14  C19 UNL     1      27.700  -0.062  53.654  1.00  0.00     0.035 A 
HETATM   15  C20 UNL     1      26.325  -0.001  53.639  1.00  0.00     0.076 A 
HETATM   16  C21 UNL     1      25.479  -0.811  54.356  1.00  0.00     0.150 A 
HETATM   17  N4  UNL     1      24.145  -0.570  54.161  1.00  0.00    -0.239 NA
HETATM   18  C22 UNL     1      23.828   0.421  53.299  1.00  0.00     0.175 A 
HETATM   19  N5  UNL     1      24.698   1.167  52.639  1.00  0.00    -0.149 NA
HETATM   20  N6  UNL     1      25.990   0.992  52.776  1.00  0.00    -0.231 N 
ENDROOT
BRANCH   8  21
HETATM   21  N2  UNL     1      22.906   3.911  48.476  1.00  0.00    -0.364 N 
HETATM   22  C9  UNL     1      22.264   3.765  47.154  1.00  0.00     0.151 C 
BRANCH  21  23
HETATM   23  C10 UNL     1      22.817   5.279  48.909  1.00  0.00     0.154 C 
BRANCH  23  24
HETATM   24  C11 UNL     1      21.482   5.600  49.540  1.00  0.00     0.291 C 
BRANCH  24  25
HETATM   25  N3  UNL     1      21.780   6.373  50.759  1.00  0.00     0.081 N 
HETATM   26  C12 UNL     1      23.064   6.997  50.508  1.00  0.00     0.309 C 
HETATM   27  C13 UNL     1      22.017   5.401  51.830  1.00  0.00     0.309 C 
ENDBRANCH  24  25
ENDBRANCH  23  24
ENDBRANCH  21  23
ENDBRANCH   8  21
BRANCH   1  28
HETATM   28  O1  UNL     1      21.502  -0.162  53.067  1.00  0.00    -0.378 OA
BRANCH  28  29
HETATM   29  C2  UNL     1      20.297   0.276  53.583  1.00  0.00     0.164 C 
HETATM   30  C1  UNL     1      19.154  -0.643  53.199  1.00  0.00     0.033 C 
ENDBRANCH  28  29
ENDBRANCH   1  28
TORSDOF 6
ENDMDL
MODEL 6
REMARK VINA RESULT:      -7.2      2.942      7.704
REMARK  6 active torsions:
REMARK  status: ('A' for Active; 'I' for Inactive)
REMARK    1  A    between atoms: C2_2  and  O1_3 
REMARK    2  A    between atoms: O1_3  and  C3_4 
REMARK    3  A    between atoms: C8_11  and  N2_12 
REMARK    4  A    between atoms: N2_12  and  C10_14 
REMARK    5  A    between atoms: C10_14  and  C11_15 
REMARK    6  A    between atoms: C11_15  and  N3_16 
ROOT
HETATM    1  C3  UNL     1      24.449   2.031  51.399  1.00  0.00     0.201 C 
HETATM    2  C4  UNL     1      23.258   2.951  51.173  1.00  0.00     0.071 C 
HETATM    3  C5  UNL     1      22.218   3.524  50.521  1.00  0.00     0.311 A 
HETATM    4  N1  UNL     1      21.216   4.576  50.877  1.00  0.00     0.140 N 
HETATM    5  C6  UNL     1      22.497   5.045  50.873  1.00  0.00     0.328 A 
HETATM    6  C7  UNL     1      23.741   5.746  50.937  1.00  0.00     0.088 C 
HETATM    7  O2  UNL     1      21.600   5.875  51.195  1.00  0.00    -0.146 OA
HETATM    8  C8  UNL     1      20.430   3.431  50.675  1.00  0.00     0.228 C 
HETATM    9  C14 UNL     1      19.935   2.187  50.817  1.00  0.00     0.102 C 
HETATM   10  C15 UNL     1      19.805   0.842  51.384  1.00  0.00    -0.011 C 
HETATM   11  C16 UNL     1      20.379   0.178  52.313  1.00  0.00     0.028 C 
HETATM   12  C17 UNL     1      20.938  -0.606  53.287  1.00  0.00     0.059 A 
HETATM   13  C18 UNL     1      20.975  -1.499  54.306  1.00  0.00     0.034 A 
HETATM   14  C19 UNL     1      22.270  -1.583  54.764  1.00  0.00     0.035 A 
HETATM   15  C20 UNL     1      23.038  -0.723  54.011  1.00  0.00     0.076 A 
HETATM   16  C21 UNL     1      24.385  -0.507  54.166  1.00  0.00     0.150 A 
HETATM   17  N4  UNL     1      24.925   0.412  53.306  1.00  0.00    -0.239 NA
HETATM   18  C22 UNL     1      24.079   0.984  52.421  1.00  0.00     0.175 A 
HETATM   19  N5  UNL     1      22.786   0.727  52.324  1.00  0.00    -0.149 NA
HETATM   20  N6  UNL     1      22.200  -0.140  53.116  1.00  0.00    -0.231 N 
ENDROOT
BRANCH   8  21
HETATM   21  N2  UNL     1      19.796   4.188  49.650  1.00  0.00    -0.364 N 
HETATM   22  C9  UNL     1      18.910   5.367  49.732  1.00  0.00     0.151 C 
BRANCH  21  23
HETATM   23  C10 UNL     1      20.004   3.834  48.272  1.00  0.00     0.154 C 
BRANCH  23  24
HETATM   24  C11 UNL     1      20.367   5.025  47.417  1.00  0.00     0.291 C 
BRANCH  24  25
HETATM   25  N3  UNL     1      21.060   4.484  46.235  1.00  0.00     0.081 N 
HETATM   26  C12 UNL     1      21.861   3.384  46.734  1.00  0.00     0.309 C 
HETATM   27  C13 UNL     1      22.018   5.505  45.801  1.00  0.00     0.309 C 
ENDBRANCH  24  25
ENDBRANCH  23  24
ENDBRANCH  21  23
ENDBRANCH   8  21
BRANCH   1  28
HETATM   28  O1  UNL     1      25.556   2.768  51.757  1.00  0.00    -0.378 OA
BRANCH  28  29
HETATM   29  C2  UNL     1      26.636   2.578  50.917  1.00  0.00     0.164 C 
HETATM   30  C1  UNL     1      26.528   3.421  49.661  1.00  0.00     0.033 C 
ENDBRANCH  28  29
ENDBRANCH   1  28
TORSDOF 6
ENDMDL
MODEL 7
REMARK VINA RESULT:      -7.0      4.239      7.070
REMARK  6 active torsions:
REMARK  status: ('A' for Active; 'I' for Inactive)
REMARK    1  A    between atoms: C2_2  and  O1_3 
REMARK    2  A    between atoms: O1_3  and  C3_4 
REMARK    3  A    between atoms: C8_11  and  N2_12 
REMARK    4  A    between atoms: N2_12  and  C10_14 
REMARK    5  A    between atoms: C10_14  and  C11_15 
REMARK    6  A    between atoms: C11_15  and  N3_16 
ROOT
HETATM    1  C3  UNL     1      23.722   7.026  48.074  1.00  0.00     0.201 C 
HETATM    2  C4  UNL     1      23.565   6.090  49.264  1.00  0.00     0.071 C 
HETATM    3  C5  UNL     1      23.289   4.947  49.935  1.00  0.00     0.311 A 
HETATM    4  N1  UNL     1      23.325   4.550  51.377  1.00  0.00     0.140 N 
HETATM    5  C6  UNL     1      22.427   5.546  51.125  1.00  0.00     0.328 A 
HETATM    6  C7  UNL     1      21.446   6.585  51.097  1.00  0.00     0.088 C 
HETATM    7  O2  UNL     1      22.531   5.182  52.330  1.00  0.00    -0.146 OA
HETATM    8  C8  UNL     1      24.282   3.713  50.784  1.00  0.00     0.228 C 
HETATM    9  C14 UNL     1      25.380   3.310  50.117  1.00  0.00     0.102 C 
HETATM   10  C15 UNL     1      26.635   3.448  49.374  1.00  0.00    -0.011 C 
HETATM   11  C16 UNL     1      27.360   4.419  48.968  1.00  0.00     0.028 C 
HETATM   12  C17 UNL     1      28.195   5.397  48.497  1.00  0.00     0.059 A 
HETATM   13  C18 UNL     1      29.371   6.006  48.210  1.00  0.00     0.034 A 
HETATM   14  C19 UNL     1      29.102   7.261  47.714  1.00  0.00     0.035 A 
HETATM   15  C20 UNL     1      27.734   7.421  47.699  1.00  0.00     0.076 A 
HETATM   16  C21 UNL     1      27.064   8.546  47.286  1.00  0.00     0.150 A 
HETATM   17  N4  UNL     1      25.700   8.473  47.382  1.00  0.00    -0.239 NA
HETATM   18  C22 UNL     1      25.187   7.320  47.864  1.00  0.00     0.175 A 
HETATM   19  N5  UNL     1      25.894   6.269  48.244  1.00  0.00    -0.149 NA
HETATM   20  N6  UNL     1      27.204   6.269  48.182  1.00  0.00    -0.231 N 
ENDROOT
BRANCH   8  21
HETATM   21  N2  UNL     1      23.467   2.643  51.250  1.00  0.00    -0.364 N 
HETATM   22  C9  UNL     1      22.435   1.847  50.557  1.00  0.00     0.151 C 
BRANCH  21  23
HETATM   23  C10 UNL     1      23.611   2.178  52.603  1.00  0.00     0.154 C 
BRANCH  23  24
HETATM   24  C11 UNL     1      24.008   0.722  52.675  1.00  0.00     0.291 C 
BRANCH  24  25
HETATM   25  N3  UNL     1      25.377   0.697  53.221  1.00  0.00     0.081 N 
HETATM   26  C12 UNL     1      26.227   0.359  52.098  1.00  0.00     0.309 C 
HETATM   27  C13 UNL     1      25.449  -0.449  54.131  1.00  0.00     0.309 C 
ENDBRANCH  24  25
ENDBRANCH  23  24
ENDBRANCH  21  23
ENDBRANCH   8  21
BRANCH   1  28
HETATM   28  O1  UNL     1      22.965   8.162  48.262  1.00  0.00    -0.378 OA
BRANCH  28  29
HETATM   29  C2  UNL     1      22.179   8.484  47.172  1.00  0.00     0.164 C 
HETATM   30  C1  UNL     1      22.115   9.982  46.947  1.00  0.00     0.033 C 
ENDBRANCH  28  29
ENDBRANCH   1  28
TORSDOF 6
ENDMDL
MODEL 8
REMARK VINA RESULT:      -6.9      2.915      6.771
REMARK  6 active torsions:
REMARK  status: ('A' for Active; 'I' for Inactive)
REMARK    1  A    between atoms: C2_2  and  O1_3 
REMARK    2  A    between atoms: O1_3  and  C3_4 
REMARK    3  A    between atoms: C8_11  and  N2_12 
REMARK    4  A    between atoms: N2_12  and  C10_14 
REMARK    5  A    between atoms: C10_14  and  C11_15 
REMARK    6  A    between atoms: C11_15  and  N3_16 
ROOT
HETATM    1  C3  UNL     1      22.218   0.754  53.047  1.00  0.00     0.201 C 
HETATM    2  C4  UNL     1      22.120   1.333  51.643  1.00  0.00     0.071 C 
HETATM    3  C5  UNL     1      21.948   2.269  50.679  1.00  0.00     0.311 A 
HETATM    4  N1  UNL     1      21.968   2.240  49.184  1.00  0.00     0.140 N 
HETATM    5  C6  UNL     1      20.973   1.472  49.715  1.00  0.00     0.328 A 
HETATM    6  C7  UNL     1      19.880   0.611  50.042  1.00  0.00     0.088 C 
HETATM    7  O2  UNL     1      21.066   1.470  48.454  1.00  0.00    -0.146 OA
HETATM    8  C8  UNL     1      23.040   3.085  49.508  1.00  0.00     0.228 C 
HETATM    9  C14 UNL     1      24.205   3.520  50.025  1.00  0.00     0.102 C 
HETATM   10  C15 UNL     1      25.466   3.442  50.766  1.00  0.00    -0.011 C 
HETATM   11  C16 UNL     1      26.091   2.540  51.423  1.00  0.00     0.028 C 
HETATM   12  C17 UNL     1      26.827   1.637  52.144  1.00  0.00     0.059 A 
HETATM   13  C18 UNL     1      27.936   0.993  52.580  1.00  0.00     0.034 A 
HETATM   14  C19 UNL     1      27.545  -0.030  53.412  1.00  0.00     0.035 A 
HETATM   15  C20 UNL     1      26.170  -0.011  53.483  1.00  0.00     0.076 A 
HETATM   16  C21 UNL     1      25.393  -0.885  54.203  1.00  0.00     0.150 A 
HETATM   17  N4  UNL     1      24.044  -0.674  54.102  1.00  0.00    -0.239 NA
HETATM   18  C22 UNL     1      23.647   0.353  53.319  1.00  0.00     0.175 A 
HETATM   19  N5  UNL     1      24.454   1.161  52.652  1.00  0.00    -0.149 NA
HETATM   20  N6  UNL     1      25.757   1.017  52.700  1.00  0.00    -0.231 N 
ENDROOT
BRANCH   8  21
HETATM   21  N2  UNL     1      22.335   4.074  48.767  1.00  0.00    -0.364 N 
HETATM   22  C9  UNL     1      21.420   5.142  49.214  1.00  0.00     0.151 C 
BRANCH  21  23
HETATM   23  C10 UNL     1      22.488   4.135  47.338  1.00  0.00     0.154 C 
BRANCH  23  24
HETATM   24  C11 UNL     1      22.290   5.530  46.793  1.00  0.00     0.291 C 
BRANCH  24  25
HETATM   25  N3  UNL     1      21.794   5.365  45.416  1.00  0.00     0.081 N 
HETATM   26  C12 UNL     1      20.459   5.931  45.422  1.00  0.00     0.309 C 
HETATM   27  C13 UNL     1      21.612   3.928  45.200  1.00  0.00     0.309 C 
ENDBRANCH  24  25
ENDBRANCH  23  24
ENDBRANCH  21  23
ENDBRANCH   8  21
BRANCH   1  28
HETATM   28  O1  UNL     1      21.328  -0.287  53.194  1.00  0.00    -0.378 OA
BRANCH  28  29
HETATM   29  C2  UNL     1      20.071   0.119  53.599  1.00  0.00     0.164 C 
HETATM   30  C1  UNL     1      19.015  -0.923  53.288  1.00  0.00     0.033 C 
ENDBRANCH  28  29
ENDBRANCH   1  28
TORSDOF 6
ENDMDL
MODEL 9
REMARK VINA RESULT:      -6.9      7.777     10.892
REMARK  6 active torsions:
REMARK  status: ('A' for Active; 'I' for Inactive)
REMARK    1  A    between atoms: C2_2  and  O1_3 
REMARK    2  A    between atoms: O1_3  and  C3_4 
REMARK    3  A    between atoms: C8_11  and  N2_12 
REMARK    4  A    between atoms: N2_12  and  C10_14 
REMARK    5  A    between atoms: C10_14  and  C11_15 
REMARK    6  A    between atoms: C11_15  and  N3_16 
ROOT
HETATM    1  C3  UNL     1      29.215   5.929  48.005  1.00  0.00     0.201 C 
HETATM    2  C4  UNL     1      29.367   7.392  48.396  1.00  0.00     0.071 C 
HETATM    3  C5  UNL     1      29.449   8.734  48.233  1.00  0.00     0.311 A 
HETATM    4  N1  UNL     1      29.638   9.887  49.168  1.00  0.00     0.140 N 
HETATM    5  C6  UNL     1      30.701   9.031  49.161  1.00  0.00     0.328 A 
HETATM    6  C7  UNL     1      31.906   8.281  49.322  1.00  0.00     0.088 C 
HETATM    7  O2  UNL     1      30.781  10.014  49.952  1.00  0.00    -0.146 OA
HETATM    8  C8  UNL     1      28.368  10.117  48.617  1.00  0.00     0.228 C 
HETATM    9  C14 UNL     1      27.076   9.939  48.283  1.00  0.00     0.102 C 
HETATM   10  C15 UNL     1      25.778   9.263  48.222  1.00  0.00    -0.011 C 
HETATM   11  C16 UNL     1      25.292   8.166  48.664  1.00  0.00     0.028 C 
HETATM   12  C17 UNL     1      24.691   7.014  49.097  1.00  0.00     0.059 A 
HETATM   13  C18 UNL     1      23.709   6.231  49.607  1.00  0.00     0.034 A 
HETATM   14  C19 UNL     1      24.207   4.959  49.768  1.00  0.00     0.035 A 
HETATM   15  C20 UNL     1      25.519   4.966  49.350  1.00  0.00     0.076 A 
HETATM   16  C21 UNL     1      26.370   3.889  49.366  1.00  0.00     0.150 A 
HETATM   17  N4  UNL     1      27.637   4.149  48.915  1.00  0.00    -0.239 NA
HETATM   18  C22 UNL     1      27.892   5.414  48.515  1.00  0.00     0.175 A 
HETATM   19  N5  UNL     1      27.019   6.408  48.525  1.00  0.00    -0.149 NA
HETATM   20  N6  UNL     1      25.789   6.233  48.945  1.00  0.00    -0.231 N 
ENDROOT
BRANCH   8  21
HETATM   21  N2  UNL     1      28.922  11.338  48.140  1.00  0.00    -0.364 N 
HETATM   22  C9  UNL     1      29.295  12.572  48.859  1.00  0.00     0.151 C 
BRANCH  21  23
HETATM   23  C10 UNL     1      29.219  11.484  46.741  1.00  0.00     0.154 C 
BRANCH  23  24
HETATM   24  C11 UNL     1      30.553  12.152  46.499  1.00  0.00     0.291 C 
BRANCH  24  25
HETATM   25  N3  UNL     1      31.522  11.064  46.279  1.00  0.00     0.081 N 
HETATM   26  C12 UNL     1      32.669  11.407  47.096  1.00  0.00     0.309 C 
HETATM   27  C13 UNL     1      31.977  11.176  44.891  1.00  0.00     0.309 C 
ENDBRANCH  24  25
ENDBRANCH  23  24
ENDBRANCH  21  23
ENDBRANCH   8  21
BRANCH   1  28
HETATM   28  O1  UNL     1      30.290   5.201  48.464  1.00  0.00    -0.378 OA
BRANCH  28  29
HETATM   29  C2  UNL     1      31.375   5.225  47.608  1.00  0.00     0.164 C 
HETATM   30  C1  UNL     1      31.725   3.839  47.104  1.00  0.00     0.033 C 
ENDBRANCH  28  29
ENDBRANCH   1  28
TORSDOF 6
ENDMDL
