MODEL 1
REMARK VINA RESULT:      -8.1      0.000      0.000
REMARK  1 active torsions:
REMARK  status: ('A' for Active; 'I' for Inactive)
REMARK    1  A    between atoms: C6_10  and  C7_11 
ROOT
HETATM    1 CL1  UNL     1      29.458   1.304  54.672  1.00  0.00    -0.089 Cl
HETATM    2  C1  UNL     1      27.879   1.277  53.908  1.00  0.00     0.012 C 
HETATM    3  C2  UNL     1      26.963   2.202  54.015  1.00  0.00     0.012 C 
HETATM    4  C3  UNL     1      25.653   2.081  53.324  1.00  0.00     0.154 C 
HETATM    5  N1  UNL     1      25.703   1.372  52.080  1.00  0.00    -0.352 N 
HETATM    6  C4  UNL     1      25.218   2.209  51.059  1.00  0.00     0.156 C 
HETATM    7  N2  UNL     1      26.400   2.366  50.568  1.00  0.00    -0.132 NA
HETATM    8  N3  UNL     1      26.514   3.220  49.423  1.00  0.00    -0.164 NA
HETATM    9  C5  UNL     1      25.365   3.745  49.056  1.00  0.00     0.128 C 
HETATM   10  C6  UNL     1      23.961   3.680  49.543  1.00  0.00     0.098 C 
HETATM   11  C12 UNL     1      23.933   2.684  50.643  1.00  0.00     0.003 C 
HETATM   12  C13 UNL     1      22.804   2.204  51.110  1.00  0.00     0.012 C 
HETATM   13  C14 UNL     1      22.329   1.186  52.038  1.00  0.00     0.001 C 
HETATM   14  C15 UNL     1      22.720   0.198  52.852  1.00  0.00    -0.000 C 
HETATM   15  C16 UNL     1      23.888  -0.545  53.358  1.00  0.00    -0.002 C 
HETATM   16  C17 UNL     1      25.207  -0.605  53.216  1.00  0.00    -0.001 C 
HETATM   17  C18 UNL     1      26.243   0.110  52.403  1.00  0.00     0.114 C 
HETATM   18  C19 UNL     1      27.558   0.118  53.079  1.00  0.00     0.080 C 
ENDROOT
BRANCH  10  19
HETATM   19  C7  UNL     1      23.665   5.056  50.042  1.00  0.00    -0.042 A 
HETATM   20  C8  UNL     1      22.417   5.505  49.678  1.00  0.00     0.027 A 
HETATM   21  C9  UNL     1      22.045   6.786  50.097  1.00  0.00     0.116 A 
HETATM   22  N4  UNL     1      22.855   7.582  50.834  1.00  0.00    -0.273 NA
HETATM   23  C10 UNL     1      24.089   7.116  51.184  1.00  0.00     0.116 A 
HETATM   24  C11 UNL     1      24.486   5.872  50.793  1.00  0.00     0.027 A 
ENDBRANCH  10  19
TORSDOF 1
ENDMDL
MODEL 2
REMARK VINA RESULT:      -8.1      3.563      6.519
REMARK  1 active torsions:
REMARK  status: ('A' for Active; 'I' for Inactive)
REMARK    1  A    between atoms: C6_10  and  C7_11 
ROOT
HETATM    1 CL1  UNL     1      21.980   3.728  45.538  1.00  0.00    -0.089 Cl
HETATM    2  C1  UNL     1      21.668   3.051  47.126  1.00  0.00     0.012 C 
HETATM    3  C2  UNL     1      22.262   2.008  47.642  1.00  0.00     0.012 C 
HETATM    4  C3  UNL     1      21.921   1.515  49.002  1.00  0.00     0.154 C 
HETATM    5  N1  UNL     1      21.514   2.538  49.919  1.00  0.00    -0.352 N 
HETATM    6  C4  UNL     1      22.369   2.514  51.035  1.00  0.00     0.156 C 
HETATM    7  N2  UNL     1      22.942   3.611  50.674  1.00  0.00    -0.132 NA
HETATM    8  N3  UNL     1      24.004   4.089  51.510  1.00  0.00    -0.164 NA
HETATM    9  C5  UNL     1      24.251   3.298  52.531  1.00  0.00     0.128 C 
HETATM   10  C6  UNL     1      23.704   2.011  53.038  1.00  0.00     0.098 C 
HETATM   11  C12 UNL     1      22.541   1.671  52.180  1.00  0.00     0.003 C 
HETATM   12  C13 UNL     1      21.685   0.735  52.519  1.00  0.00     0.012 C 
HETATM   13  C14 UNL     1      20.412   0.181  52.076  1.00  0.00     0.001 C 
HETATM   14  C15 UNL     1      19.431   0.313  51.175  1.00  0.00    -0.000 C 
HETATM   15  C16 UNL     1      18.956   1.109  50.029  1.00  0.00    -0.002 C 
HETATM   16  C17 UNL     1      19.293   2.170  49.305  1.00  0.00    -0.001 C 
HETATM   17  C18 UNL     1      20.414   3.165  49.299  1.00  0.00     0.114 C 
HETATM   18  C19 UNL     1      20.653   3.710  47.945  1.00  0.00     0.080 C 
ENDROOT
BRANCH  10  19
HETATM   19  C7  UNL     1      24.816   1.030  52.869  1.00  0.00    -0.042 A 
HETATM   20  C8  UNL     1      24.827   0.054  53.839  1.00  0.00     0.027 A 
HETATM   21  C9  UNL     1      25.833  -0.914  53.768  1.00  0.00     0.116 A 
HETATM   22  N4  UNL     1      26.777  -0.923  52.798  1.00  0.00    -0.273 NA
HETATM   23  C10 UNL     1      26.747   0.055  51.846  1.00  0.00     0.116 A 
HETATM   24  C11 UNL     1      25.781   1.015  51.883  1.00  0.00     0.027 A 
ENDBRANCH  10  19
TORSDOF 1
ENDMDL
MODEL 3
REMARK VINA RESULT:      -7.9      3.250      4.752
REMARK  1 active torsions:
REMARK  status: ('A' for Active; 'I' for Inactive)
REMARK    1  A    between atoms: C6_10  and  C7_11 
ROOT
HETATM    1 CL1  UNL     1      26.451   6.735  48.671  1.00  0.00    -0.089 Cl
HETATM    2  C1  UNL     1      25.846   5.329  49.528  1.00  0.00     0.012 C 
HETATM    3  C2  UNL     1      24.820   5.310  50.337  1.00  0.00     0.012 C 
HETATM    4  C3  UNL     1      24.389   4.060  51.015  1.00  0.00     0.154 C 
HETATM    5  N1  UNL     1      24.634   2.864  50.265  1.00  0.00    -0.352 N 
HETATM    6  C4  UNL     1      23.415   2.190  50.074  1.00  0.00     0.156 C 
HETATM    7  N2  UNL     1      23.388   2.502  48.824  1.00  0.00    -0.132 NA
HETATM    8  N3  UNL     1      22.254   2.054  48.071  1.00  0.00    -0.164 NA
HETATM    9  C5  UNL     1      21.380   1.395  48.800  1.00  0.00     0.128 C 
HETATM   10  C6  UNL     1      21.268   1.001  50.231  1.00  0.00     0.098 C 
HETATM   11  C12 UNL     1      22.537   1.403  50.887  1.00  0.00     0.003 C 
HETATM   12  C13 UNL     1      22.862   0.967  52.083  1.00  0.00     0.012 C 
HETATM   13  C14 UNL     1      23.988   0.998  53.008  1.00  0.00     0.001 C 
HETATM   14  C15 UNL     1      25.254   1.407  53.156  1.00  0.00    -0.000 C 
HETATM   15  C16 UNL     1      26.378   2.090  52.492  1.00  0.00    -0.002 C 
HETATM   16  C17 UNL     1      26.699   2.647  51.330  1.00  0.00    -0.001 C 
HETATM   17  C18 UNL     1      26.021   2.871  50.012  1.00  0.00     0.114 C 
HETATM   18  C19 UNL     1      26.551   4.066  49.321  1.00  0.00     0.080 C 
ENDROOT
BRANCH  10  19
HETATM   19  C7  UNL     1      20.109   1.784  50.753  1.00  0.00    -0.042 A 
HETATM   20  C8  UNL     1      18.995   1.010  50.982  1.00  0.00     0.027 A 
HETATM   21  C9  UNL     1      17.854   1.651  51.472  1.00  0.00     0.116 A 
HETATM   22  N4  UNL     1      17.809   2.981  51.725  1.00  0.00    -0.273 NA
HETATM   23  C10 UNL     1      18.927   3.729  51.491  1.00  0.00     0.116 A 
HETATM   24  C11 UNL     1      20.057   3.138  51.013  1.00  0.00     0.027 A 
ENDBRANCH  10  19
TORSDOF 1
ENDMDL
MODEL 4
REMARK VINA RESULT:      -7.7      6.906      9.731
REMARK  1 active torsions:
REMARK  status: ('A' for Active; 'I' for Inactive)
REMARK    1  A    between atoms: C6_10  and  C7_11 
ROOT
HETATM    1 CL1  UNL     1      28.654  12.895  47.541  1.00  0.00    -0.089 Cl
HETATM    2  C1  UNL     1      28.593  11.170  47.857  1.00  0.00     0.012 C 
HETATM    3  C2  UNL     1      28.818  10.226  46.984  1.00  0.00     0.012 C 
HETATM    4  C3  UNL     1      28.740   8.789  47.357  1.00  0.00     0.154 C 
HETATM    5  N1  UNL     1      29.109   8.508  48.712  1.00  0.00    -0.352 N 
HETATM    6  C4  UNL     1      30.172   7.587  48.712  1.00  0.00     0.156 C 
HETATM    7  N2  UNL     1      31.012   8.492  49.083  1.00  0.00    -0.132 NA
HETATM    8  N3  UNL     1      32.377   8.082  49.233  1.00  0.00    -0.164 NA
HETATM    9  C5  UNL     1      32.569   6.815  48.938  1.00  0.00     0.128 C 
HETATM   10  C6  UNL     1      31.715   5.689  48.473  1.00  0.00     0.098 C 
HETATM   11  C12 UNL     1      30.316   6.184  48.468  1.00  0.00     0.003 C 
HETATM   12  C13 UNL     1      29.296   5.365  48.357  1.00  0.00     0.012 C 
HETATM   13  C14 UNL     1      27.840   5.389  48.423  1.00  0.00     0.001 C 
HETATM   14  C15 UNL     1      26.782   6.174  48.659  1.00  0.00    -0.000 C 
HETATM   15  C16 UNL     1      26.360   7.537  49.025  1.00  0.00    -0.002 C 
HETATM   16  C17 UNL     1      26.872   8.721  49.340  1.00  0.00    -0.001 C 
HETATM   17  C18 UNL     1      28.246   9.300  49.496  1.00  0.00     0.114 C 
HETATM   18  C19 UNL     1      28.260  10.752  49.217  1.00  0.00     0.080 C 
ENDROOT
BRANCH  10  19
HETATM   19  C7  UNL     1      32.196   5.390  47.091  1.00  0.00    -0.042 A 
HETATM   20  C8  UNL     1      32.481   4.059  46.895  1.00  0.00     0.027 A 
HETATM   21  C9  UNL     1      32.940   3.677  45.631  1.00  0.00     0.116 A 
HETATM   22  N4  UNL     1      33.109   4.555  44.614  1.00  0.00    -0.273 NA
HETATM   23  C10 UNL     1      32.820   5.871  44.832  1.00  0.00     0.116 A 
HETATM   24  C11 UNL     1      32.371   6.280  46.051  1.00  0.00     0.027 A 
ENDBRANCH  10  19
TORSDOF 1
ENDMDL
MODEL 5
REMARK VINA RESULT:      -7.7      2.876      4.391
REMARK  1 active torsions:
REMARK  status: ('A' for Active; 'I' for Inactive)
REMARK    1  A    between atoms: C6_10  and  C7_11 
ROOT
HETATM    1 CL1  UNL     1      20.053  -0.528  52.887  1.00  0.00    -0.089 Cl
HETATM    2  C1  UNL     1      21.471   0.391  52.412  1.00  0.00     0.012 C 
HETATM    3  C2  UNL     1      21.781   0.738  51.192  1.00  0.00     0.012 C 
HETATM    4  C3  UNL     1      23.011   1.519  50.896  1.00  0.00     0.154 C 
HETATM    5  N1  UNL     1      23.405   2.420  51.938  1.00  0.00    -0.352 N 
HETATM    6  C4  UNL     1      23.460   3.724  51.415  1.00  0.00     0.156 C 
HETATM    7  N2  UNL     1      22.395   4.070  52.054  1.00  0.00    -0.132 NA
HETATM    8  N3  UNL     1      21.933   5.413  51.858  1.00  0.00    -0.164 NA
HETATM    9  C5  UNL     1      22.676   6.095  51.013  1.00  0.00     0.128 C 
HETATM   10  C6  UNL     1      23.886   5.814  50.194  1.00  0.00     0.098 C 
HETATM   11  C12 UNL     1      24.348   4.452  50.561  1.00  0.00     0.003 C 
HETATM   12  C13 UNL     1      25.533   4.009  50.210  1.00  0.00     0.012 C 
HETATM   13  C14 UNL     1      26.401   2.861  50.438  1.00  0.00     0.001 C 
HETATM   14  C15 UNL     1      26.516   1.709  51.110  1.00  0.00    -0.000 C 
HETATM   15  C16 UNL     1      25.859   0.821  52.085  1.00  0.00    -0.002 C 
HETATM   16  C17 UNL     1      24.765   0.749  52.834  1.00  0.00    -0.001 C 
HETATM   17  C18 UNL     1      23.562   1.608  53.080  1.00  0.00     0.114 C 
HETATM   18  C19 UNL     1      22.387   0.802  53.473  1.00  0.00     0.080 C 
ENDROOT
BRANCH  10  19
HETATM   19  C7  UNL     1      23.410   5.870  48.780  1.00  0.00    -0.042 A 
HETATM   20  C8  UNL     1      23.817   7.005  48.118  1.00  0.00     0.027 A 
HETATM   21  C9  UNL     1      23.421   7.151  46.785  1.00  0.00     0.116 A 
HETATM   22  N4  UNL     1      22.667   6.231  46.137  1.00  0.00    -0.273 NA
HETATM   23  C10 UNL     1      22.275   5.113  46.814  1.00  0.00     0.116 A 
HETATM   24  C11 UNL     1      22.642   4.936  48.114  1.00  0.00     0.027 A 
ENDBRANCH  10  19
TORSDOF 1
ENDMDL
MODEL 6
REMARK VINA RESULT:      -7.6      2.859      6.295
REMARK  1 active torsions:
REMARK  status: ('A' for Active; 'I' for Inactive)
REMARK    1  A    between atoms: C6_10  and  C7_11 
ROOT
HETATM    1 CL1  UNL     1      26.317   8.240  48.522  1.00  0.00    -0.089 Cl
HETATM    2  C1  UNL     1      25.305   6.816  48.686  1.00  0.00     0.012 C 
HETATM    3  C2  UNL     1      25.730   5.584  48.777  1.00  0.00     0.012 C 
HETATM    4  C3  UNL     1      24.784   4.445  48.913  1.00  0.00     0.154 C 
HETATM    5  N1  UNL     1      23.576   4.759  49.616  1.00  0.00    -0.352 N 
HETATM    6  C4  UNL     1      23.458   3.900  50.723  1.00  0.00     0.156 C 
HETATM    7  N2  UNL     1      23.724   4.856  51.547  1.00  0.00    -0.132 NA
HETATM    8  N3  UNL     1      23.764   4.515  52.938  1.00  0.00    -0.164 NA
HETATM    9  C5  UNL     1      23.541   3.239  53.163  1.00  0.00     0.128 C 
HETATM   10  C6  UNL     1      23.262   2.044  52.322  1.00  0.00     0.098 C 
HETATM   11  C12 UNL     1      23.121   2.524  50.925  1.00  0.00     0.003 C 
HETATM   12  C13 UNL     1      22.620   1.761  49.981  1.00  0.00     0.012 C 
HETATM   13  C14 UNL     1      22.206   1.846  48.587  1.00  0.00     0.001 C 
HETATM   14  C15 UNL     1      22.062   2.682  47.551  1.00  0.00    -0.000 C 
HETATM   15  C16 UNL     1      22.206   4.082  47.113  1.00  0.00    -0.002 C 
HETATM   16  C17 UNL     1      22.554   5.274  47.582  1.00  0.00    -0.001 C 
HETATM   17  C18 UNL     1      23.005   5.831  48.899  1.00  0.00     0.114 C 
HETATM   18  C19 UNL     1      23.860   7.025  48.722  1.00  0.00     0.080 C 
ENDROOT
BRANCH  10  19
HETATM   19  C7  UNL     1      24.464   1.173  52.485  1.00  0.00    -0.042 A 
HETATM   20  C8  UNL     1      24.226   0.065  53.264  1.00  0.00     0.027 A 
HETATM   21  C9  UNL     1      25.292  -0.814  53.477  1.00  0.00     0.116 A 
HETATM   22  N4  UNL     1      26.525  -0.616  52.953  1.00  0.00    -0.273 NA
HETATM   23  C10 UNL     1      26.738   0.491  52.183  1.00  0.00     0.116 A 
HETATM   24  C11 UNL     1      25.723   1.370  51.953  1.00  0.00     0.027 A 
ENDBRANCH  10  19
TORSDOF 1
ENDMDL
MODEL 7
REMARK VINA RESULT:      -7.5      3.795      7.300
REMARK  1 active torsions:
REMARK  status: ('A' for Active; 'I' for Inactive)
REMARK    1  A    between atoms: C6_10  and  C7_11 
ROOT
HETATM    1 CL1  UNL     1      21.745  10.140  48.655  1.00  0.00    -0.089 Cl
HETATM    2  C1  UNL     1      23.047   8.967  48.571  1.00  0.00     0.012 C 
HETATM    3  C2  UNL     1      23.678   8.452  49.592  1.00  0.00     0.012 C 
HETATM    4  C3  UNL     1      24.771   7.461  49.410  1.00  0.00     0.154 C 
HETATM    5  N1  UNL     1      24.623   6.621  48.259  1.00  0.00    -0.352 N 
HETATM    6  C4  UNL     1      24.609   5.278  48.676  1.00  0.00     0.156 C 
HETATM    7  N2  UNL     1      23.348   5.170  48.432  1.00  0.00    -0.132 NA
HETATM    8  N3  UNL     1      22.741   3.904  48.720  1.00  0.00    -0.164 NA
HETATM    9  C5  UNL     1      23.586   3.032  49.225  1.00  0.00     0.128 C 
HETATM   10  C6  UNL     1      25.029   3.033  49.585  1.00  0.00     0.098 C 
HETATM   11  C12 UNL     1      25.583   4.335  49.138  1.00  0.00     0.003 C 
HETATM   12  C13 UNL     1      26.877   4.548  49.074  1.00  0.00     0.012 C 
HETATM   13  C14 UNL     1      27.814   5.563  48.607  1.00  0.00     0.001 C 
HETATM   14  C15 UNL     1      27.906   6.744  47.986  1.00  0.00    -0.000 C 
HETATM   15  C16 UNL     1      27.135   7.820  47.337  1.00  0.00    -0.002 C 
HETATM   16  C17 UNL     1      25.886   8.139  47.017  1.00  0.00    -0.001 C 
HETATM   17  C18 UNL     1      24.534   7.510  47.168  1.00  0.00     0.114 C 
HETATM   18  C19 UNL     1      23.464   8.527  47.242  1.00  0.00     0.080 C 
ENDROOT
BRANCH  10  19
HETATM   19  C7  UNL     1      25.052   2.909  51.073  1.00  0.00    -0.042 A 
HETATM   20  C8  UNL     1      26.053   2.084  51.531  1.00  0.00     0.027 A 
HETATM   21  C9  UNL     1      26.158   1.902  52.913  1.00  0.00     0.116 A 
HETATM   22  N4  UNL     1      25.324   2.499  53.798  1.00  0.00    -0.273 NA
HETATM   23  C10 UNL     1      24.338   3.313  53.321  1.00  0.00     0.116 A 
HETATM   24  C11 UNL     1      24.206   3.514  51.980  1.00  0.00     0.027 A 
ENDBRANCH  10  19
TORSDOF 1
ENDMDL
MODEL 8
REMARK VINA RESULT:      -7.3      3.650      7.165
REMARK  1 active torsions:
REMARK  status: ('A' for Active; 'I' for Inactive)
REMARK    1  A    between atoms: C6_10  and  C7_11 
ROOT
HETATM    1 CL1  UNL     1      20.084   8.933  50.299  1.00  0.00    -0.089 Cl
HETATM    2  C1  UNL     1      20.466   7.276  49.862  1.00  0.00     0.012 C 
HETATM    3  C2  UNL     1      21.605   6.674  50.075  1.00  0.00     0.012 C 
HETATM    4  C3  UNL     1      21.825   5.262  49.663  1.00  0.00     0.154 C 
HETATM    5  N1  UNL     1      20.650   4.443  49.704  1.00  0.00    -0.352 N 
HETATM    6  C4  UNL     1      20.886   3.352  50.560  1.00  0.00     0.156 C 
HETATM    7  N2  UNL     1      20.105   3.837  51.463  1.00  0.00    -0.132 NA
HETATM    8  N3  UNL     1      19.974   3.081  52.674  1.00  0.00    -0.164 NA
HETATM    9  C5  UNL     1      20.711   1.992  52.684  1.00  0.00     0.128 C 
HETATM   10  C6  UNL     1      21.665   1.345  51.745  1.00  0.00     0.098 C 
HETATM   11  C12 UNL     1      21.635   2.134  50.488  1.00  0.00     0.003 C 
HETATM   12  C13 UNL     1      22.165   1.680  49.376  1.00  0.00     0.012 C 
HETATM   13  C14 UNL     1      22.257   2.032  47.965  1.00  0.00     0.001 C 
HETATM   14  C15 UNL     1      21.857   2.916  47.043  1.00  0.00    -0.000 C 
HETATM   15  C16 UNL     1      21.044   4.124  46.816  1.00  0.00    -0.002 C 
HETATM   16  C17 UNL     1      20.242   4.960  47.465  1.00  0.00    -0.001 C 
HETATM   17  C18 UNL     1      19.723   5.095  48.866  1.00  0.00     0.114 C 
HETATM   18  C19 UNL     1      19.418   6.503  49.200  1.00  0.00     0.080 C 
ENDROOT
BRANCH  10  19
HETATM   19  C7  UNL     1      22.993   1.442  52.421  1.00  0.00    -0.042 A 
HETATM   20  C8  UNL     1      23.466   0.226  52.858  1.00  0.00     0.027 A 
HETATM   21  C9  UNL     1      24.705   0.212  53.506  1.00  0.00     0.116 A 
HETATM   22  N4  UNL     1      25.438   1.331  53.714  1.00  0.00    -0.273 NA
HETATM   23  C10 UNL     1      24.948   2.526  53.273  1.00  0.00     0.116 A 
HETATM   24  C11 UNL     1      23.745   2.579  52.637  1.00  0.00     0.027 A 
ENDBRANCH  10  19
TORSDOF 1
ENDMDL
MODEL 9
REMARK VINA RESULT:      -7.2      5.391      7.158
REMARK  1 active torsions:
REMARK  status: ('A' for Active; 'I' for Inactive)
REMARK    1  A    between atoms: C6_10  and  C7_11 
ROOT
HETATM    1 CL1  UNL     1      23.045   5.203  51.462  1.00  0.00    -0.089 Cl
HETATM    2  C1  UNL     1      22.265   3.681  51.856  1.00  0.00     0.012 C 
HETATM    3  C2  UNL     1      21.197   3.540  52.594  1.00  0.00     0.012 C 
HETATM    4  C3  UNL     1      20.615   2.199  52.868  1.00  0.00     0.154 C 
HETATM    5  N1  UNL     1      20.793   1.249  51.811  1.00  0.00    -0.352 N 
HETATM    6  C4  UNL     1      19.530   0.788  51.397  1.00  0.00     0.156 C 
HETATM    7  N2  UNL     1      19.605   1.445  50.291  1.00  0.00    -0.132 NA
HETATM    8  N3  UNL     1      18.480   1.352  49.408  1.00  0.00    -0.164 NA
HETATM    9  C5  UNL     1      17.509   0.607  49.889  1.00  0.00     0.128 C 
HETATM   10  C6  UNL     1      17.279  -0.166  51.140  1.00  0.00     0.098 C 
HETATM   11  C12 UNL     1      18.540  -0.103  51.921  1.00  0.00     0.003 C 
HETATM   12  C13 UNL     1      18.754  -0.893  52.948  1.00  0.00     0.012 C 
HETATM   13  C14 UNL     1      19.822  -1.245  53.874  1.00  0.00     0.001 C 
HETATM   14  C15 UNL     1      21.109  -1.029  54.172  1.00  0.00    -0.000 C 
HETATM   15  C16 UNL     1      22.327  -0.305  53.767  1.00  0.00    -0.002 C 
HETATM   16  C17 UNL     1      22.764   0.524  52.827  1.00  0.00    -0.001 C 
HETATM   17  C18 UNL     1      22.187   1.184  51.611  1.00  0.00     0.114 C 
HETATM   18  C19 UNL     1      22.863   2.464  51.313  1.00  0.00     0.080 C 
ENDROOT
BRANCH  10  19
HETATM   19  C7  UNL     1      16.168   0.551  51.833  1.00  0.00    -0.042 A 
HETATM   20  C8  UNL     1      15.292  -0.298  52.470  1.00  0.00     0.027 A 
HETATM   21  C9  UNL     1      14.215   0.277  53.149  1.00  0.00     0.116 A 
HETATM   22  N4  UNL     1      14.008   1.615  53.200  1.00  0.00    -0.273 NA
HETATM   23  C10 UNL     1      14.889   2.438  52.561  1.00  0.00     0.116 A 
HETATM   24  C11 UNL     1      15.952   1.913  51.889  1.00  0.00     0.027 A 
ENDBRANCH  10  19
TORSDOF 1
ENDMDL
