MODEL 1
REMARK VINA RESULT:      -7.2      0.000      0.000
REMARK  5 active torsions:
REMARK  status: ('A' for Active; 'I' for Inactive)
REMARK    1  A    between atoms: C3_3  and  C4_4 
REMARK    2  A    between atoms: C5_5  and  O1_6 
REMARK    3  A    between atoms: O1_6  and  C6_7 
REMARK    4  A    between atoms: C10_12  and  C11_13 
REMARK    5  A    between atoms: C14_17  and  N3_18 
ROOT
HETATM    1  C6  UNL     1      24.968   2.696  51.841  1.00  0.00     0.181 A 
HETATM    2  N1  UNL     1      24.075   3.368  51.066  1.00  0.00    -0.236 NA
HETATM    3  C7  UNL     1      24.418   3.867  49.864  1.00  0.00     0.119 A 
HETATM    4  C8  UNL     1      25.718   3.684  49.421  1.00  0.00     0.020 A 
HETATM    5  C9  UNL     1      26.627   3.003  50.206  1.00  0.00     0.020 A 
HETATM    6  C10 UNL     1      26.273   2.492  51.438  1.00  0.00     0.047 A 
ENDROOT
BRANCH   6   7
HETATM    7  C11 UNL     1      27.153   1.759  52.342  1.00  0.00     0.091 A 
HETATM    8  C12 UNL     1      28.055   2.384  53.178  1.00  0.00     0.053 A 
HETATM    9  C13 UNL     1      28.908   1.742  54.050  1.00  0.00     0.139 A 
HETATM   10  N2  UNL     1      28.848   0.389  54.081  1.00  0.00    -0.075 NA
HETATM   11  C14 UNL     1      27.961  -0.245  53.262  1.00  0.00     0.722 A 
HETATM   12  N4  UNL     1      27.141   0.410  52.420  1.00  0.00    -0.062 NA
BRANCH  11  13
HETATM   13  N3  UNL     1      27.908  -1.661  53.304  1.00  0.00    -0.227 N 
HETATM   14  C15 UNL     1      28.749  -2.808  53.101  1.00  0.00     0.165 C 
HETATM   15  H13 UNL     1      26.921  -1.864  53.572  1.00  0.00     0.177 HD
ENDBRANCH  11  13
ENDBRANCH   6   7
BRANCH   1  16
HETATM   16  O1  UNL     1      24.533   2.211  53.072  1.00  0.00    -0.303 OA
BRANCH  16  17
HETATM   17  C5  UNL     1      23.371   1.421  53.077  1.00  0.00     0.144 C 
HETATM   18  C4  UNL     1      23.447   0.099  53.066  1.00  0.00     0.024 C 
BRANCH  18  19
HETATM   19  C3  UNL     1      22.256  -0.741  53.071  1.00  0.00    -0.002 C 
HETATM   20  C2  UNL     1      21.930  -1.453  54.136  1.00  0.00    -0.031 C 
HETATM   21  C1  UNL     1      22.785  -1.398  55.343  1.00  0.00     0.036 C 
ENDBRANCH  18  19
ENDBRANCH  16  17
ENDBRANCH   1  16
TORSDOF 5
ENDMDL
MODEL 2
REMARK VINA RESULT:      -7.1      1.536      4.867
REMARK  5 active torsions:
REMARK  status: ('A' for Active; 'I' for Inactive)
REMARK    1  A    between atoms: C3_3  and  C4_4 
REMARK    2  A    between atoms: C5_5  and  O1_6 
REMARK    3  A    between atoms: O1_6  and  C6_7 
REMARK    4  A    between atoms: C10_12  and  C11_13 
REMARK    5  A    between atoms: C14_17  and  N3_18 
ROOT
HETATM    1  C6  UNL     1      26.888   0.299  53.367  1.00  0.00     0.181 A 
HETATM    2  N1  UNL     1      27.720  -0.439  54.150  1.00  0.00    -0.236 NA
HETATM    3  C7  UNL     1      28.873   0.067  54.629  1.00  0.00     0.119 A 
HETATM    4  C8  UNL     1      29.205   1.372  54.305  1.00  0.00     0.020 A 
HETATM    5  C9  UNL     1      28.361   2.123  53.509  1.00  0.00     0.020 A 
HETATM    6  C10 UNL     1      27.181   1.604  53.020  1.00  0.00     0.047 A 
ENDROOT
BRANCH   6   7
HETATM    7  C11 UNL     1      26.224   2.310  52.175  1.00  0.00     0.091 A 
HETATM    8  C12 UNL     1      26.458   2.580  50.843  1.00  0.00     0.053 A 
HETATM    9  C13 UNL     1      25.590   3.241  50.001  1.00  0.00     0.139 A 
HETATM   10  N2  UNL     1      24.415   3.655  50.534  1.00  0.00    -0.075 NA
HETATM   11  C14 UNL     1      24.167   3.395  51.850  1.00  0.00     0.722 A 
HETATM   12  N4  UNL     1      25.035   2.747  52.647  1.00  0.00    -0.062 NA
BRANCH  11  13
HETATM   13  N3  UNL     1      22.934   3.833  52.395  1.00  0.00    -0.227 N 
HETATM   14  C15 UNL     1      21.572   4.072  52.006  1.00  0.00     0.165 C 
HETATM   15  H13 UNL     1      23.160   4.025  53.395  1.00  0.00     0.177 HD
ENDBRANCH  11  13
ENDBRANCH   6   7
BRANCH   1  16
HETATM   16  O1  UNL     1      25.715  -0.298  52.913  1.00  0.00    -0.303 OA
BRANCH  16  17
HETATM   17  C5  UNL     1      24.780  -0.698  53.883  1.00  0.00     0.144 C 
HETATM   18  C4  UNL     1      23.481  -0.543  53.680  1.00  0.00     0.024 C 
BRANCH  18  19
HETATM   19  C3  UNL     1      22.493  -0.951  54.672  1.00  0.00    -0.002 C 
HETATM   20  C2  UNL     1      21.295  -0.393  54.708  1.00  0.00    -0.031 C 
HETATM   21  C1  UNL     1      20.948   0.660  53.727  1.00  0.00     0.036 C 
ENDBRANCH  18  19
ENDBRANCH  16  17
ENDBRANCH   1  16
TORSDOF 5
ENDMDL
MODEL 3
REMARK VINA RESULT:      -7.0      2.591      6.333
REMARK  5 active torsions:
REMARK  status: ('A' for Active; 'I' for Inactive)
REMARK    1  A    between atoms: C3_3  and  C4_4 
REMARK    2  A    between atoms: C5_5  and  O1_6 
REMARK    3  A    between atoms: O1_6  and  C6_7 
REMARK    4  A    between atoms: C10_12  and  C11_13 
REMARK    5  A    between atoms: C14_17  and  N3_18 
ROOT
HETATM    1  C6  UNL     1      23.745   0.017  53.441  1.00  0.00     0.181 A 
HETATM    2  N1  UNL     1      23.598  -0.959  54.377  1.00  0.00    -0.236 NA
HETATM    3  C7  UNL     1      22.423  -1.171  54.999  1.00  0.00     0.119 A 
HETATM    4  C8  UNL     1      21.347  -0.364  54.667  1.00  0.00     0.020 A 
HETATM    5  C9  UNL     1      21.493   0.628  53.717  1.00  0.00     0.020 A 
HETATM    6  C10 UNL     1      22.697   0.843  53.081  1.00  0.00     0.047 A 
ENDROOT
BRANCH   6   7
HETATM    7  C11 UNL     1      22.957   1.860  52.067  1.00  0.00     0.091 A 
HETATM    8  C12 UNL     1      22.781   1.632  50.718  1.00  0.00     0.053 A 
HETATM    9  C13 UNL     1      23.010   2.555  49.719  1.00  0.00     0.139 A 
HETATM   10  N2  UNL     1      23.442   3.780  50.105  1.00  0.00    -0.075 NA
HETATM   11  C14 UNL     1      23.619   4.022  51.435  1.00  0.00     0.722 A 
HETATM   12  N4  UNL     1      23.387   3.100  52.387  1.00  0.00    -0.062 NA
BRANCH  11  13
HETATM   13  N3  UNL     1      24.071   5.308  51.825  1.00  0.00    -0.227 N 
HETATM   14  C15 UNL     1      24.219   6.637  51.300  1.00  0.00     0.165 C 
HETATM   15  H13 UNL     1      24.377   5.174  52.812  1.00  0.00     0.177 HD
ENDBRANCH  11  13
ENDBRANCH   6   7
BRANCH   1  16
HETATM   16  O1  UNL     1      24.993   0.171  52.844  1.00  0.00    -0.303 OA
BRANCH  16  17
HETATM   17  C5  UNL     1      25.998  -0.742  53.210  1.00  0.00     0.144 C 
HETATM   18  C4  UNL     1      27.202  -0.681  52.665  1.00  0.00     0.024 C 
BRANCH  18  19
HETATM   19  C3  UNL     1      28.259  -1.617  53.029  1.00  0.00    -0.002 C 
HETATM   20  C2  UNL     1      29.413  -1.187  53.512  1.00  0.00    -0.031 C 
HETATM   21  C1  UNL     1      29.637   0.266  53.686  1.00  0.00     0.036 C 
ENDBRANCH  18  19
ENDBRANCH  16  17
ENDBRANCH   1  16
TORSDOF 5
ENDMDL
MODEL 4
REMARK VINA RESULT:      -6.9      1.576      4.972
REMARK  5 active torsions:
REMARK  status: ('A' for Active; 'I' for Inactive)
REMARK    1  A    between atoms: C3_3  and  C4_4 
REMARK    2  A    between atoms: C5_5  and  O1_6 
REMARK    3  A    between atoms: O1_6  and  C6_7 
REMARK    4  A    between atoms: C10_12  and  C11_13 
REMARK    5  A    between atoms: C14_17  and  N3_18 
ROOT
HETATM    1  C6  UNL     1      23.707   0.660  52.444  1.00  0.00     0.181 A 
HETATM    2  N1  UNL     1      22.393   0.986  52.319  1.00  0.00    -0.236 NA
HETATM    3  C7  UNL     1      21.461   0.503  53.162  1.00  0.00     0.119 A 
HETATM    4  C8  UNL     1      21.868  -0.348  54.177  1.00  0.00     0.020 A 
HETATM    5  C9  UNL     1      23.203  -0.681  54.307  1.00  0.00     0.020 A 
HETATM    6  C10 UNL     1      24.155  -0.185  53.442  1.00  0.00     0.047 A 
ENDROOT
BRANCH   6   7
HETATM    7  C11 UNL     1      25.585  -0.473  53.491  1.00  0.00     0.091 A 
HETATM    8  C12 UNL     1      26.153  -1.553  52.847  1.00  0.00     0.053 A 
HETATM    9  C13 UNL     1      27.494  -1.871  52.860  1.00  0.00     0.139 A 
HETATM   10  N2  UNL     1      28.311  -1.051  53.564  1.00  0.00    -0.075 NA
HETATM   11  C14 UNL     1      27.766   0.021  54.206  1.00  0.00     0.722 A 
HETATM   12  N4  UNL     1      26.452   0.306  54.175  1.00  0.00    -0.062 NA
BRANCH  11  13
HETATM   13  N3  UNL     1      28.632   0.871  54.939  1.00  0.00    -0.227 N 
HETATM   14  C15 UNL     1      29.562   1.947  54.738  1.00  0.00     0.165 C 
HETATM   15  H13 UNL     1      28.503   0.562  55.927  1.00  0.00     0.177 HD
ENDBRANCH  11  13
ENDBRANCH   6   7
BRANCH   1  16
HETATM   16  O1  UNL     1      24.607   1.202  51.531  1.00  0.00    -0.303 OA
BRANCH  16  17
HETATM   17  C5  UNL     1      24.613   2.600  51.387  1.00  0.00     0.144 C 
HETATM   18  C4  UNL     1      24.922   3.164  50.230  1.00  0.00     0.024 C 
BRANCH  18  19
HETATM   19  C3  UNL     1      24.936   4.611  50.058  1.00  0.00    -0.002 C 
HETATM   20  C2  UNL     1      25.963   5.220  49.491  1.00  0.00    -0.031 C 
HETATM   21  C1  UNL     1      27.119   4.422  49.022  1.00  0.00     0.036 C 
ENDBRANCH  18  19
ENDBRANCH  16  17
ENDBRANCH   1  16
TORSDOF 5
ENDMDL
MODEL 5
REMARK VINA RESULT:      -6.5      1.891      6.247
REMARK  5 active torsions:
REMARK  status: ('A' for Active; 'I' for Inactive)
REMARK    1  A    between atoms: C3_3  and  C4_4 
REMARK    2  A    between atoms: C5_5  and  O1_6 
REMARK    3  A    between atoms: O1_6  and  C6_7 
REMARK    4  A    between atoms: C10_12  and  C11_13 
REMARK    5  A    between atoms: C14_17  and  N3_18 
ROOT
HETATM    1  C6  UNL     1      26.918   1.115  52.569  1.00  0.00     0.181 A 
HETATM    2  N1  UNL     1      28.265   1.198  52.735  1.00  0.00    -0.236 NA
HETATM    3  C7  UNL     1      28.862   0.808  53.878  1.00  0.00     0.119 A 
HETATM    4  C8  UNL     1      28.068   0.312  54.900  1.00  0.00     0.020 A 
HETATM    5  C9  UNL     1      26.699   0.227  54.733  1.00  0.00     0.020 A 
HETATM    6  C10 UNL     1      26.090   0.627  53.562  1.00  0.00     0.047 A 
ENDROOT
BRANCH   6   7
HETATM    7  C11 UNL     1      24.658   0.579  53.285  1.00  0.00     0.091 A 
HETATM    8  C12 UNL     1      23.913  -0.576  53.402  1.00  0.00     0.053 A 
HETATM    9  C13 UNL     1      22.560  -0.678  53.153  1.00  0.00     0.139 A 
HETATM   10  N2  UNL     1      21.923   0.452  52.765  1.00  0.00    -0.075 NA
HETATM   11  C14 UNL     1      22.644   1.602  52.645  1.00  0.00     0.722 A 
HETATM   12  N4  UNL     1      23.965   1.671  52.894  1.00  0.00    -0.062 NA
BRANCH  11  13
HETATM   13  N3  UNL     1      21.965   2.778  52.237  1.00  0.00    -0.227 N 
HETATM   14  C15 UNL     1      22.065   4.207  52.336  1.00  0.00     0.165 C 
HETATM   15  H13 UNL     1      21.145   2.417  51.703  1.00  0.00     0.177 HD
ENDBRANCH  11  13
ENDBRANCH   6   7
BRANCH   1  16
HETATM   16  O1  UNL     1      26.380   1.540  51.357  1.00  0.00    -0.303 OA
BRANCH  16  17
HETATM   17  C5  UNL     1      26.769   2.807  50.889  1.00  0.00     0.144 C 
HETATM   18  C4  UNL     1      26.403   3.231  49.690  1.00  0.00     0.024 C 
BRANCH  18  19
HETATM   19  C3  UNL     1      26.795   4.540  49.184  1.00  0.00    -0.002 C 
HETATM   20  C2  UNL     1      25.888   5.456  48.890  1.00  0.00    -0.031 C 
HETATM   21  C1  UNL     1      24.451   5.150  49.077  1.00  0.00     0.036 C 
ENDBRANCH  18  19
ENDBRANCH  16  17
ENDBRANCH   1  16
TORSDOF 5
ENDMDL
MODEL 6
REMARK VINA RESULT:      -6.4      2.112      6.104
REMARK  5 active torsions:
REMARK  status: ('A' for Active; 'I' for Inactive)
REMARK    1  A    between atoms: C3_3  and  C4_4 
REMARK    2  A    between atoms: C5_5  and  O1_6 
REMARK    3  A    between atoms: O1_6  and  C6_7 
REMARK    4  A    between atoms: C10_12  and  C11_13 
REMARK    5  A    between atoms: C14_17  and  N3_18 
ROOT
HETATM    1  C6  UNL     1      24.675   0.572  53.418  1.00  0.00     0.181 A 
HETATM    2  N1  UNL     1      24.794  -0.497  54.250  1.00  0.00    -0.236 NA
HETATM    3  C7  UNL     1      23.715  -1.122  54.757  1.00  0.00     0.119 A 
HETATM    4  C8  UNL     1      22.458  -0.651  54.413  1.00  0.00     0.020 A 
HETATM    5  C9  UNL     1      22.334   0.436  53.569  1.00  0.00     0.020 A 
HETATM    6  C10 UNL     1      23.441   1.074  53.050  1.00  0.00     0.047 A 
ENDROOT
BRANCH   6   7
HETATM    7  C11 UNL     1      23.420   2.225  52.153  1.00  0.00     0.091 A 
HETATM    8  C12 UNL     1      23.567   3.522  52.597  1.00  0.00     0.053 A 
HETATM    9  C13 UNL     1      23.555   4.644  51.795  1.00  0.00     0.139 A 
HETATM   10  N2  UNL     1      23.385   4.444  50.466  1.00  0.00    -0.075 NA
HETATM   11  C14 UNL     1      23.239   3.167  50.010  1.00  0.00     0.722 A 
HETATM   12  N4  UNL     1      23.255   2.092  50.818  1.00  0.00    -0.062 NA
BRANCH  11  13
HETATM   13  N3  UNL     1      23.062   2.972  48.617  1.00  0.00    -0.227 N 
HETATM   14  C15 UNL     1      22.444   2.060  47.695  1.00  0.00     0.165 C 
HETATM   15  H13 UNL     1      23.563   3.780  48.188  1.00  0.00     0.177 HD
ENDBRANCH  11  13
ENDBRANCH   6   7
BRANCH   1  16
HETATM   16  O1  UNL     1      25.840   1.161  52.937  1.00  0.00    -0.303 OA
BRANCH  16  17
HETATM   17  C5  UNL     1      27.022   0.938  53.665  1.00  0.00     0.144 C 
HETATM   18  C4  UNL     1      28.041   0.288  53.125  1.00  0.00     0.024 C 
BRANCH  18  19
HETATM   19  C3  UNL     1      29.275   0.044  53.861  1.00  0.00    -0.002 C 
HETATM   20  C2  UNL     1      29.835  -1.154  53.876  1.00  0.00    -0.031 C 
HETATM   21  C1  UNL     1      29.200  -2.266  53.133  1.00  0.00     0.036 C 
ENDBRANCH  18  19
ENDBRANCH  16  17
ENDBRANCH   1  16
TORSDOF 5
ENDMDL
MODEL 7
REMARK VINA RESULT:      -6.4      2.159      4.708
REMARK  5 active torsions:
REMARK  status: ('A' for Active; 'I' for Inactive)
REMARK    1  A    between atoms: C3_3  and  C4_4 
REMARK    2  A    between atoms: C5_5  and  O1_6 
REMARK    3  A    between atoms: O1_6  and  C6_7 
REMARK    4  A    between atoms: C10_12  and  C11_13 
REMARK    5  A    between atoms: C14_17  and  N3_18 
ROOT
HETATM    1  C6  UNL     1      22.900   0.938  53.161  1.00  0.00     0.181 A 
HETATM    2  N1  UNL     1      21.557   1.117  53.279  1.00  0.00    -0.236 NA
HETATM    3  C7  UNL     1      20.790   0.266  53.986  1.00  0.00     0.119 A 
HETATM    4  C8  UNL     1      21.400  -0.815  54.602  1.00  0.00     0.020 A 
HETATM    5  C9  UNL     1      22.764  -0.999  54.483  1.00  0.00     0.020 A 
HETATM    6  C10 UNL     1      23.548  -0.126  53.758  1.00  0.00     0.047 A 
ENDROOT
BRANCH   6   7
HETATM    7  C11 UNL     1      24.991  -0.229  53.572  1.00  0.00     0.091 A 
HETATM    8  C12 UNL     1      25.588  -1.293  52.927  1.00  0.00     0.053 A 
HETATM    9  C13 UNL     1      26.943  -1.440  52.723  1.00  0.00     0.139 A 
HETATM   10  N2  UNL     1      27.744  -0.456  53.198  1.00  0.00    -0.075 NA
HETATM   11  C14 UNL     1      27.171   0.603  53.837  1.00  0.00     0.722 A 
HETATM   12  N4  UNL     1      25.843   0.719  54.021  1.00  0.00    -0.062 NA
BRANCH  11  13
HETATM   13  N3  UNL     1      28.021   1.625  54.330  1.00  0.00    -0.227 N 
HETATM   14  C15 UNL     1      29.149   2.418  53.927  1.00  0.00     0.165 C 
HETATM   15  H13 UNL     1      27.655   1.811  55.288  1.00  0.00     0.177 HD
ENDBRANCH  11  13
ENDBRANCH   6   7
BRANCH   1  16
HETATM   16  O1  UNL     1      23.621   1.864  52.412  1.00  0.00    -0.303 OA
BRANCH  16  17
HETATM   17  C5  UNL     1      23.581   1.730  51.013  1.00  0.00     0.144 C 
HETATM   18  C4  UNL     1      22.943   2.615  50.263  1.00  0.00     0.024 C 
BRANCH  18  19
HETATM   19  C3  UNL     1      22.889   2.496  48.811  1.00  0.00    -0.002 C 
HETATM   20  C2  UNL     1      21.898   1.853  48.217  1.00  0.00    -0.031 C 
HETATM   21  C1  UNL     1      20.826   1.243  49.036  1.00  0.00     0.036 C 
ENDBRANCH  18  19
ENDBRANCH  16  17
ENDBRANCH   1  16
TORSDOF 5
ENDMDL
MODEL 8
REMARK VINA RESULT:      -6.3      2.381      5.687
REMARK  5 active torsions:
REMARK  status: ('A' for Active; 'I' for Inactive)
REMARK    1  A    between atoms: C3_3  and  C4_4 
REMARK    2  A    between atoms: C5_5  and  O1_6 
REMARK    3  A    between atoms: O1_6  and  C6_7 
REMARK    4  A    between atoms: C10_12  and  C11_13 
REMARK    5  A    between atoms: C14_17  and  N3_18 
ROOT
HETATM    1  C6  UNL     1      23.183   3.753  51.046  1.00  0.00     0.181 A 
HETATM    2  N1  UNL     1      22.281   4.544  50.407  1.00  0.00    -0.236 NA
HETATM    3  C7  UNL     1      20.986   4.582  50.777  1.00  0.00     0.119 A 
HETATM    4  C8  UNL     1      20.581   3.787  51.837  1.00  0.00     0.020 A 
HETATM    5  C9  UNL     1      21.496   2.982  52.488  1.00  0.00     0.020 A 
HETATM    6  C10 UNL     1      22.821   2.945  52.107  1.00  0.00     0.047 A 
ENDROOT
BRANCH   6   7
HETATM    7  C11 UNL     1      23.864   2.134  52.726  1.00  0.00     0.091 A 
HETATM    8  C12 UNL     1      23.706   0.789  52.991  1.00  0.00     0.053 A 
HETATM    9  C13 UNL     1      24.657  -0.024  53.572  1.00  0.00     0.139 A 
HETATM   10  N2  UNL     1      25.836   0.555  53.905  1.00  0.00    -0.075 NA
HETATM   11  C14 UNL     1      26.008   1.883  53.648  1.00  0.00     0.722 A 
HETATM   12  N4  UNL     1      25.061   2.651  53.080  1.00  0.00    -0.062 NA
BRANCH  11  13
HETATM   13  N3  UNL     1      27.247   2.475  54.002  1.00  0.00    -0.227 N 
HETATM   14  C15 UNL     1      28.641   2.418  53.659  1.00  0.00     0.165 C 
HETATM   15  H13 UNL     1      26.991   3.156  54.750  1.00  0.00     0.177 HD
ENDBRANCH  11  13
ENDBRANCH   6   7
BRANCH   1  16
HETATM   16  O1  UNL     1      24.502   3.772  50.602  1.00  0.00    -0.303 OA
BRANCH  16  17
HETATM   17  C5  UNL     1      25.015   5.005  50.164  1.00  0.00     0.144 C 
HETATM   18  C4  UNL     1      25.853   5.069  49.141  1.00  0.00     0.024 C 
BRANCH  18  19
HETATM   19  C3  UNL     1      26.397   6.336  48.670  1.00  0.00    -0.002 C 
HETATM   20  C2  UNL     1      27.663   6.438  48.299  1.00  0.00    -0.031 C 
HETATM   21  C1  UNL     1      28.541   5.247  48.361  1.00  0.00     0.036 C 
ENDBRANCH  18  19
ENDBRANCH  16  17
ENDBRANCH   1  16
TORSDOF 5
ENDMDL
MODEL 9
REMARK VINA RESULT:      -6.3      1.684      4.773
REMARK  5 active torsions:
REMARK  status: ('A' for Active; 'I' for Inactive)
REMARK    1  A    between atoms: C3_3  and  C4_4 
REMARK    2  A    between atoms: C5_5  and  O1_6 
REMARK    3  A    between atoms: O1_6  and  C6_7 
REMARK    4  A    between atoms: C10_12  and  C11_13 
REMARK    5  A    between atoms: C14_17  and  N3_18 
ROOT
HETATM    1  C6  UNL     1      23.880   1.985  51.232  1.00  0.00     0.181 A 
HETATM    2  N1  UNL     1      22.667   2.369  50.752  1.00  0.00    -0.236 NA
HETATM    3  C7  UNL     1      21.533   2.163  51.448  1.00  0.00     0.119 A 
HETATM    4  C8  UNL     1      21.622   1.542  52.684  1.00  0.00     0.020 A 
HETATM    5  C9  UNL     1      22.853   1.151  53.174  1.00  0.00     0.020 A 
HETATM    6  C10 UNL     1      24.013   1.363  52.459  1.00  0.00     0.047 A 
ENDROOT
BRANCH   6   7
HETATM    7  C11 UNL     1      25.358   0.990  52.885  1.00  0.00     0.091 A 
HETATM    8  C12 UNL     1      26.250   1.895  53.422  1.00  0.00     0.053 A 
HETATM    9  C13 UNL     1      27.530   1.598  53.840  1.00  0.00     0.139 A 
HETATM   10  N2  UNL     1      27.933   0.311  53.709  1.00  0.00    -0.075 NA
HETATM   11  C14 UNL     1      27.063  -0.596  53.181  1.00  0.00     0.722 A 
HETATM   12  N4  UNL     1      25.820  -0.276  52.781  1.00  0.00    -0.062 NA
BRANCH  11  13
HETATM   13  N3  UNL     1      27.498  -1.939  53.050  1.00  0.00    -0.227 N 
HETATM   14  C15 UNL     1      28.706  -2.717  53.033  1.00  0.00     0.165 C 
HETATM   15  H13 UNL     1      26.612  -2.476  52.932  1.00  0.00     0.177 HD
ENDBRANCH  11  13
ENDBRANCH   6   7
BRANCH   1  16
HETATM   16  O1  UNL     1      25.004   2.235  50.450  1.00  0.00    -0.303 OA
BRANCH  16  17
HETATM   17  C5  UNL     1      25.009   3.418  49.691  1.00  0.00     0.144 C 
HETATM   18  C4  UNL     1      25.822   4.417  49.996  1.00  0.00     0.024 C 
BRANCH  18  19
HETATM   19  C3  UNL     1      25.845   5.654  49.224  1.00  0.00    -0.002 C 
HETATM   20  C2  UNL     1      26.908   5.993  48.513  1.00  0.00    -0.031 C 
HETATM   21  C1  UNL     1      28.093   5.106  48.499  1.00  0.00     0.036 C 
ENDBRANCH  18  19
ENDBRANCH  16  17
ENDBRANCH   1  16
TORSDOF 5
ENDMDL
