MODEL 1
REMARK VINA RESULT:      -7.9      0.000      0.000
REMARK  5 active torsions:
REMARK  status: ('A' for Active; 'I' for Inactive)
REMARK    1  A    between atoms: C5_5  and  N1_6 
REMARK    2  A    between atoms: N1_6  and  C7_8 
REMARK    3  A    between atoms: C11_14  and  O1_15 
REMARK    4  A    between atoms: C13_17  and  P1_18 
REMARK    5  A    between atoms: P1_18  and  O2_19 
ROOT
HETATM    1  C7  UNL     1      23.631   1.743  52.448  1.00  0.00     0.140 A 
HETATM    2  N2  UNL     1      22.514   0.979  52.460  1.00  0.00    -0.224 NA
HETATM    3  C8  UNL     1      22.483  -0.264  52.948  1.00  0.00     0.236 A 
HETATM    4  N3  UNL     1      23.578  -0.842  53.465  1.00  0.00    -0.241 NA
HETATM    5  C9  UNL     1      24.732  -0.172  53.499  1.00  0.00     0.074 A 
HETATM    6  C10 UNL     1      25.918  -0.672  53.994  1.00  0.00     0.070 A 
HETATM    7  C11 UNL     1      27.107   0.043  54.003  1.00  0.00     0.083 A 
HETATM    8  C13 UNL     1      27.070   1.337  53.475  1.00  0.00     0.027 A 
HETATM    9  C14 UNL     1      25.891   1.817  52.990  1.00  0.00     0.034 A 
HETATM   10  C15 UNL     1      24.717   1.102  52.987  1.00  0.00     0.040 A 
ENDROOT
BRANCH   1  11
HETATM   11  N1  UNL     1      23.481   3.062  51.949  1.00  0.00    -0.358 N 
HETATM   12  C6  UNL     1      23.254   4.374  52.513  1.00  0.00     0.152 C 
BRANCH  11  13
HETATM   13  C5  UNL     1      23.516   3.224  50.474  1.00  0.00     0.133 A 
HETATM   14  C4  UNL     1      22.601   4.316  50.101  1.00  0.00     0.003 A 
HETATM   15  C3  UNL     1      22.908   5.442  49.436  1.00  0.00     0.010 A 
HETATM   16  C2  UNL     1      24.317   5.542  49.069  1.00  0.00    -0.029 A 
HETATM   17  C1  UNL     1      24.714   6.612  48.414  1.00  0.00     0.025 C 
HETATM   18  C17 UNL     1      25.299   4.542  49.378  1.00  0.00     0.018 A 
HETATM   19  C16 UNL     1      24.911   3.465  50.034  1.00  0.00     0.022 A 
HETATM   20 BR1  UNL     1      27.141   4.711  48.877  1.00  0.00    -0.051 Br
ENDBRANCH  11  13
ENDBRANCH   1  11
BRANCH   8  21
HETATM   21  P1  UNL     1      28.647   2.273  53.492  1.00  0.00     0.045 P 
HETATM   22  H14 UNL     1      28.454   3.675  53.155  1.00  0.00     0.092 HD
BRANCH  21  23
HETATM   23  O2  UNL     1      29.342   2.112  55.089  1.00  0.00    -0.371 OA
HETATM   24  H15 UNL     1      28.644   1.688  55.660  1.00  0.00     0.215 HD
ENDBRANCH  21  23
ENDBRANCH   8  21
BRANCH   7  25
HETATM   25  O1  UNL     1      28.271  -0.495  54.510  1.00  0.00    -0.355 OA
HETATM   26  C12 UNL     1      29.145  -1.207  53.680  1.00  0.00     0.210 C 
ENDBRANCH   7  25
TORSDOF 5
ENDMDL
MODEL 2
REMARK VINA RESULT:      -7.7      2.966      3.449
REMARK  5 active torsions:
REMARK  status: ('A' for Active; 'I' for Inactive)
REMARK    1  A    between atoms: C5_5  and  N1_6 
REMARK    2  A    between atoms: N1_6  and  C7_8 
REMARK    3  A    between atoms: C11_14  and  O1_15 
REMARK    4  A    between atoms: C13_17  and  P1_18 
REMARK    5  A    between atoms: P1_18  and  O2_19 
ROOT
HETATM    1  C7  UNL     1      21.989   0.401  53.177  1.00  0.00     0.140 A 
HETATM    2  N2  UNL     1      21.304  -0.418  54.009  1.00  0.00    -0.224 NA
HETATM    3  C8  UNL     1      21.898  -1.246  54.873  1.00  0.00     0.236 A 
HETATM    4  N3  UNL     1      23.234  -1.319  54.970  1.00  0.00    -0.241 NA
HETATM    5  C9  UNL     1      24.001  -0.553  54.191  1.00  0.00     0.074 A 
HETATM    6  C10 UNL     1      25.380  -0.555  54.198  1.00  0.00     0.070 A 
HETATM    7  C11 UNL     1      26.152   0.243  53.366  1.00  0.00     0.083 A 
HETATM    8  C13 UNL     1      25.467   1.085  52.484  1.00  0.00     0.027 A 
HETATM    9  C14 UNL     1      24.105   1.076  52.490  1.00  0.00     0.034 A 
HETATM   10  C15 UNL     1      23.348   0.283  53.319  1.00  0.00     0.040 A 
ENDROOT
BRANCH   1  11
HETATM   11  N1  UNL     1      21.208   1.260  52.363  1.00  0.00    -0.358 N 
HETATM   12  C6  UNL     1      20.693   2.609  52.458  1.00  0.00     0.152 C 
BRANCH  11  13
HETATM   13  C5  UNL     1      20.718   0.699  51.079  1.00  0.00     0.133 A 
HETATM   14  C4  UNL     1      19.319   1.118  50.888  1.00  0.00     0.003 A 
HETATM   15  C3  UNL     1      18.814   1.820  49.860  1.00  0.00     0.010 A 
HETATM   16  C2  UNL     1      19.807   2.180  48.851  1.00  0.00    -0.029 A 
HETATM   17  C1  UNL     1      19.406   2.870  47.804  1.00  0.00     0.025 C 
HETATM   18  C17 UNL     1      21.195   1.827  48.930  1.00  0.00     0.018 A 
HETATM   19  C16 UNL     1      21.608   1.136  49.976  1.00  0.00     0.022 A 
HETATM   20 BR1  UNL     1      22.466   2.320  47.584  1.00  0.00    -0.051 Br
ENDBRANCH  11  13
ENDBRANCH   1  11
BRANCH   8  21
HETATM   21  P1  UNL     1      26.497   2.135  51.389  1.00  0.00     0.045 P 
HETATM   22  H14 UNL     1      25.727   3.208  50.778  1.00  0.00     0.092 HD
BRANCH  21  23
HETATM   23  O2  UNL     1      27.804   2.785  52.353  1.00  0.00    -0.371 OA
HETATM   24  H15 UNL     1      27.904   2.179  53.139  1.00  0.00     0.215 HD
ENDBRANCH  21  23
ENDBRANCH   8  21
BRANCH   7  25
HETATM   25  O1  UNL     1      27.530   0.210  53.406  1.00  0.00    -0.355 OA
HETATM   26  C12 UNL     1      28.203   0.131  54.630  1.00  0.00     0.210 C 
ENDBRANCH   7  25
TORSDOF 5
ENDMDL
MODEL 3
REMARK VINA RESULT:      -7.7      3.937      6.540
REMARK  5 active torsions:
REMARK  status: ('A' for Active; 'I' for Inactive)
REMARK    1  A    between atoms: C5_5  and  N1_6 
REMARK    2  A    between atoms: N1_6  and  C7_8 
REMARK    3  A    between atoms: C11_14  and  O1_15 
REMARK    4  A    between atoms: C13_17  and  P1_18 
REMARK    5  A    between atoms: P1_18  and  O2_19 
ROOT
HETATM    1  C7  UNL     1      24.287   2.239  51.235  1.00  0.00     0.140 A 
HETATM    2  N2  UNL     1      24.568   2.985  50.141  1.00  0.00    -0.224 NA
HETATM    3  C8  UNL     1      23.704   3.169  49.138  1.00  0.00     0.236 A 
HETATM    4  N3  UNL     1      22.482   2.616  49.155  1.00  0.00    -0.241 NA
HETATM    5  C9  UNL     1      22.107   1.860  50.189  1.00  0.00     0.074 A 
HETATM    6  C10 UNL     1      20.883   1.235  50.304  1.00  0.00     0.070 A 
HETATM    7  C11 UNL     1      20.526   0.443  51.386  1.00  0.00     0.083 A 
HETATM    8  C13 UNL     1      21.478   0.289  52.398  1.00  0.00     0.027 A 
HETATM    9  C14 UNL     1      22.681   0.914  52.270  1.00  0.00     0.034 A 
HETATM   10  C15 UNL     1      23.027   1.699  51.196  1.00  0.00     0.040 A 
ENDROOT
BRANCH   1  11
HETATM   11  N1  UNL     1      25.291   2.192  52.235  1.00  0.00    -0.358 N 
HETATM   12  C6  UNL     1      25.395   2.558  53.630  1.00  0.00     0.152 C 
BRANCH  11  13
HETATM   13  C5  UNL     1      26.622   1.682  51.819  1.00  0.00     0.133 A 
HETATM   14  C4  UNL     1      27.650   2.314  52.663  1.00  0.00     0.003 A 
HETATM   15  C3  UNL     1      28.543   1.698  53.455  1.00  0.00     0.010 A 
HETATM   16  C2  UNL     1      28.436   0.242  53.437  1.00  0.00    -0.029 A 
HETATM   17  C1  UNL     1      29.271  -0.451  54.183  1.00  0.00     0.025 C 
HETATM   18  C17 UNL     1      27.476  -0.483  52.655  1.00  0.00     0.018 A 
HETATM   19  C16 UNL     1      26.635   0.202  51.904  1.00  0.00     0.022 A 
HETATM   20 BR1  UNL     1      27.370  -2.396  52.660  1.00  0.00    -0.051 Br
ENDBRANCH  11  13
ENDBRANCH   1  11
BRANCH   8  21
HETATM   21  P1  UNL     1      20.994  -0.760  53.823  1.00  0.00     0.045 P 
HETATM   22  H14 UNL     1      22.066  -1.657  54.229  1.00  0.00     0.092 HD
BRANCH  21  23
HETATM   23  O2  UNL     1      20.548   0.304  55.138  1.00  0.00    -0.371 OA
HETATM   24  H15 UNL     1      20.277   1.168  54.722  1.00  0.00     0.215 HD
ENDBRANCH  21  23
ENDBRANCH   8  21
BRANCH   7  25
HETATM   25  O1  UNL     1      19.290  -0.164  51.461  1.00  0.00    -0.355 OA
HETATM   26  C12 UNL     1      18.229   0.282  50.665  1.00  0.00     0.210 C 
ENDBRANCH   7  25
TORSDOF 5
ENDMDL
MODEL 4
REMARK VINA RESULT:      -7.2      3.141      3.810
REMARK  5 active torsions:
REMARK  status: ('A' for Active; 'I' for Inactive)
REMARK    1  A    between atoms: C5_5  and  N1_6 
REMARK    2  A    between atoms: N1_6  and  C7_8 
REMARK    3  A    between atoms: C11_14  and  O1_15 
REMARK    4  A    between atoms: C13_17  and  P1_18 
REMARK    5  A    between atoms: P1_18  and  O2_19 
ROOT
HETATM    1  C7  UNL     1      21.919   0.310  52.889  1.00  0.00     0.140 A 
HETATM    2  N2  UNL     1      21.192  -0.464  53.728  1.00  0.00    -0.224 NA
HETATM    3  C8  UNL     1      21.736  -1.196  54.705  1.00  0.00     0.236 A 
HETATM    4  N3  UNL     1      23.061  -1.210  54.917  1.00  0.00    -0.241 NA
HETATM    5  C9  UNL     1      23.867  -0.481  54.141  1.00  0.00     0.074 A 
HETATM    6  C10 UNL     1      25.240  -0.430  54.261  1.00  0.00     0.070 A 
HETATM    7  C11 UNL     1      26.054   0.326  53.431  1.00  0.00     0.083 A 
HETATM    8  C13 UNL     1      25.421   1.066  52.428  1.00  0.00     0.027 A 
HETATM    9  C14 UNL     1      24.064   1.006  52.323  1.00  0.00     0.034 A 
HETATM   10  C15 UNL     1      23.264   0.255  53.151  1.00  0.00     0.040 A 
ENDROOT
BRANCH   1  11
HETATM   11  N1  UNL     1      21.184   1.070  51.945  1.00  0.00    -0.358 N 
HETATM   12  C6  UNL     1      20.809   0.932  50.555  1.00  0.00     0.152 C 
BRANCH  11  13
HETATM   13  C5  UNL     1      20.658   2.379  52.407  1.00  0.00     0.133 A 
HETATM   14  C4  UNL     1      21.592   3.435  51.985  1.00  0.00     0.003 A 
HETATM   15  C3  UNL     1      21.321   4.498  51.209  1.00  0.00     0.010 A 
HETATM   16  C2  UNL     1      19.932   4.561  50.764  1.00  0.00    -0.029 A 
HETATM   17  C1  UNL     1      19.571   5.567  49.998  1.00  0.00     0.025 C 
HETATM   18  C17 UNL     1      18.934   3.590  51.112  1.00  0.00     0.018 A 
HETATM   19  C16 UNL     1      19.286   2.576  51.879  1.00  0.00     0.022 A 
HETATM   20 BR1  UNL     1      17.120   3.709  50.506  1.00  0.00    -0.051 Br
ENDBRANCH  11  13
ENDBRANCH   1  11
BRANCH   8  21
HETATM   21  P1  UNL     1      26.507   2.062  51.337  1.00  0.00     0.045 P 
HETATM   22  H14 UNL     1      25.767   3.091  50.621  1.00  0.00     0.092 HD
BRANCH  21  23
HETATM   23  O2  UNL     1      27.750   2.779  52.337  1.00  0.00    -0.371 OA
HETATM   24  H15 UNL     1      28.043   2.071  52.975  1.00  0.00     0.215 HD
ENDBRANCH  21  23
ENDBRANCH   8  21
BRANCH   7  25
HETATM   25  O1  UNL     1      27.424   0.349  53.587  1.00  0.00    -0.355 OA
HETATM   26  C12 UNL     1      28.190  -0.788  53.306  1.00  0.00     0.210 C 
ENDBRANCH   7  25
TORSDOF 5
ENDMDL
MODEL 5
REMARK VINA RESULT:      -7.1      3.569      5.582
REMARK  5 active torsions:
REMARK  status: ('A' for Active; 'I' for Inactive)
REMARK    1  A    between atoms: C5_5  and  N1_6 
REMARK    2  A    between atoms: N1_6  and  C7_8 
REMARK    3  A    between atoms: C11_14  and  O1_15 
REMARK    4  A    between atoms: C13_17  and  P1_18 
REMARK    5  A    between atoms: P1_18  and  O2_19 
ROOT
HETATM    1  C7  UNL     1      22.918   1.812  51.839  1.00  0.00     0.140 A 
HETATM    2  N2  UNL     1      23.168   2.630  50.790  1.00  0.00    -0.224 NA
HETATM    3  C8  UNL     1      24.398   2.870  50.327  1.00  0.00     0.236 A 
HETATM    4  N3  UNL     1      25.481   2.306  50.884  1.00  0.00    -0.241 NA
HETATM    5  C9  UNL     1      25.341   1.483  51.926  1.00  0.00     0.074 A 
HETATM    6  C10 UNL     1      26.381   0.860  52.582  1.00  0.00     0.070 A 
HETATM    7  C11 UNL     1      26.207   0.020  53.672  1.00  0.00     0.083 A 
HETATM    8  C13 UNL     1      24.894  -0.187  54.107  1.00  0.00     0.027 A 
HETATM    9  C14 UNL     1      23.877   0.436  53.448  1.00  0.00     0.034 A 
HETATM   10  C15 UNL     1      24.059   1.265  52.367  1.00  0.00     0.040 A 
ENDROOT
BRANCH   1  11
HETATM   11  N1  UNL     1      21.552   1.617  52.167  1.00  0.00    -0.358 N 
HETATM   12  C6  UNL     1      20.505   2.396  52.790  1.00  0.00     0.152 C 
BRANCH  11  13
HETATM   13  C5  UNL     1      20.977   0.283  51.861  1.00  0.00     0.133 A 
HETATM   14  C4  UNL     1      20.638  -0.384  53.129  1.00  0.00     0.003 A 
HETATM   15  C3  UNL     1      19.433  -0.833  53.515  1.00  0.00     0.010 A 
HETATM   16  C2  UNL     1      18.379  -0.607  52.530  1.00  0.00    -0.029 A 
HETATM   17  C1  UNL     1      17.161  -1.013  52.819  1.00  0.00     0.025 C 
HETATM   18  C17 UNL     1      18.590   0.031  51.262  1.00  0.00     0.018 A 
HETATM   19  C16 UNL     1      19.808   0.442  50.962  1.00  0.00     0.022 A 
HETATM   20 BR1  UNL     1      17.179   0.308  49.996  1.00  0.00    -0.051 Br
ENDBRANCH  11  13
ENDBRANCH   1  11
BRANCH   8  21
HETATM   21  P1  UNL     1      24.675  -1.298  55.550  1.00  0.00     0.045 P 
HETATM   22  H14 UNL     1      25.197  -0.712  56.775  1.00  0.00     0.092 HD
BRANCH  21  23
HETATM   23  O2  UNL     1      22.966  -1.635  55.705  1.00  0.00    -0.371 OA
HETATM   24  H15 UNL     1      22.745  -2.306  55.002  1.00  0.00     0.215 HD
ENDBRANCH  21  23
ENDBRANCH   8  21
BRANCH   7  25
HETATM   25  O1  UNL     1      27.276  -0.584  54.299  1.00  0.00    -0.355 OA
HETATM   26  C12 UNL     1      28.336   0.183  54.795  1.00  0.00     0.210 C 
ENDBRANCH   7  25
TORSDOF 5
ENDMDL
MODEL 6
REMARK VINA RESULT:      -7.1      3.846      4.880
REMARK  5 active torsions:
REMARK  status: ('A' for Active; 'I' for Inactive)
REMARK    1  A    between atoms: C5_5  and  N1_6 
REMARK    2  A    between atoms: N1_6  and  C7_8 
REMARK    3  A    between atoms: C11_14  and  O1_15 
REMARK    4  A    between atoms: C13_17  and  P1_18 
REMARK    5  A    between atoms: P1_18  and  O2_19 
ROOT
HETATM    1  C7  UNL     1      22.687   0.306  52.471  1.00  0.00     0.140 A 
HETATM    2  N2  UNL     1      22.392  -0.579  53.452  1.00  0.00    -0.224 NA
HETATM    3  C8  UNL     1      23.270  -0.956  54.386  1.00  0.00     0.236 A 
HETATM    4  N3  UNL     1      24.522  -0.474  54.407  1.00  0.00    -0.241 NA
HETATM    5  C9  UNL     1      24.914   0.404  53.481  1.00  0.00     0.074 A 
HETATM    6  C10 UNL     1      26.176   0.954  53.401  1.00  0.00     0.070 A 
HETATM    7  C11 UNL     1      26.559   1.854  52.418  1.00  0.00     0.083 A 
HETATM    8  C13 UNL     1      25.592   2.204  51.470  1.00  0.00     0.027 A 
HETATM    9  C14 UNL     1      24.350   1.654  51.563  1.00  0.00     0.034 A 
HETATM   10  C15 UNL     1      23.978   0.763  52.542  1.00  0.00     0.040 A 
ENDROOT
BRANCH   1  11
HETATM   11  N1  UNL     1      21.625   0.645  51.595  1.00  0.00    -0.358 N 
HETATM   12  C6  UNL     1      21.456   0.801  50.167  1.00  0.00     0.152 C 
BRANCH  11  13
HETATM   13  C5  UNL     1      20.322   0.977  52.224  1.00  0.00     0.133 A 
HETATM   14  C4  UNL     1      20.174   2.442  52.249  1.00  0.00     0.003 A 
HETATM   15  C3  UNL     1      19.190   3.168  51.694  1.00  0.00     0.010 A 
HETATM   16  C2  UNL     1      18.186   2.366  51.002  1.00  0.00    -0.029 A 
HETATM   17  C1  UNL     1      17.181   2.990  50.425  1.00  0.00     0.025 C 
HETATM   18  C17 UNL     1      18.226   0.934  50.913  1.00  0.00     0.018 A 
HETATM   19  C16 UNL     1      19.229   0.298  51.487  1.00  0.00     0.022 A 
HETATM   20 BR1  UNL     1      16.886  -0.083  49.995  1.00  0.00    -0.051 Br
ENDBRANCH  11  13
ENDBRANCH   1  11
BRANCH   8  21
HETATM   21  P1  UNL     1      26.110   3.395  50.175  1.00  0.00     0.045 P 
HETATM   22  H14 UNL     1      25.517   3.088  48.882  1.00  0.00     0.092 HD
BRANCH  21  23
HETATM   23  O2  UNL     1      25.639   4.994  50.706  1.00  0.00    -0.371 OA
HETATM   24  H15 UNL     1      26.298   5.629  50.311  1.00  0.00     0.215 HD
ENDBRANCH  21  23
ENDBRANCH   8  21
BRANCH   7  25
HETATM   25  O1  UNL     1      27.833   2.380  52.376  1.00  0.00    -0.355 OA
HETATM   26  C12 UNL     1      28.629   2.409  53.526  1.00  0.00     0.210 C 
ENDBRANCH   7  25
TORSDOF 5
ENDMDL
MODEL 7
REMARK VINA RESULT:      -7.1      1.805      2.365
REMARK  5 active torsions:
REMARK  status: ('A' for Active; 'I' for Inactive)
REMARK    1  A    between atoms: C5_5  and  N1_6 
REMARK    2  A    between atoms: N1_6  and  C7_8 
REMARK    3  A    between atoms: C11_14  and  O1_15 
REMARK    4  A    between atoms: C13_17  and  P1_18 
REMARK    5  A    between atoms: P1_18  and  O2_19 
ROOT
HETATM    1  C7  UNL     1      22.870   3.470  51.535  1.00  0.00     0.140 A 
HETATM    2  N2  UNL     1      21.531   3.409  51.348  1.00  0.00    -0.224 NA
HETATM    3  C8  UNL     1      20.776   2.399  51.788  1.00  0.00     0.236 A 
HETATM    4  N3  UNL     1      21.309   1.362  52.453  1.00  0.00    -0.241 NA
HETATM    5  C9  UNL     1      22.623   1.326  52.688  1.00  0.00     0.074 A 
HETATM    6  C10 UNL     1      23.277   0.308  53.349  1.00  0.00     0.070 A 
HETATM    7  C11 UNL     1      24.646   0.290  53.566  1.00  0.00     0.083 A 
HETATM    8  C13 UNL     1      25.378   1.377  53.077  1.00  0.00     0.027 A 
HETATM    9  C14 UNL     1      24.717   2.376  52.427  1.00  0.00     0.034 A 
HETATM   10  C15 UNL     1      23.359   2.386  52.218  1.00  0.00     0.040 A 
ENDROOT
BRANCH   1  11
HETATM   11  N1  UNL     1      23.515   4.639  51.058  1.00  0.00    -0.358 N 
HETATM   12  C6  UNL     1      23.950   5.898  51.622  1.00  0.00     0.152 C 
BRANCH  11  13
HETATM   13  C5  UNL     1      23.829   4.683  49.608  1.00  0.00     0.133 A 
HETATM   14  C4  UNL     1      23.294   5.936  49.050  1.00  0.00     0.003 A 
HETATM   15  C3  UNL     1      23.980   6.902  48.418  1.00  0.00     0.010 A 
HETATM   16  C2  UNL     1      25.409   6.628  48.300  1.00  0.00    -0.029 A 
HETATM   17  C1  UNL     1      26.165   7.519  47.695  1.00  0.00     0.025 C 
HETATM   18  C17 UNL     1      26.042   5.443  48.805  1.00  0.00     0.018 A 
HETATM   19  C16 UNL     1      25.293   4.543  49.413  1.00  0.00     0.022 A 
HETATM   20 BR1  UNL     1      27.922   5.120  48.630  1.00  0.00    -0.051 Br
ENDBRANCH  11  13
ENDBRANCH   1  11
BRANCH   8  21
HETATM   21  P1  UNL     1      27.188   1.344  53.370  1.00  0.00     0.045 P 
HETATM   22  H14 UNL     1      27.936   1.134  52.139  1.00  0.00     0.092 HD
BRANCH  21  23
HETATM   23  O2  UNL     1      27.633   2.864  54.112  1.00  0.00    -0.371 OA
HETATM   24  H15 UNL     1      27.648   3.542  53.382  1.00  0.00     0.215 HD
ENDBRANCH  21  23
ENDBRANCH   8  21
BRANCH   7  25
HETATM   25  O1  UNL     1      25.260  -0.749  54.233  1.00  0.00    -0.355 OA
HETATM   26  C12 UNL     1      24.725  -1.241  55.428  1.00  0.00     0.210 C 
ENDBRANCH   7  25
TORSDOF 5
ENDMDL
MODEL 8
REMARK VINA RESULT:      -7.1      3.257      4.540
REMARK  5 active torsions:
REMARK  status: ('A' for Active; 'I' for Inactive)
REMARK    1  A    between atoms: C5_5  and  N1_6 
REMARK    2  A    between atoms: N1_6  and  C7_8 
REMARK    3  A    between atoms: C11_14  and  O1_15 
REMARK    4  A    between atoms: C13_17  and  P1_18 
REMARK    5  A    between atoms: P1_18  and  O2_19 
ROOT
HETATM    1  C7  UNL     1      24.273   3.171  51.293  1.00  0.00     0.140 A 
HETATM    2  N2  UNL     1      25.058   3.906  50.471  1.00  0.00    -0.224 NA
HETATM    3  C8  UNL     1      26.320   3.579  50.180  1.00  0.00     0.236 A 
HETATM    4  N3  UNL     1      26.898   2.483  50.694  1.00  0.00    -0.241 NA
HETATM    5  C9  UNL     1      26.208   1.690  51.518  1.00  0.00     0.074 A 
HETATM    6  C10 UNL     1      26.704   0.549  52.111  1.00  0.00     0.070 A 
HETATM    7  C11 UNL     1      25.968  -0.248  52.975  1.00  0.00     0.083 A 
HETATM    8  C13 UNL     1      24.654   0.152  53.240  1.00  0.00     0.027 A 
HETATM    9  C14 UNL     1      24.178   1.282  52.645  1.00  0.00     0.034 A 
HETATM   10  C15 UNL     1      24.915   2.065  51.788  1.00  0.00     0.040 A 
ENDROOT
BRANCH   1  11
HETATM   11  N1  UNL     1      22.938   3.623  51.452  1.00  0.00    -0.358 N 
HETATM   12  C6  UNL     1      22.178   4.299  52.480  1.00  0.00     0.152 C 
BRANCH  11  13
HETATM   13  C5  UNL     1      22.001   3.336  50.337  1.00  0.00     0.133 A 
HETATM   14  C4  UNL     1      22.140   1.920  49.959  1.00  0.00     0.003 A 
HETATM   15  C3  UNL     1      21.179   0.981  49.956  1.00  0.00     0.010 A 
HETATM   16  C2  UNL     1      19.873   1.476  50.382  1.00  0.00    -0.029 A 
HETATM   17  C1  UNL     1      18.867   0.628  50.412  1.00  0.00     0.025 C 
HETATM   18  C17 UNL     1      19.618   2.834  50.772  1.00  0.00     0.018 A 
HETATM   19  C16 UNL     1      20.620   3.692  50.746  1.00  0.00     0.022 A 
HETATM   20 BR1  UNL     1      17.888   3.443  51.326  1.00  0.00    -0.051 Br
ENDBRANCH  11  13
ENDBRANCH   1  11
BRANCH   8  21
HETATM   21  P1  UNL     1      23.690  -0.909  54.383  1.00  0.00     0.045 P 
HETATM   22  H14 UNL     1      23.108  -2.056  53.703  1.00  0.00     0.092 HD
BRANCH  21  23
HETATM   23  O2  UNL     1      24.767  -1.429  55.659  1.00  0.00    -0.371 OA
HETATM   24  H15 UNL     1      25.001  -0.613  56.182  1.00  0.00     0.215 HD
ENDBRANCH  21  23
ENDBRANCH   8  21
BRANCH   7  25
HETATM   25  O1  UNL     1      26.503  -1.383  53.546  1.00  0.00    -0.355 OA
HETATM   26  C12 UNL     1      27.302  -2.250  52.792  1.00  0.00     0.210 C 
ENDBRANCH   7  25
TORSDOF 5
ENDMDL
MODEL 9
REMARK VINA RESULT:      -7.0      2.041      2.578
REMARK  5 active torsions:
REMARK  status: ('A' for Active; 'I' for Inactive)
REMARK    1  A    between atoms: C5_5  and  N1_6 
REMARK    2  A    between atoms: N1_6  and  C7_8 
REMARK    3  A    between atoms: C11_14  and  O1_15 
REMARK    4  A    between atoms: C13_17  and  P1_18 
REMARK    5  A    between atoms: P1_18  and  O2_19 
ROOT
HETATM    1  C7  UNL     1      23.409   2.301  52.527  1.00  0.00     0.140 A 
HETATM    2  N2  UNL     1      22.219   1.658  52.471  1.00  0.00    -0.224 NA
HETATM    3  C8  UNL     1      22.069   0.367  52.780  1.00  0.00     0.236 A 
HETATM    4  N3  UNL     1      23.109  -0.386  53.171  1.00  0.00    -0.241 NA
HETATM    5  C9  UNL     1      24.327   0.154  53.258  1.00  0.00     0.074 A 
HETATM    6  C10 UNL     1      25.465  -0.527  53.636  1.00  0.00     0.070 A 
HETATM    7  C11 UNL     1      26.721   0.057  53.704  1.00  0.00     0.083 A 
HETATM    8  C13 UNL     1      26.808   1.411  53.365  1.00  0.00     0.027 A 
HETATM    9  C14 UNL     1      25.675   2.070  52.994  1.00  0.00     0.034 A 
HETATM   10  C15 UNL     1      24.433   1.484  52.931  1.00  0.00     0.040 A 
ENDROOT
BRANCH   1  11
HETATM   11  N1  UNL     1      23.386   3.686  52.224  1.00  0.00    -0.358 N 
HETATM   12  C6  UNL     1      23.416   4.922  52.975  1.00  0.00     0.152 C 
BRANCH  11  13
HETATM   13  C5  UNL     1      23.264   4.053  50.791  1.00  0.00     0.133 A 
HETATM   14  C4  UNL     1      23.566   2.864  49.976  1.00  0.00     0.003 A 
HETATM   15  C3  UNL     1      22.766   2.273  49.073  1.00  0.00     0.010 A 
HETATM   16  C2  UNL     1      21.466   2.922  48.926  1.00  0.00    -0.029 A 
HETATM   17  C1  UNL     1      20.612   2.413  48.064  1.00  0.00     0.025 C 
HETATM   18  C17 UNL     1      21.062   4.084  49.665  1.00  0.00     0.018 A 
HETATM   19  C16 UNL     1      21.911   4.601  50.533  1.00  0.00     0.022 A 
HETATM   20 BR1  UNL     1      19.346   4.906  49.442  1.00  0.00    -0.051 Br
ENDBRANCH  11  13
ENDBRANCH   1  11
BRANCH   8  21
HETATM   21  P1  UNL     1      28.473   2.172  53.458  1.00  0.00     0.045 P 
HETATM   22  H14 UNL     1      28.419   3.621  53.332  1.00  0.00     0.092 HD
BRANCH  21  23
HETATM   23  O2  UNL     1      29.182   1.712  54.989  1.00  0.00    -0.371 OA
HETATM   24  H15 UNL     1      30.170   1.739  54.863  1.00  0.00     0.215 HD
ENDBRANCH  21  23
ENDBRANCH   8  21
BRANCH   7  25
HETATM   25  O1  UNL     1      27.833  -0.662  54.088  1.00  0.00    -0.355 OA
HETATM   26  C12 UNL     1      28.446  -1.553  53.200  1.00  0.00     0.210 C 
ENDBRANCH   7  25
TORSDOF 5
ENDMDL
