MODEL 1
REMARK VINA RESULT:      -8.3      0.000      0.000
REMARK  4 active torsions:
REMARK  status: ('A' for Active; 'I' for Inactive)
REMARK    1  A    between atoms: C3_3  and  O1_4 
REMARK    2  A    between atoms: C4_5  and  O2_6 
REMARK    3  A    between atoms: C12_14  and  N1_15 
REMARK    4  A    between atoms: C13_16  and  C14_17 
ROOT
HETATM    1  C1  UNL     1      31.176   8.541  48.339  1.00  0.00     0.080 C 
HETATM    2  C2  UNL     1      29.737   8.150  48.544  1.00  0.00     0.087 C 
HETATM    3  C3  UNL     1      29.344   9.060  49.454  1.00  0.00     0.130 C 
HETATM    4  C4  UNL     1      28.001   9.138  49.986  1.00  0.00     0.118 C 
HETATM    5  C5  UNL     1      26.874   8.535  49.808  1.00  0.00     0.041 C 
HETATM    6  C6  UNL     1      25.487   8.409  50.183  1.00  0.00     0.018 C 
HETATM    7  C7  UNL     1      24.643   7.470  49.846  1.00  0.00    -0.021 C 
HETATM    8  C8  UNL     1      24.536   6.500  48.756  1.00  0.00     0.055 C 
HETATM    9  C9  UNL     1      25.728   5.650  48.507  1.00  0.00    -0.004 C 
HETATM   10  C10 UNL     1      26.985   6.028  48.458  1.00  0.00     0.006 C 
HETATM   11  C11 UNL     1      28.163   5.141  48.653  1.00  0.00     0.076 C 
HETATM   12  C12 UNL     1      29.243   5.739  48.272  1.00  0.00     0.170 C 
HETATM   13  O3  UNL     1      29.435   7.029  47.732  1.00  0.00    -0.294 OA
HETATM   14  S1  UNL     1      27.423   7.715  48.254  1.00  0.00    -0.088 SA
ENDROOT
BRANCH  12  15
HETATM   15  N1  UNL     1      30.467   5.035  48.391  1.00  0.00    -0.237 NA
HETATM   16  C13 UNL     1      31.199   4.787  47.362  1.00  0.00     0.120 C 
BRANCH  16  17
HETATM   17  C14 UNL     1      32.425   4.063  47.638  1.00  0.00     0.024 C 
HETATM   18  C15 UNL     1      33.539   4.263  46.969  1.00  0.00    -0.049 C 
HETATM   19  C16 UNL     1      33.844   5.206  45.830  1.00  0.00     0.066 C 
HETATM   20  C18 UNL     1      34.897   3.670  47.034  1.00  0.00     0.304 C 
HETATM   21  C17 UNL     1      34.643   4.381  44.846  1.00  0.00     0.274 C 
HETATM   22  N2  UNL     1      35.205   3.295  45.646  1.00  0.00     0.087 N 
HETATM   23  H18 UNL     1      34.692   2.408  45.458  1.00  0.00     0.316 HD
ENDBRANCH  16  17
ENDBRANCH  12  15
BRANCH   3  24
HETATM   24  O1  UNL     1      30.109  10.038  50.003  1.00  0.00    -0.356 OA
HETATM   25  H4  UNL     1      29.742  10.766  50.592  1.00  0.00     0.218 HD
ENDBRANCH   3  24
BRANCH   4  26
HETATM   26  O2  UNL     1      27.469   9.974  50.946  1.00  0.00    -0.357 OA
HETATM   27  H5  UNL     1      27.182  10.928  50.766  1.00  0.00     0.218 HD
ENDBRANCH   4  26
TORSDOF 4
ENDMDL
MODEL 2
REMARK VINA RESULT:      -8.2      8.876     12.140
REMARK  4 active torsions:
REMARK  status: ('A' for Active; 'I' for Inactive)
REMARK    1  A    between atoms: C3_3  and  O1_4 
REMARK    2  A    between atoms: C4_5  and  O2_6 
REMARK    3  A    between atoms: C12_14  and  N1_15 
REMARK    4  A    between atoms: C13_16  and  C14_17 
ROOT
HETATM    1  C1  UNL     1      21.428  -1.375  53.920  1.00  0.00     0.080 C 
HETATM    2  C2  UNL     1      22.801  -0.769  53.792  1.00  0.00     0.087 C 
HETATM    3  C3  UNL     1      23.388  -1.207  54.921  1.00  0.00     0.130 C 
HETATM    4  C4  UNL     1      24.759  -0.916  55.278  1.00  0.00     0.118 C 
HETATM    5  C5  UNL     1      25.765  -0.299  54.757  1.00  0.00     0.041 C 
HETATM    6  C6  UNL     1      27.139   0.123  54.890  1.00  0.00     0.018 C 
HETATM    7  C7  UNL     1      27.803   0.953  54.129  1.00  0.00    -0.021 C 
HETATM    8  C8  UNL     1      27.688   1.435  52.753  1.00  0.00     0.055 C 
HETATM    9  C9  UNL     1      26.365   1.977  52.351  1.00  0.00    -0.004 C 
HETATM   10  C10 UNL     1      25.181   1.465  52.597  1.00  0.00     0.006 C 
HETATM   11  C11 UNL     1      23.895   2.214  52.588  1.00  0.00     0.076 C 
HETATM   12  C12 UNL     1      22.898   1.393  52.588  1.00  0.00     0.170 C 
HETATM   13  O3  UNL     1      22.872  -0.018  52.591  1.00  0.00    -0.294 OA
HETATM   14  S1  UNL     1      24.996  -0.210  53.087  1.00  0.00    -0.088 SA
ENDROOT
BRANCH  12  15
HETATM   15  N1  UNL     1      21.590   1.939  52.583  1.00  0.00    -0.237 NA
HETATM   16  C13 UNL     1      21.343   3.082  52.047  1.00  0.00     0.120 C 
BRANCH  16  17
HETATM   17  C14 UNL     1      19.960   3.509  52.114  1.00  0.00     0.024 C 
HETATM   18  C15 UNL     1      19.215   3.694  51.045  1.00  0.00    -0.049 C 
HETATM   19  C16 UNL     1      19.546   3.535  49.580  1.00  0.00     0.066 C 
HETATM   20  C18 UNL     1      17.813   4.126  50.832  1.00  0.00     0.304 C 
HETATM   21  C17 UNL     1      18.947   4.753  48.914  1.00  0.00     0.274 C 
HETATM   22  N2  UNL     1      17.904   5.203  49.834  1.00  0.00     0.087 N 
HETATM   23  H18 UNL     1      18.220   6.054  50.346  1.00  0.00     0.316 HD
ENDBRANCH  16  17
ENDBRANCH  12  15
BRANCH   3  24
HETATM   24  O1  UNL     1      22.821  -1.981  55.880  1.00  0.00    -0.356 OA
HETATM   25  H4  UNL     1      21.884  -1.846  56.222  1.00  0.00     0.218 HD
ENDBRANCH   3  24
BRANCH   4  26
HETATM   26  O2  UNL     1      25.476  -1.250  56.409  1.00  0.00    -0.357 OA
HETATM   27  H5  UNL     1      25.051  -1.504  57.291  1.00  0.00     0.218 HD
ENDBRANCH   4  26
TORSDOF 4
ENDMDL
MODEL 3
REMARK VINA RESULT:      -8.1      9.271     12.771
REMARK  4 active torsions:
REMARK  status: ('A' for Active; 'I' for Inactive)
REMARK    1  A    between atoms: C3_3  and  O1_4 
REMARK    2  A    between atoms: C4_5  and  O2_6 
REMARK    3  A    between atoms: C12_14  and  N1_15 
REMARK    4  A    between atoms: C13_16  and  C14_17 
ROOT
HETATM    1  C1  UNL     1      21.429  -1.537  54.019  1.00  0.00     0.080 C 
HETATM    2  C2  UNL     1      22.771  -0.875  53.848  1.00  0.00     0.087 C 
HETATM    3  C3  UNL     1      23.401  -1.262  54.971  1.00  0.00     0.130 C 
HETATM    4  C4  UNL     1      24.766  -0.905  55.291  1.00  0.00     0.118 C 
HETATM    5  C5  UNL     1      25.733  -0.257  54.734  1.00  0.00     0.041 C 
HETATM    6  C6  UNL     1      27.089   0.227  54.826  1.00  0.00     0.018 C 
HETATM    7  C7  UNL     1      27.700   1.067  54.034  1.00  0.00    -0.021 C 
HETATM    8  C8  UNL     1      27.533   1.513  52.651  1.00  0.00     0.055 C 
HETATM    9  C9  UNL     1      26.180   1.989  52.268  1.00  0.00    -0.004 C 
HETATM   10  C10 UNL     1      25.025   1.432  52.552  1.00  0.00     0.006 C 
HETATM   11  C11 UNL     1      23.708   2.124  52.556  1.00  0.00     0.076 C 
HETATM   12  C12 UNL     1      22.747   1.262  52.596  1.00  0.00     0.170 C 
HETATM   13  O3  UNL     1      22.783  -0.149  52.630  1.00  0.00    -0.294 OA
HETATM   14  S1  UNL     1      24.924  -0.238  53.081  1.00  0.00    -0.088 SA
ENDROOT
BRANCH  12  15
HETATM   15  N1  UNL     1      21.417   1.750  52.609  1.00  0.00    -0.237 NA
HETATM   16  C13 UNL     1      20.622   1.555  51.617  1.00  0.00     0.120 C 
BRANCH  16  17
HETATM   17  C14 UNL     1      19.292   2.110  51.774  1.00  0.00     0.024 C 
HETATM   18  C15 UNL     1      18.198   1.436  51.492  1.00  0.00    -0.049 C 
HETATM   19  C16 UNL     1      18.019   0.030  50.971  1.00  0.00     0.066 C 
HETATM   20  C18 UNL     1      16.751   1.755  51.549  1.00  0.00     0.304 C 
HETATM   21  C17 UNL     1      16.960   0.146  49.898  1.00  0.00     0.274 C 
HETATM   22  N2  UNL     1      16.234   1.372  50.226  1.00  0.00     0.087 N 
HETATM   23  H18 UNL     1      16.504   2.135  49.570  1.00  0.00     0.316 HD
ENDBRANCH  16  17
ENDBRANCH  12  15
BRANCH   3  24
HETATM   24  O1  UNL     1      22.890  -2.039  55.960  1.00  0.00    -0.356 OA
HETATM   25  H4  UNL     1      22.929  -3.044  55.954  1.00  0.00     0.218 HD
ENDBRANCH   3  24
BRANCH   4  26
HETATM   26  O2  UNL     1      25.521  -1.183  56.412  1.00  0.00    -0.357 OA
HETATM   27  H5  UNL     1      26.266  -0.589  56.751  1.00  0.00     0.218 HD
ENDBRANCH   4  26
TORSDOF 4
ENDMDL
MODEL 4
REMARK VINA RESULT:      -8.0      3.333      7.672
REMARK  4 active torsions:
REMARK  status: ('A' for Active; 'I' for Inactive)
REMARK    1  A    between atoms: C3_3  and  O1_4 
REMARK    2  A    between atoms: C4_5  and  O2_6 
REMARK    3  A    between atoms: C12_14  and  N1_15 
REMARK    4  A    between atoms: C13_16  and  C14_17 
ROOT
HETATM    1  C1  UNL     1      32.827   2.815  47.580  1.00  0.00     0.080 C 
HETATM    2  C2  UNL     1      33.153   4.285  47.552  1.00  0.00     0.087 C 
HETATM    3  C3  UNL     1      34.311   4.311  48.235  1.00  0.00     0.130 C 
HETATM    4  C4  UNL     1      35.074   5.516  48.478  1.00  0.00     0.118 C 
HETATM    5  C5  UNL     1      34.998   6.766  48.167  1.00  0.00     0.041 C 
HETATM    6  C6  UNL     1      35.570   8.086  48.277  1.00  0.00     0.018 C 
HETATM    7  C7  UNL     1      35.043   9.224  47.911  1.00  0.00    -0.021 C 
HETATM    8  C8  UNL     1      34.012   9.646  46.963  1.00  0.00     0.055 C 
HETATM    9  C9  UNL     1      32.697   8.963  47.069  1.00  0.00    -0.004 C 
HETATM   10  C10 UNL     1      32.472   7.677  47.217  1.00  0.00     0.006 C 
HETATM   11  C11 UNL     1      31.223   7.074  47.756  1.00  0.00     0.076 C 
HETATM   12  C12 UNL     1      31.198   5.805  47.517  1.00  0.00     0.170 C 
HETATM   13  O3  UNL     1      32.132   4.979  46.855  1.00  0.00    -0.294 OA
HETATM   14  S1  UNL     1      33.717   6.488  46.876  1.00  0.00    -0.088 SA
ENDROOT
BRANCH  12  15
HETATM   15  N1  UNL     1      30.075   5.068  47.966  1.00  0.00    -0.237 NA
HETATM   16  C13 UNL     1      28.940   5.636  48.173  1.00  0.00     0.120 C 
BRANCH  16  17
HETATM   17  C14 UNL     1      27.882   4.755  48.628  1.00  0.00     0.024 C 
HETATM   18  C15 UNL     1      26.684   5.186  48.958  1.00  0.00    -0.049 C 
HETATM   19  C16 UNL     1      26.112   6.584  48.964  1.00  0.00     0.066 C 
HETATM   20  C18 UNL     1      25.453   4.523  49.450  1.00  0.00     0.304 C 
HETATM   21  C17 UNL     1      25.353   6.686  50.267  1.00  0.00     0.274 C 
HETATM   22  N2  UNL     1      25.060   5.302  50.635  1.00  0.00     0.087 N 
HETATM   23  H18 UNL     1      25.685   4.997  51.411  1.00  0.00     0.316 HD
ENDBRANCH  16  17
ENDBRANCH  12  15
BRANCH   3  24
HETATM   24  O1  UNL     1      34.950   3.248  48.786  1.00  0.00    -0.356 OA
HETATM   25  H4  UNL     1      34.721   2.868  49.689  1.00  0.00     0.218 HD
ENDBRANCH   3  24
BRANCH   4  26
HETATM   26  O2  UNL     1      36.239   5.705  49.194  1.00  0.00    -0.357 OA
HETATM   27  H5  UNL     1      36.293   5.664  50.203  1.00  0.00     0.218 HD
ENDBRANCH   4  26
TORSDOF 4
ENDMDL
MODEL 5
REMARK VINA RESULT:      -7.9      8.395     10.592
REMARK  4 active torsions:
REMARK  status: ('A' for Active; 'I' for Inactive)
REMARK    1  A    between atoms: C3_3  and  O1_4 
REMARK    2  A    between atoms: C4_5  and  O2_6 
REMARK    3  A    between atoms: C12_14  and  N1_15 
REMARK    4  A    between atoms: C13_16  and  C14_17 
ROOT
HETATM    1  C1  UNL     1      21.874  -0.609  54.960  1.00  0.00     0.080 C 
HETATM    2  C2  UNL     1      21.319   0.136  53.775  1.00  0.00     0.087 C 
HETATM    3  C3  UNL     1      20.202  -0.569  53.521  1.00  0.00     0.130 C 
HETATM    4  C4  UNL     1      19.270  -0.244  52.464  1.00  0.00     0.118 C 
HETATM    5  C5  UNL     1      19.134   0.676  51.568  1.00  0.00     0.041 C 
HETATM    6  C6  UNL     1      18.366   1.197  50.463  1.00  0.00     0.018 C 
HETATM    7  C7  UNL     1      18.690   2.158  49.640  1.00  0.00    -0.021 C 
HETATM    8  C8  UNL     1      19.600   3.303  49.673  1.00  0.00     0.055 C 
HETATM    9  C9  UNL     1      21.009   3.018  50.044  1.00  0.00    -0.004 C 
HETATM   10  C10 UNL     1      21.441   2.255  51.023  1.00  0.00     0.006 C 
HETATM   11  C11 UNL     1      22.791   1.635  51.105  1.00  0.00     0.076 C 
HETATM   12  C12 UNL     1      23.006   1.185  52.297  1.00  0.00     0.170 C 
HETATM   13  O3  UNL     1      22.187   1.207  53.446  1.00  0.00    -0.294 OA
HETATM   14  S1  UNL     1      20.386   1.780  52.342  1.00  0.00    -0.088 SA
ENDROOT
BRANCH  12  15
HETATM   15  N1  UNL     1      24.250   0.557  52.554  1.00  0.00    -0.237 NA
HETATM   16  C13 UNL     1      25.306   0.865  51.887  1.00  0.00     0.120 C 
BRANCH  16  17
HETATM   17  C14 UNL     1      26.506   0.143  52.263  1.00  0.00     0.024 C 
HETATM   18  C15 UNL     1      27.392   0.620  53.110  1.00  0.00    -0.049 C 
HETATM   19  C16 UNL     1      27.423   1.928  53.863  1.00  0.00     0.066 C 
HETATM   20  C18 UNL     1      28.676   0.111  53.649  1.00  0.00     0.304 C 
HETATM   21  C17 UNL     1      28.848   2.418  53.731  1.00  0.00     0.274 C 
HETATM   22  N2  UNL     1      29.627   1.215  53.446  1.00  0.00     0.087 N 
HETATM   23  H18 UNL     1      29.897   1.192  52.439  1.00  0.00     0.316 HD
ENDBRANCH  16  17
ENDBRANCH  12  15
BRANCH   3  24
HETATM   24  O1  UNL     1      19.763  -1.662  54.195  1.00  0.00    -0.356 OA
HETATM   25  H4  UNL     1      20.375  -2.364  54.575  1.00  0.00     0.218 HD
ENDBRANCH   3  24
BRANCH   4  26
HETATM   26  O2  UNL     1      18.121  -0.892  52.057  1.00  0.00    -0.357 OA
HETATM   27  H5  UNL     1      17.193  -0.498  52.140  1.00  0.00     0.218 HD
ENDBRANCH   4  26
TORSDOF 4
ENDMDL
MODEL 6
REMARK VINA RESULT:      -7.8      4.665      6.364
REMARK  4 active torsions:
REMARK  status: ('A' for Active; 'I' for Inactive)
REMARK    1  A    between atoms: C3_3  and  O1_4 
REMARK    2  A    between atoms: C4_5  and  O2_6 
REMARK    3  A    between atoms: C12_14  and  N1_15 
REMARK    4  A    between atoms: C13_16  and  C14_17 
ROOT
HETATM    1  C1  UNL     1      27.528   4.772  48.796  1.00  0.00     0.080 C 
HETATM    2  C2  UNL     1      26.132   5.150  49.215  1.00  0.00     0.087 C 
HETATM    3  C3  UNL     1      26.287   6.456  49.498  1.00  0.00     0.130 C 
HETATM    4  C4  UNL     1      25.211   7.317  49.935  1.00  0.00     0.118 C 
HETATM    5  C5  UNL     1      23.940   7.219  50.139  1.00  0.00     0.041 C 
HETATM    6  C6  UNL     1      22.719   7.864  50.556  1.00  0.00     0.018 C 
HETATM    7  C7  UNL     1      21.559   7.313  50.799  1.00  0.00    -0.021 C 
HETATM    8  C8  UNL     1      20.884   6.075  50.408  1.00  0.00     0.055 C 
HETATM    9  C9  UNL     1      21.637   4.814  50.629  1.00  0.00    -0.004 C 
HETATM   10  C10 UNL     1      22.899   4.576  50.354  1.00  0.00     0.006 C 
HETATM   11  C11 UNL     1      23.731   3.506  50.969  1.00  0.00     0.076 C 
HETATM   12  C12 UNL     1      24.825   3.348  50.300  1.00  0.00     0.170 C 
HETATM   13  O3  UNL     1      25.295   4.008  49.144  1.00  0.00    -0.294 OA
HETATM   14  S1  UNL     1      23.805   5.607  49.261  1.00  0.00    -0.088 SA
ENDROOT
BRANCH  12  15
HETATM   15  N1  UNL     1      25.741   2.366  50.750  1.00  0.00    -0.237 NA
HETATM   16  C13 UNL     1      25.401   1.481  51.619  1.00  0.00     0.120 C 
BRANCH  16  17
HETATM   17  C14 UNL     1      26.443   0.540  51.981  1.00  0.00     0.024 C 
HETATM   18  C15 UNL     1      27.322   0.775  52.931  1.00  0.00    -0.049 C 
HETATM   19  C16 UNL     1      27.492   1.974  53.833  1.00  0.00     0.066 C 
HETATM   20  C18 UNL     1      28.466   0.012  53.484  1.00  0.00     0.304 C 
HETATM   21  C17 UNL     1      28.981   2.240  53.847  1.00  0.00     0.274 C 
HETATM   22  N2  UNL     1      29.588   0.964  53.471  1.00  0.00     0.087 N 
HETATM   23  H18 UNL     1      29.930   1.005  52.487  1.00  0.00     0.316 HD
ENDBRANCH  16  17
ENDBRANCH  12  15
BRANCH   3  24
HETATM   24  O1  UNL     1      27.438   7.171  49.414  1.00  0.00    -0.356 OA
HETATM   25  H4  UNL     1      27.566   8.071  49.844  1.00  0.00     0.218 HD
ENDBRANCH   3  24
BRANCH   4  26
HETATM   26  O2  UNL     1      25.225   8.647  50.304  1.00  0.00    -0.357 OA
HETATM   27  H5  UNL     1      24.841   9.392  49.739  1.00  0.00     0.218 HD
ENDBRANCH   4  26
TORSDOF 4
ENDMDL
MODEL 7
REMARK VINA RESULT:      -7.6     10.194     14.288
REMARK  4 active torsions:
REMARK  status: ('A' for Active; 'I' for Inactive)
REMARK    1  A    between atoms: C3_3  and  O1_4 
REMARK    2  A    between atoms: C4_5  and  O2_6 
REMARK    3  A    between atoms: C12_14  and  N1_15 
REMARK    4  A    between atoms: C13_16  and  C14_17 
ROOT
HETATM    1  C1  UNL     1      18.054  -0.473  52.504  1.00  0.00     0.080 C 
HETATM    2  C2  UNL     1      19.522  -0.148  52.577  1.00  0.00     0.087 C 
HETATM    3  C3  UNL     1      19.934  -1.006  53.529  1.00  0.00     0.130 C 
HETATM    4  C4  UNL     1      21.307  -1.117  53.971  1.00  0.00     0.118 C 
HETATM    5  C5  UNL     1      22.447  -0.594  53.668  1.00  0.00     0.041 C 
HETATM    6  C6  UNL     1      23.863  -0.517  53.935  1.00  0.00     0.018 C 
HETATM    7  C7  UNL     1      24.725   0.344  53.464  1.00  0.00    -0.021 C 
HETATM    8  C8  UNL     1      24.802   1.219  52.294  1.00  0.00     0.055 C 
HETATM    9  C9  UNL     1      23.639   2.112  52.059  1.00  0.00    -0.004 C 
HETATM   10  C10 UNL     1      22.364   1.802  52.129  1.00  0.00     0.006 C 
HETATM   11  C11 UNL     1      21.249   2.767  52.331  1.00  0.00     0.076 C 
HETATM   12  C12 UNL     1      20.116   2.203  52.076  1.00  0.00     0.170 C 
HETATM   13  O3  UNL     1      19.820   0.888  51.657  1.00  0.00    -0.294 OA
HETATM   14  S1  UNL     1      21.828   0.132  52.094  1.00  0.00    -0.088 SA
ENDROOT
BRANCH  12  15
HETATM   15  N1  UNL     1      18.940   2.981  52.221  1.00  0.00    -0.237 NA
HETATM   16  C13 UNL     1      18.052   3.031  51.292  1.00  0.00     0.120 C 
BRANCH  16  17
HETATM   17  C14 UNL     1      16.902   3.865  51.583  1.00  0.00     0.024 C 
HETATM   18  C15 UNL     1      15.743   3.376  51.969  1.00  0.00    -0.049 C 
HETATM   19  C16 UNL     1      15.309   1.948  52.197  1.00  0.00     0.066 C 
HETATM   20  C18 UNL     1      14.435   3.984  52.313  1.00  0.00     0.304 C 
HETATM   21  C17 UNL     1      13.942   1.852  51.558  1.00  0.00     0.274 C 
HETATM   22  N2  UNL     1      13.455   3.230  51.517  1.00  0.00     0.087 N 
HETATM   23  H18 UNL     1      13.513   3.603  50.546  1.00  0.00     0.316 HD
ENDBRANCH  16  17
ENDBRANCH  12  15
BRANCH   3  24
HETATM   24  O1  UNL     1      19.163  -1.893  54.207  1.00  0.00    -0.356 OA
HETATM   25  H4  UNL     1      18.194  -1.735  54.426  1.00  0.00     0.218 HD
ENDBRANCH   3  24
BRANCH   4  26
HETATM   26  O2  UNL     1      21.865  -1.905  54.957  1.00  0.00    -0.357 OA
HETATM   27  H5  UNL     1      22.261  -1.539  55.813  1.00  0.00     0.218 HD
ENDBRANCH   4  26
TORSDOF 4
ENDMDL
MODEL 8
REMARK VINA RESULT:      -7.6      4.780      7.125
REMARK  4 active torsions:
REMARK  status: ('A' for Active; 'I' for Inactive)
REMARK    1  A    between atoms: C3_3  and  O1_4 
REMARK    2  A    between atoms: C4_5  and  O2_6 
REMARK    3  A    between atoms: C12_14  and  N1_15 
REMARK    4  A    between atoms: C13_16  and  C14_17 
ROOT
HETATM    1  C1  UNL     1      23.255   4.007  51.009  1.00  0.00     0.080 C 
HETATM    2  C2  UNL     1      24.099   4.892  50.131  1.00  0.00     0.087 C 
HETATM    3  C3  UNL     1      23.173   5.392  49.293  1.00  0.00     0.130 C 
HETATM    4  C4  UNL     1      23.468   6.340  48.241  1.00  0.00     0.118 C 
HETATM    5  C5  UNL     1      24.498   6.986  47.808  1.00  0.00     0.041 C 
HETATM    6  C6  UNL     1      25.038   7.914  46.844  1.00  0.00     0.018 C 
HETATM    7  C7  UNL     1      26.292   8.210  46.626  1.00  0.00    -0.021 C 
HETATM    8  C8  UNL     1      27.535   8.135  47.392  1.00  0.00     0.055 C 
HETATM    9  C9  UNL     1      27.854   6.822  48.009  1.00  0.00    -0.004 C 
HETATM   10  C10 UNL     1      27.040   6.027  48.665  1.00  0.00     0.006 C 
HETATM   11  C11 UNL     1      27.241   4.568  48.878  1.00  0.00     0.076 C 
HETATM   12  C12 UNL     1      26.430   4.131  49.784  1.00  0.00     0.170 C 
HETATM   13  O3  UNL     1      25.453   4.809  50.544  1.00  0.00    -0.294 OA
HETATM   14  S1  UNL     1      25.510   6.608  49.298  1.00  0.00    -0.088 SA
ENDROOT
BRANCH  12  15
HETATM   15  N1  UNL     1      26.483   2.753  50.112  1.00  0.00    -0.237 NA
HETATM   16  C13 UNL     1      26.599   2.360  51.331  1.00  0.00     0.120 C 
BRANCH  16  17
HETATM   17  C14 UNL     1      26.637   0.922  51.514  1.00  0.00     0.024 C 
HETATM   18  C15 UNL     1      26.889   0.355  52.674  1.00  0.00    -0.049 C 
HETATM   19  C16 UNL     1      27.188   0.969  54.021  1.00  0.00     0.066 C 
HETATM   20  C18 UNL     1      26.997  -1.052  53.128  1.00  0.00     0.304 C 
HETATM   21  C17 UNL     1      28.344   0.161  54.567  1.00  0.00     0.274 C 
HETATM   22  N2  UNL     1      28.276  -1.112  53.852  1.00  0.00     0.087 N 
HETATM   23  H18 UNL     1      29.024  -1.158  53.128  1.00  0.00     0.316 HD
ENDBRANCH  16  17
ENDBRANCH  12  15
BRANCH   3  24
HETATM   24  O1  UNL     1      21.845   5.113  49.296  1.00  0.00    -0.356 OA
HETATM   25  H4  UNL     1      21.435   4.363  49.825  1.00  0.00     0.218 HD
ENDBRANCH   3  24
BRANCH   4  26
HETATM   26  O2  UNL     1      22.643   6.898  47.286  1.00  0.00    -0.357 OA
HETATM   27  H5  UNL     1      21.939   6.380  46.778  1.00  0.00     0.218 HD
ENDBRANCH   4  26
TORSDOF 4
ENDMDL
MODEL 9
REMARK VINA RESULT:      -7.5      7.778     11.427
REMARK  4 active torsions:
REMARK  status: ('A' for Active; 'I' for Inactive)
REMARK    1  A    between atoms: C3_3  and  O1_4 
REMARK    2  A    between atoms: C4_5  and  O2_6 
REMARK    3  A    between atoms: C12_14  and  N1_15 
REMARK    4  A    between atoms: C13_16  and  C14_17 
ROOT
HETATM    1  C1  UNL     1      22.411   3.486  51.207  1.00  0.00     0.080 C 
HETATM    2  C2  UNL     1      23.566   2.796  51.883  1.00  0.00     0.087 C 
HETATM    3  C3  UNL     1      24.609   3.285  51.188  1.00  0.00     0.130 C 
HETATM    4  C4  UNL     1      25.988   2.946  51.463  1.00  0.00     0.118 C 
HETATM    5  C5  UNL     1      26.638   2.236  52.322  1.00  0.00     0.041 C 
HETATM    6  C6  UNL     1      27.915   1.749  52.785  1.00  0.00     0.018 C 
HETATM    7  C7  UNL     1      28.148   0.828  53.682  1.00  0.00    -0.021 C 
HETATM    8  C8  UNL     1      27.412   0.249  54.806  1.00  0.00     0.055 C 
HETATM    9  C9  UNL     1      26.043  -0.247  54.515  1.00  0.00    -0.004 C 
HETATM   10  C10 UNL     1      25.109   0.348  53.810  1.00  0.00     0.006 C 
HETATM   11  C11 UNL     1      23.948  -0.326  53.167  1.00  0.00     0.076 C 
HETATM   12  C12 UNL     1      23.072   0.546  52.794  1.00  0.00     0.170 C 
HETATM   13  O3  UNL     1      23.073   1.953  52.911  1.00  0.00    -0.294 OA
HETATM   14  S1  UNL     1      25.192   2.063  53.448  1.00  0.00    -0.088 SA
ENDROOT
BRANCH  12  15
HETATM   15  N1  UNL     1      21.897   0.076  52.157  1.00  0.00    -0.237 NA
HETATM   16  C13 UNL     1      20.731   0.475  52.524  1.00  0.00     0.120 C 
BRANCH  16  17
HETATM   17  C14 UNL     1      19.622  -0.089  51.779  1.00  0.00     0.024 C 
HETATM   18  C15 UNL     1      18.763   0.647  51.109  1.00  0.00    -0.049 C 
HETATM   19  C16 UNL     1      18.680   2.144  50.935  1.00  0.00     0.066 C 
HETATM   20  C18 UNL     1      17.565   0.339  50.291  1.00  0.00     0.304 C 
HETATM   21  C17 UNL     1      17.215   2.475  51.112  1.00  0.00     0.274 C 
HETATM   22  N2  UNL     1      16.516   1.224  50.822  1.00  0.00     0.087 N 
HETATM   23  H18 UNL     1      16.179   0.787  51.705  1.00  0.00     0.316 HD
ENDBRANCH  16  17
ENDBRANCH  12  15
BRANCH   3  24
HETATM   24  O1  UNL     1      24.552   4.161  50.153  1.00  0.00    -0.356 OA
HETATM   25  H4  UNL     1      25.355   4.645  49.789  1.00  0.00     0.218 HD
ENDBRANCH   3  24
BRANCH   4  26
HETATM   26  O2  UNL     1      27.146   3.326  50.814  1.00  0.00    -0.357 OA
HETATM   27  H5  UNL     1      28.058   2.939  51.018  1.00  0.00     0.218 HD
ENDBRANCH   4  26
TORSDOF 4
ENDMDL
