MODEL 1
REMARK VINA RESULT:      -8.5      0.000      0.000
REMARK  5 active torsions:
REMARK  status: ('A' for Active; 'I' for Inactive)
REMARK    1  A    between atoms: O1_2  and  C2_3 
REMARK    2  A    between atoms: C6_9  and  N3_10 
REMARK    3  A    between atoms: C10_14  and  N4_15 
REMARK    4  A    between atoms: C18_24  and  C19_25 
REMARK    5  A    between atoms: C19_25  and  O2_26 
ROOT
HETATM    1  N3  UNL     1      23.536   2.645  50.837  1.00  0.00    -0.307 N 
HETATM    2  C7  UNL     1      23.052   2.081  49.702  1.00  0.00     0.099 C 
HETATM    3  C8  UNL     1      23.404   3.054  48.914  1.00  0.00     0.020 C 
HETATM    4  C9  UNL     1      24.052   4.328  49.108  1.00  0.00     0.031 C 
HETATM    5  C10 UNL     1      24.592   5.309  49.792  1.00  0.00     0.037 C 
HETATM    6  C11 UNL     1      25.715   5.966  49.012  1.00  0.00     0.007 A 
HETATM    7  C12 UNL     1      26.031   7.056  48.267  1.00  0.00     0.015 A 
HETATM    8  C13 UNL     1      27.281   7.215  47.665  1.00  0.00     0.001 A 
HETATM    9  C14 UNL     1      28.204   6.214  47.854  1.00  0.00     0.001 A 
HETATM   10  C15 UNL     1      27.893   5.107  48.608  1.00  0.00     0.020 A 
HETATM   11  C16 UNL     1      26.680   4.904  49.221  1.00  0.00     0.017 A 
HETATM   12  S1  UNL     1      26.582   3.377  50.172  1.00  0.00    -0.099 SA
HETATM   13  C17 UNL     1      25.279   3.466  51.421  1.00  0.00     0.078 C 
HETATM   14  C18 UNL     1      24.046   3.276  51.939  1.00  0.00     0.048 C 
ENDROOT
BRANCH   1  15
HETATM   15  C6  UNL     1      23.191   1.516  51.689  1.00  0.00     0.148 A 
HETATM   16  N2  UNL     1      24.027   0.715  52.363  1.00  0.00    -0.223 NA
HETATM   17  C5  UNL     1      23.607  -0.343  53.120  1.00  0.00     0.236 A 
HETATM   18  N1  UNL     1      22.299  -0.629  53.221  1.00  0.00    -0.241 NA
HETATM   19  C4  UNL     1      21.347   0.081  52.606  1.00  0.00     0.074 A 
HETATM   20  C3  UNL     1      20.008  -0.146  52.663  1.00  0.00     0.070 A 
HETATM   21  C20 UNL     1      21.855   1.148  51.851  1.00  0.00     0.040 A 
HETATM   22  C2  UNL     1      19.086   0.635  52.002  1.00  0.00     0.076 A 
HETATM   23  C22 UNL     1      19.529   1.715  51.231  1.00  0.00    -0.028 A 
HETATM   24  C21 UNL     1      20.887   1.917  51.193  1.00  0.00     0.027 A 
HETATM   25  C23 UNL     1      18.620   2.625  50.473  1.00  0.00     0.051 C 
BRANCH  22  26
HETATM   26  O1  UNL     1      17.719   0.424  52.046  1.00  0.00    -0.355 OA
HETATM   27  C1  UNL     1      17.139  -0.747  52.584  1.00  0.00     0.210 C 
ENDBRANCH  22  26
ENDBRANCH   1  15
BRANCH  14  28
HETATM   28  C19 UNL     1      23.752   3.738  53.278  1.00  0.00     0.222 C 
BRANCH  28  29
HETATM   29  O2  UNL     1      23.793   5.131  53.346  1.00  0.00    -0.395 OA
HETATM   30  H18 UNL     1      23.288   5.470  52.546  1.00  0.00     0.209 HD
ENDBRANCH  28  29
ENDBRANCH  14  28
BRANCH   5  31
HETATM   31  N4  UNL     1      25.066   6.137  50.775  1.00  0.00    -0.398 N 
HETATM   32  H9  UNL     1      25.490   6.109  51.701  1.00  0.00     0.156 HD
HETATM   33  H10 UNL     1      25.032   7.182  50.692  1.00  0.00     0.156 HD
ENDBRANCH   5  31
TORSDOF 5
ENDMDL
MODEL 2
REMARK VINA RESULT:      -8.5      2.534      7.918
REMARK  5 active torsions:
REMARK  status: ('A' for Active; 'I' for Inactive)
REMARK    1  A    between atoms: O1_2  and  C2_3 
REMARK    2  A    between atoms: C6_9  and  N3_10 
REMARK    3  A    between atoms: C10_14  and  N4_15 
REMARK    4  A    between atoms: C18_24  and  C19_25 
REMARK    5  A    between atoms: C19_25  and  O2_26 
ROOT
HETATM    1  N3  UNL     1      23.022   4.126  50.118  1.00  0.00    -0.307 N 
HETATM    2  C7  UNL     1      22.854   3.484  48.934  1.00  0.00     0.099 C 
HETATM    3  C8  UNL     1      22.944   2.283  49.426  1.00  0.00     0.020 C 
HETATM    4  C9  UNL     1      23.175   1.744  50.744  1.00  0.00     0.031 C 
HETATM    5  C10 UNL     1      23.433   1.786  52.030  1.00  0.00     0.037 C 
HETATM    6  C11 UNL     1      22.731   0.661  52.765  1.00  0.00     0.007 A 
HETATM    7  C12 UNL     1      22.924  -0.558  53.333  1.00  0.00     0.015 A 
HETATM    8  C13 UNL     1      21.880  -1.298  53.892  1.00  0.00     0.001 A 
HETATM    9  C14 UNL     1      20.622  -0.745  53.852  1.00  0.00     0.001 A 
HETATM   10  C15 UNL     1      20.417   0.489  53.280  1.00  0.00     0.020 A 
HETATM   11  C16 UNL     1      21.410   1.256  52.717  1.00  0.00     0.017 A 
HETATM   12  S1  UNL     1      20.841   2.843  52.081  1.00  0.00    -0.099 SA
HETATM   13  C17 UNL     1      22.205   4.023  51.955  1.00  0.00     0.078 C 
HETATM   14  C18 UNL     1      23.199   4.704  51.345  1.00  0.00     0.048 C 
ENDROOT
BRANCH   1  15
HETATM   15  C6  UNL     1      22.853   5.460  49.556  1.00  0.00     0.148 A 
HETATM   16  N2  UNL     1      21.724   6.178  49.482  1.00  0.00    -0.223 NA
HETATM   17  C5  UNL     1      21.659   7.417  48.908  1.00  0.00     0.236 A 
HETATM   18  N1  UNL     1      22.758   7.980  48.382  1.00  0.00    -0.241 NA
HETATM   19  C4  UNL     1      23.956   7.384  48.382  1.00  0.00     0.074 A 
HETATM   20  C3  UNL     1      25.109   7.891  47.872  1.00  0.00     0.070 A 
HETATM   21  C20 UNL     1      23.942   6.119  48.987  1.00  0.00     0.040 A 
HETATM   22  C2  UNL     1      26.308   7.215  47.915  1.00  0.00     0.076 A 
HETATM   23  C22 UNL     1      26.362   5.948  48.505  1.00  0.00    -0.028 A 
HETATM   24  C21 UNL     1      25.180   5.464  49.009  1.00  0.00     0.027 A 
HETATM   25  C23 UNL     1      27.606   5.128  48.605  1.00  0.00     0.051 C 
BRANCH  22  26
HETATM   26  O1  UNL     1      27.495   7.712  47.403  1.00  0.00    -0.355 OA
HETATM   27  C1  UNL     1      28.196   8.788  47.992  1.00  0.00     0.210 C 
ENDBRANCH  22  26
ENDBRANCH   1  15
BRANCH  14  28
HETATM   28  C19 UNL     1      23.979   5.662  52.100  1.00  0.00     0.222 C 
BRANCH  28  29
HETATM   29  O2  UNL     1      23.978   5.346  53.459  1.00  0.00    -0.395 OA
HETATM   30  H18 UNL     1      24.325   6.158  53.939  1.00  0.00     0.209 HD
ENDBRANCH  28  29
ENDBRANCH  14  28
BRANCH   5  31
HETATM   31  N4  UNL     1      23.723   2.168  53.313  1.00  0.00    -0.398 N 
HETATM   32  H9  UNL     1      23.386   2.064  54.268  1.00  0.00     0.156 HD
HETATM   33  H10 UNL     1      24.532   2.797  53.540  1.00  0.00     0.156 HD
ENDBRANCH   5  31
TORSDOF 5
ENDMDL
MODEL 3
REMARK VINA RESULT:      -8.5      3.210      6.255
REMARK  5 active torsions:
REMARK  status: ('A' for Active; 'I' for Inactive)
REMARK    1  A    between atoms: O1_2  and  C2_3 
REMARK    2  A    between atoms: C6_9  and  N3_10 
REMARK    3  A    between atoms: C10_14  and  N4_15 
REMARK    4  A    between atoms: C18_24  and  C19_25 
REMARK    5  A    between atoms: C19_25  and  O2_26 
ROOT
HETATM    1  N3  UNL     1      24.536   3.380  51.001  1.00  0.00    -0.307 N 
HETATM    2  C7  UNL     1      25.041   3.368  49.742  1.00  0.00     0.099 C 
HETATM    3  C8  UNL     1      26.230   2.968  50.084  1.00  0.00     0.020 C 
HETATM    4  C9  UNL     1      26.872   2.660  51.339  1.00  0.00     0.031 C 
HETATM    5  C10 UNL     1      26.970   2.555  52.643  1.00  0.00     0.037 C 
HETATM    6  C11 UNL     1      27.851   1.382  53.031  1.00  0.00     0.007 A 
HETATM    7  C12 UNL     1      29.093   1.051  53.470  1.00  0.00     0.015 A 
HETATM    8  C13 UNL     1      29.494  -0.274  53.654  1.00  0.00     0.001 A 
HETATM    9  C14 UNL     1      28.574  -1.256  53.372  1.00  0.00     0.001 A 
HETATM   10  C15 UNL     1      27.314  -0.930  52.928  1.00  0.00     0.020 A 
HETATM   11  C16 UNL     1      26.871   0.356  52.732  1.00  0.00     0.017 A 
HETATM   12  S1  UNL     1      25.160   0.470  52.181  1.00  0.00    -0.099 SA
HETATM   13  C17 UNL     1      24.460   2.095  52.549  1.00  0.00     0.078 C 
HETATM   14  C18 UNL     1      24.097   3.372  52.297  1.00  0.00     0.048 C 
ENDROOT
BRANCH   1  15
HETATM   15  C6  UNL     1      23.193   3.766  50.589  1.00  0.00     0.148 A 
HETATM   16  N2  UNL     1      22.113   2.980  50.487  1.00  0.00    -0.223 NA
HETATM   17  C5  UNL     1      20.894   3.430  50.062  1.00  0.00     0.236 A 
HETATM   18  N1  UNL     1      20.727   4.717  49.720  1.00  0.00    -0.241 NA
HETATM   19  C4  UNL     1      21.713   5.620  49.771  1.00  0.00     0.074 A 
HETATM   20  C3  UNL     1      21.620   6.936  49.444  1.00  0.00     0.070 A 
HETATM   21  C20 UNL     1      22.930   5.083  50.216  1.00  0.00     0.040 A 
HETATM   22  C2  UNL     1      22.683   7.806  49.526  1.00  0.00     0.076 A 
HETATM   23  C22 UNL     1      23.926   7.333  49.963  1.00  0.00    -0.028 A 
HETATM   24  C21 UNL     1      23.987   6.000  50.284  1.00  0.00     0.027 A 
HETATM   25  C23 UNL     1      25.144   8.187  50.089  1.00  0.00     0.051 C 
BRANCH  22  26
HETATM   26  O1  UNL     1      22.612   9.150  49.199  1.00  0.00    -0.355 OA
HETATM   27  C1  UNL     1      21.399   9.798  48.873  1.00  0.00     0.210 C 
ENDBRANCH  22  26
ENDBRANCH   1  15
BRANCH  14  28
HETATM   28  C19 UNL     1      23.466   4.155  53.337  1.00  0.00     0.222 C 
BRANCH  28  29
HETATM   29  O2  UNL     1      24.146   5.356  53.541  1.00  0.00    -0.395 OA
HETATM   30  H18 UNL     1      25.066   5.230  53.156  1.00  0.00     0.209 HD
ENDBRANCH  28  29
ENDBRANCH  14  28
BRANCH   5  31
HETATM   31  N4  UNL     1      26.755   2.577  53.996  1.00  0.00    -0.398 N 
HETATM   32  H9  UNL     1      26.066   2.870  54.686  1.00  0.00     0.156 HD
HETATM   33  H10 UNL     1      27.463   2.217  54.681  1.00  0.00     0.156 HD
ENDBRANCH   5  31
TORSDOF 5
ENDMDL
MODEL 4
REMARK VINA RESULT:      -8.4      2.832      7.402
REMARK  5 active torsions:
REMARK  status: ('A' for Active; 'I' for Inactive)
REMARK    1  A    between atoms: O1_2  and  C2_3 
REMARK    2  A    between atoms: C6_9  and  N3_10 
REMARK    3  A    between atoms: C10_14  and  N4_15 
REMARK    4  A    between atoms: C18_24  and  C19_25 
REMARK    5  A    between atoms: C19_25  and  O2_26 
ROOT
HETATM    1  N3  UNL     1      22.477   2.962  50.912  1.00  0.00    -0.307 N 
HETATM    2  C7  UNL     1      22.468   3.707  52.047  1.00  0.00     0.099 C 
HETATM    3  C8  UNL     1      21.200   3.552  52.293  1.00  0.00     0.020 C 
HETATM    4  C9  UNL     1      20.116   2.874  51.626  1.00  0.00     0.031 C 
HETATM    5  C10 UNL     1      19.538   2.182  50.672  1.00  0.00     0.037 C 
HETATM    6  C11 UNL     1      18.456   1.279  51.231  1.00  0.00     0.007 A 
HETATM    7  C12 UNL     1      17.112   1.148  51.376  1.00  0.00     0.015 A 
HETATM    8  C13 UNL     1      16.532   0.080  52.063  1.00  0.00     0.001 A 
HETATM    9  C14 UNL     1      17.380  -0.859  52.600  1.00  0.00     0.001 A 
HETATM   10  C15 UNL     1      18.742  -0.736  52.459  1.00  0.00     0.020 A 
HETATM   11  C16 UNL     1      19.361   0.295  51.792  1.00  0.00     0.017 A 
HETATM   12  S1  UNL     1      21.157   0.164  51.741  1.00  0.00    -0.099 SA
HETATM   13  C17 UNL     1      21.844   1.128  50.375  1.00  0.00     0.078 C 
HETATM   14  C18 UNL     1      22.408   2.201  49.778  1.00  0.00     0.048 C 
ENDROOT
BRANCH   1  15
HETATM   15  C6  UNL     1      23.910   3.095  50.692  1.00  0.00     0.148 A 
HETATM   16  N2  UNL     1      24.533   3.925  49.844  1.00  0.00    -0.223 NA
HETATM   17  C5  UNL     1      25.890   3.958  49.687  1.00  0.00     0.236 A 
HETATM   18  N1  UNL     1      26.677   3.136  50.399  1.00  0.00    -0.241 NA
HETATM   19  C4  UNL     1      26.199   2.254  51.284  1.00  0.00     0.074 A 
HETATM   20  C3  UNL     1      26.931   1.393  52.041  1.00  0.00     0.070 A 
HETATM   21  C20 UNL     1      24.801   2.280  51.390  1.00  0.00     0.040 A 
HETATM   22  C2  UNL     1      26.364   0.515  52.937  1.00  0.00     0.076 A 
HETATM   23  C22 UNL     1      24.973   0.491  53.089  1.00  0.00    -0.028 A 
HETATM   24  C21 UNL     1      24.264   1.371  52.310  1.00  0.00     0.027 A 
HETATM   25  C23 UNL     1      24.254  -0.420  54.028  1.00  0.00     0.051 C 
BRANCH  22  26
HETATM   26  O1  UNL     1      27.088  -0.369  53.718  1.00  0.00    -0.355 OA
HETATM   27  C1  UNL     1      28.090   0.048  54.623  1.00  0.00     0.210 C 
ENDBRANCH  22  26
ENDBRANCH   1  15
BRANCH  14  28
HETATM   28  C19 UNL     1      22.697   2.162  48.360  1.00  0.00     0.222 C 
BRANCH  28  29
HETATM   29  O2  UNL     1      21.902   1.215  47.714  1.00  0.00    -0.395 OA
HETATM   30  H18 UNL     1      22.404   0.346  47.757  1.00  0.00     0.209 HD
ENDBRANCH  28  29
ENDBRANCH  14  28
BRANCH   5  31
HETATM   31  N4  UNL     1      19.246   1.483  49.531  1.00  0.00    -0.398 N 
HETATM   32  H9  UNL     1      18.543   1.419  48.796  1.00  0.00     0.156 HD
HETATM   33  H10 UNL     1      19.857   0.706  49.179  1.00  0.00     0.156 HD
ENDBRANCH   5  31
TORSDOF 5
ENDMDL
MODEL 5
REMARK VINA RESULT:      -8.2      2.670      3.788
REMARK  5 active torsions:
REMARK  status: ('A' for Active; 'I' for Inactive)
REMARK    1  A    between atoms: O1_2  and  C2_3 
REMARK    2  A    between atoms: C6_9  and  N3_10 
REMARK    3  A    between atoms: C10_14  and  N4_15 
REMARK    4  A    between atoms: C18_24  and  C19_25 
REMARK    5  A    between atoms: C19_25  and  O2_26 
ROOT
HETATM    1  N3  UNL     1      23.714   3.976  50.534  1.00  0.00    -0.307 N 
HETATM    2  C7  UNL     1      23.585   3.319  49.353  1.00  0.00     0.099 C 
HETATM    3  C8  UNL     1      22.808   4.203  48.799  1.00  0.00     0.020 C 
HETATM    4  C9  UNL     1      22.221   5.447  49.233  1.00  0.00     0.031 C 
HETATM    5  C10 UNL     1      21.934   6.410  50.077  1.00  0.00     0.037 C 
HETATM    6  C11 UNL     1      21.838   7.748  49.369  1.00  0.00     0.007 A 
HETATM    7  C12 UNL     1      20.961   8.666  48.889  1.00  0.00     0.015 A 
HETATM    8  C13 UNL     1      21.374   9.816  48.214  1.00  0.00     0.001 A 
HETATM    9  C14 UNL     1      22.727   9.997  48.046  1.00  0.00     0.001 A 
HETATM   10  C15 UNL     1      23.623   9.074  48.530  1.00  0.00     0.020 A 
HETATM   11  C16 UNL     1      23.267   7.928  49.201  1.00  0.00     0.017 A 
HETATM   12  S1  UNL     1      24.665   6.930  49.747  1.00  0.00    -0.099 SA
HETATM   13  C17 UNL     1      24.198   5.842  51.112  1.00  0.00     0.078 C 
HETATM   14  C18 UNL     1      23.797   4.692  51.697  1.00  0.00     0.048 C 
ENDROOT
BRANCH   1  15
HETATM   15  C6  UNL     1      24.635   3.005  51.110  1.00  0.00     0.148 A 
HETATM   16  N2  UNL     1      25.974   3.049  51.109  1.00  0.00    -0.223 NA
HETATM   17  C5  UNL     1      26.758   2.071  51.655  1.00  0.00     0.236 A 
HETATM   18  N1  UNL     1      26.198   0.996  52.233  1.00  0.00    -0.241 NA
HETATM   19  C4  UNL     1      24.875   0.814  52.310  1.00  0.00     0.074 A 
HETATM   20  C3  UNL     1      24.238  -0.243  52.879  1.00  0.00     0.070 A 
HETATM   21  C20 UNL     1      24.140   1.858  51.729  1.00  0.00     0.040 A 
HETATM   22  C2  UNL     1      22.867  -0.357  52.923  1.00  0.00     0.076 A 
HETATM   23  C22 UNL     1      22.076   0.651  52.360  1.00  0.00    -0.028 A 
HETATM   24  C21 UNL     1      22.750   1.704  51.793  1.00  0.00     0.027 A 
HETATM   25  C23 UNL     1      20.583   0.629  52.351  1.00  0.00     0.051 C 
BRANCH  22  26
HETATM   26  O1  UNL     1      22.196  -1.423  53.497  1.00  0.00    -0.355 OA
HETATM   27  C1  UNL     1      22.042  -1.572  54.894  1.00  0.00     0.210 C 
ENDBRANCH  22  26
ENDBRANCH   1  15
BRANCH  14  28
HETATM   28  C19 UNL     1      23.626   4.640  53.132  1.00  0.00     0.222 C 
BRANCH  28  29
HETATM   29  O2  UNL     1      24.153   5.780  53.740  1.00  0.00    -0.395 OA
HETATM   30  H18 UNL     1      23.380   6.402  53.897  1.00  0.00     0.209 HD
ENDBRANCH  28  29
ENDBRANCH  14  28
BRANCH   5  31
HETATM   31  N4  UNL     1      21.811   7.216  51.179  1.00  0.00    -0.398 N 
HETATM   32  H9  UNL     1      21.942   7.206  52.188  1.00  0.00     0.156 HD
HETATM   33  H10 UNL     1      21.456   8.201  51.114  1.00  0.00     0.156 HD
ENDBRANCH   5  31
TORSDOF 5
ENDMDL
MODEL 6
REMARK VINA RESULT:      -8.1      2.267      4.137
REMARK  5 active torsions:
REMARK  status: ('A' for Active; 'I' for Inactive)
REMARK    1  A    between atoms: O1_2  and  C2_3 
REMARK    2  A    between atoms: C6_9  and  N3_10 
REMARK    3  A    between atoms: C10_14  and  N4_15 
REMARK    4  A    between atoms: C18_24  and  C19_25 
REMARK    5  A    between atoms: C19_25  and  O2_26 
ROOT
HETATM    1  N3  UNL     1      22.049   2.536  50.446  1.00  0.00    -0.307 N 
HETATM    2  C7  UNL     1      22.335   1.607  49.500  1.00  0.00     0.099 C 
HETATM    3  C8  UNL     1      22.553   2.461  48.543  1.00  0.00     0.020 C 
HETATM    4  C9  UNL     1      22.495   3.898  48.438  1.00  0.00     0.031 C 
HETATM    5  C10 UNL     1      22.268   5.124  48.847  1.00  0.00     0.037 C 
HETATM    6  C11 UNL     1      23.242   6.100  48.216  1.00  0.00     0.007 A 
HETATM    7  C12 UNL     1      23.366   7.042  47.246  1.00  0.00     0.015 A 
HETATM    8  C13 UNL     1      24.572   7.694  46.984  1.00  0.00     0.001 A 
HETATM    9  C14 UNL     1      25.657   7.348  47.755  1.00  0.00     0.001 A 
HETATM   10  C15 UNL     1      25.541   6.396  48.740  1.00  0.00     0.020 A 
HETATM   11  C16 UNL     1      24.378   5.727  49.037  1.00  0.00     0.017 A 
HETATM   12  S1  UNL     1      24.526   4.564  50.405  1.00  0.00    -0.099 SA
HETATM   13  C17 UNL     1      22.915   4.214  51.144  1.00  0.00     0.078 C 
HETATM   14  C18 UNL     1      21.768   3.528  51.346  1.00  0.00     0.048 C 
ENDROOT
BRANCH   1  15
HETATM   15  C6  UNL     1      21.874   1.565  51.518  1.00  0.00     0.148 A 
HETATM   16  N2  UNL     1      20.721   1.120  52.036  1.00  0.00    -0.223 NA
HETATM   17  C5  UNL     1      20.658   0.223  53.066  1.00  0.00     0.236 A 
HETATM   18  N1  UNL     1      21.784  -0.262  53.615  1.00  0.00    -0.241 NA
HETATM   19  C4  UNL     1      23.007   0.090  53.203  1.00  0.00     0.074 A 
HETATM   20  C3  UNL     1      24.187  -0.359  53.705  1.00  0.00     0.070 A 
HETATM   21  C20 UNL     1      22.989   1.011  52.145  1.00  0.00     0.040 A 
HETATM   22  C2  UNL     1      25.411   0.049  53.223  1.00  0.00     0.076 A 
HETATM   23  C22 UNL     1      25.462   0.968  52.168  1.00  0.00    -0.028 A 
HETATM   24  C21 UNL     1      24.253   1.401  51.684  1.00  0.00     0.027 A 
HETATM   25  C23 UNL     1      26.731   1.478  51.570  1.00  0.00     0.051 C 
BRANCH  22  26
HETATM   26  O1  UNL     1      26.625  -0.394  53.718  1.00  0.00    -0.355 OA
HETATM   27  C1  UNL     1      27.230   0.152  54.873  1.00  0.00     0.210 C 
ENDBRANCH  22  26
ENDBRANCH   1  15
BRANCH  14  28
HETATM   28  C19 UNL     1      20.800   4.017  52.303  1.00  0.00     0.222 C 
BRANCH  28  29
HETATM   29  O2  UNL     1      19.500   3.876  51.816  1.00  0.00    -0.395 OA
HETATM   30  H18 UNL     1      18.914   4.441  52.405  1.00  0.00     0.209 HD
ENDBRANCH  28  29
ENDBRANCH  14  28
BRANCH   5  31
HETATM   31  N4  UNL     1      21.928   6.243  49.562  1.00  0.00    -0.398 N 
HETATM   32  H9  UNL     1      22.063   7.252  49.569  1.00  0.00     0.156 HD
HETATM   33  H10 UNL     1      21.346   6.194  50.434  1.00  0.00     0.156 HD
ENDBRANCH   5  31
TORSDOF 5
ENDMDL
MODEL 7
REMARK VINA RESULT:      -7.8      3.066      5.035
REMARK  5 active torsions:
REMARK  status: ('A' for Active; 'I' for Inactive)
REMARK    1  A    between atoms: O1_2  and  C2_3 
REMARK    2  A    between atoms: C6_9  and  N3_10 
REMARK    3  A    between atoms: C10_14  and  N4_15 
REMARK    4  A    between atoms: C18_24  and  C19_25 
REMARK    5  A    between atoms: C19_25  and  O2_26 
ROOT
HETATM    1  N3  UNL     1      22.875   3.638  51.537  1.00  0.00    -0.307 N 
HETATM    2  C7  UNL     1      23.342   4.150  52.704  1.00  0.00     0.099 C 
HETATM    3  C8  UNL     1      23.702   5.297  52.206  1.00  0.00     0.020 C 
HETATM    4  C9  UNL     1      23.679   5.879  50.887  1.00  0.00     0.031 C 
HETATM    5  C10 UNL     1      23.479   5.907  49.590  1.00  0.00     0.037 C 
HETATM    6  C11 UNL     1      23.040   7.286  49.135  1.00  0.00     0.007 A 
HETATM    7  C12 UNL     1      23.472   8.422  48.530  1.00  0.00     0.015 A 
HETATM    8  C13 UNL     1      22.652   9.539  48.358  1.00  0.00     0.001 A 
HETATM    9  C14 UNL     1      21.362   9.452  48.829  1.00  0.00     0.001 A 
HETATM   10  C15 UNL     1      20.915   8.305  49.441  1.00  0.00     0.020 A 
HETATM   11  C16 UNL     1      21.683   7.181  49.634  1.00  0.00     0.017 A 
HETATM   12  S1  UNL     1      20.810   5.822  50.432  1.00  0.00    -0.099 SA
HETATM   13  C17 UNL     1      21.611   4.239  50.090  1.00  0.00     0.078 C 
HETATM   14  C18 UNL     1      22.427   3.188  50.325  1.00  0.00     0.048 C 
ENDROOT
BRANCH   1  15
HETATM   15  C6  UNL     1      22.420   2.387  52.128  1.00  0.00     0.148 A 
HETATM   16  N2  UNL     1      21.160   2.022  52.399  1.00  0.00    -0.223 NA
HETATM   17  C5  UNL     1      20.832   0.831  52.983  1.00  0.00     0.236 A 
HETATM   18  N1  UNL     1      21.790  -0.048  53.318  1.00  0.00    -0.241 NA
HETATM   19  C4  UNL     1      23.092   0.177  53.108  1.00  0.00     0.074 A 
HETATM   20  C3  UNL     1      24.116  -0.663  53.416  1.00  0.00     0.070 A 
HETATM   21  C20 UNL     1      23.348   1.417  52.506  1.00  0.00     0.040 A 
HETATM   22  C2  UNL     1      25.435  -0.361  53.165  1.00  0.00     0.076 A 
HETATM   23  C22 UNL     1      25.758   0.862  52.566  1.00  0.00    -0.028 A 
HETATM   24  C21 UNL     1      24.702   1.687  52.268  1.00  0.00     0.027 A 
HETATM   25  C23 UNL     1      27.152   1.292  52.250  1.00  0.00     0.051 C 
BRANCH  22  26
HETATM   26  O1  UNL     1      26.493  -1.200  53.469  1.00  0.00    -0.355 OA
HETATM   27  C1  UNL     1      26.952  -2.208  52.591  1.00  0.00     0.210 C 
ENDBRANCH  22  26
ENDBRANCH   1  15
BRANCH  14  28
HETATM   28  C19 UNL     1      22.518   2.120  49.353  1.00  0.00     0.222 C 
BRANCH  28  29
HETATM   29  O2  UNL     1      21.296   1.458  49.222  1.00  0.00    -0.395 OA
HETATM   30  H18 UNL     1      21.436   0.531  49.583  1.00  0.00     0.209 HD
ENDBRANCH  28  29
ENDBRANCH  14  28
BRANCH   5  31
HETATM   31  N4  UNL     1      23.182   5.607  48.286  1.00  0.00    -0.398 N 
HETATM   32  H9  UNL     1      23.613   5.247  47.437  1.00  0.00     0.156 HD
HETATM   33  H10 UNL     1      22.229   5.766  47.879  1.00  0.00     0.156 HD
ENDBRANCH   5  31
TORSDOF 5
ENDMDL
MODEL 8
REMARK VINA RESULT:      -7.7      6.324     12.217
REMARK  5 active torsions:
REMARK  status: ('A' for Active; 'I' for Inactive)
REMARK    1  A    between atoms: O1_2  and  C2_3 
REMARK    2  A    between atoms: C6_9  and  N3_10 
REMARK    3  A    between atoms: C10_14  and  N4_15 
REMARK    4  A    between atoms: C18_24  and  C19_25 
REMARK    5  A    between atoms: C19_25  and  O2_26 
ROOT
HETATM    1  N3  UNL     1      27.690  10.417  47.447  1.00  0.00    -0.307 N 
HETATM    2  C7  UNL     1      26.911  10.357  46.338  1.00  0.00     0.099 C 
HETATM    3  C8  UNL     1      26.857   9.058  46.290  1.00  0.00     0.020 C 
HETATM    4  C9  UNL     1      27.425   7.992  47.078  1.00  0.00     0.031 C 
HETATM    5  C10 UNL     1      28.163   7.459  48.024  1.00  0.00     0.037 C 
HETATM    6  C11 UNL     1      27.524   6.196  48.568  1.00  0.00     0.007 A 
HETATM    7  C12 UNL     1      27.586   4.840  48.528  1.00  0.00     0.015 A 
HETATM    8  C13 UNL     1      26.683   4.028  49.218  1.00  0.00     0.001 A 
HETATM    9  C14 UNL     1      25.708   4.655  49.956  1.00  0.00     0.001 A 
HETATM   10  C15 UNL     1      25.638   6.028  50.003  1.00  0.00     0.020 A 
HETATM   11  C16 UNL     1      26.502   6.870  49.344  1.00  0.00     0.017 A 
HETATM   12  S1  UNL     1      26.182   8.620  49.627  1.00  0.00    -0.099 SA
HETATM   13  C17 UNL     1      27.653   9.616  49.293  1.00  0.00     0.078 C 
HETATM   14  C18 UNL     1      28.478  10.400  48.566  1.00  0.00     0.048 C 
ENDROOT
BRANCH   1  15
HETATM   15  C6  UNL     1      27.683  11.872  47.519  1.00  0.00     0.148 A 
HETATM   16  N2  UNL     1      26.909  12.648  48.290  1.00  0.00    -0.223 NA
HETATM   17  C5  UNL     1      26.956  14.014  48.268  1.00  0.00     0.236 A 
HETATM   18  N1  UNL     1      27.808  14.650  47.449  1.00  0.00    -0.241 NA
HETATM   19  C4  UNL     1      28.643  14.010  46.622  1.00  0.00     0.074 A 
HETATM   20  C3  UNL     1      29.532  14.585  45.769  1.00  0.00     0.070 A 
HETATM   21  C20 UNL     1      28.536  12.614  46.703  1.00  0.00     0.040 A 
HETATM   22  C2  UNL     1      30.363  13.855  44.950  1.00  0.00     0.076 A 
HETATM   23  C22 UNL     1      30.305  12.457  44.982  1.00  0.00    -0.028 A 
HETATM   24  C21 UNL     1      29.397  11.908  45.853  1.00  0.00     0.027 A 
HETATM   25  C23 UNL     1      31.158  11.569  44.137  1.00  0.00     0.051 C 
BRANCH  22  26
HETATM   26  O1  UNL     1      31.276  14.417  44.074  1.00  0.00    -0.355 OA
HETATM   27  C1  UNL     1      31.190  15.756  43.629  1.00  0.00     0.210 C 
ENDBRANCH  22  26
ENDBRANCH   1  15
BRANCH  14  28
HETATM   28  C19 UNL     1      29.716  10.873  49.147  1.00  0.00     0.222 C 
BRANCH  28  29
HETATM   29  O2  UNL     1      30.208   9.961  50.082  1.00  0.00    -0.395 OA
HETATM   30  H18 UNL     1      29.624   9.146  50.019  1.00  0.00     0.209 HD
ENDBRANCH  28  29
ENDBRANCH  14  28
BRANCH   5  31
HETATM   31  N4  UNL     1      29.018   7.233  49.069  1.00  0.00    -0.398 N 
HETATM   32  H9  UNL     1      29.783   7.671  49.579  1.00  0.00     0.156 HD
HETATM   33  H10 UNL     1      29.009   6.337  49.616  1.00  0.00     0.156 HD
ENDBRANCH   5  31
TORSDOF 5
ENDMDL
MODEL 9
REMARK VINA RESULT:      -7.7      2.742      7.461
REMARK  5 active torsions:
REMARK  status: ('A' for Active; 'I' for Inactive)
REMARK    1  A    between atoms: O1_2  and  C2_3 
REMARK    2  A    between atoms: C6_9  and  N3_10 
REMARK    3  A    between atoms: C10_14  and  N4_15 
REMARK    4  A    between atoms: C18_24  and  C19_25 
REMARK    5  A    between atoms: C19_25  and  O2_26 
ROOT
HETATM    1  N3  UNL     1      23.683   4.168  50.932  1.00  0.00    -0.307 N 
HETATM    2  C7  UNL     1      23.805   5.040  51.965  1.00  0.00     0.099 C 
HETATM    3  C8  UNL     1      23.056   4.367  52.789  1.00  0.00     0.020 C 
HETATM    4  C9  UNL     1      22.301   3.142  52.699  1.00  0.00     0.031 C 
HETATM    5  C10 UNL     1      21.798   2.082  52.112  1.00  0.00     0.037 C 
HETATM    6  C11 UNL     1      21.704   0.915  53.077  1.00  0.00     0.007 A 
HETATM    7  C12 UNL     1      20.841   0.208  53.851  1.00  0.00     0.015 A 
HETATM    8  C13 UNL     1      21.257  -0.840  54.674  1.00  0.00     0.001 A 
HETATM    9  C14 UNL     1      22.598  -1.143  54.678  1.00  0.00     0.001 A 
HETATM   10  C15 UNL     1      23.480  -0.434  53.897  1.00  0.00     0.020 A 
HETATM   11  C16 UNL     1      23.120   0.604  53.071  1.00  0.00     0.017 A 
HETATM   12  S1  UNL     1      24.491   1.316  52.143  1.00  0.00    -0.099 SA
HETATM   13  C17 UNL     1      23.903   2.185  50.671  1.00  0.00     0.078 C 
HETATM   14  C18 UNL     1      23.512   3.247  49.934  1.00  0.00     0.048 C 
ENDROOT
BRANCH   1  15
HETATM   15  C6  UNL     1      24.578   4.904  50.048  1.00  0.00     0.148 A 
HETATM   16  N2  UNL     1      25.825   4.572  49.688  1.00  0.00    -0.223 NA
HETATM   17  C5  UNL     1      26.601   5.345  48.871  1.00  0.00     0.236 A 
HETATM   18  N1  UNL     1      26.129   6.502  48.381  1.00  0.00    -0.241 NA
HETATM   19  C4  UNL     1      24.902   6.963  48.652  1.00  0.00     0.074 A 
HETATM   20  C3  UNL     1      24.356   8.120  48.192  1.00  0.00     0.070 A 
HETATM   21  C20 UNL     1      24.168   6.117  49.495  1.00  0.00     0.040 A 
HETATM   22  C2  UNL     1      23.080   8.526  48.514  1.00  0.00     0.076 A 
HETATM   23  C22 UNL     1      22.295   7.726  49.352  1.00  0.00    -0.028 A 
HETATM   24  C21 UNL     1      22.877   6.565  49.799  1.00  0.00     0.027 A 
HETATM   25  C23 UNL     1      20.903   8.069  49.766  1.00  0.00     0.051 C 
BRANCH  22  26
HETATM   26  O1  UNL     1      22.502   9.699  48.058  1.00  0.00    -0.355 OA
HETATM   27  C1  UNL     1      22.132   9.899  46.709  1.00  0.00     0.210 C 
ENDBRANCH  22  26
ENDBRANCH   1  15
BRANCH  14  28
HETATM   28  C19 UNL     1      23.114   3.057  48.557  1.00  0.00     0.222 C 
BRANCH  28  29
HETATM   29  O2  UNL     1      22.335   1.907  48.416  1.00  0.00    -0.395 OA
HETATM   30  H18 UNL     1      21.406   2.220  48.197  1.00  0.00     0.209 HD
ENDBRANCH  28  29
ENDBRANCH  14  28
BRANCH   5  31
HETATM   31  N4  UNL     1      21.427   1.109  51.222  1.00  0.00    -0.398 N 
HETATM   32  H9  UNL     1      21.165   0.125  51.183  1.00  0.00     0.156 HD
HETATM   33  H10 UNL     1      21.365   1.289  50.190  1.00  0.00     0.156 HD
ENDBRANCH   5  31
TORSDOF 5
ENDMDL
