MODEL 1
REMARK VINA RESULT:      -8.3      0.000      0.000
REMARK  6 active torsions:
REMARK  status: ('A' for Active; 'I' for Inactive)
REMARK    1  A    between atoms: N1_2  and  C3_4 
REMARK    2  A    between atoms: C3_4  and  C4_5 
REMARK    3  A    between atoms: C5_6  and  C6_7 
REMARK       I    between atoms: C6_7  and  N2_9 
REMARK    4  A    between atoms: N2_9  and  C7_10 
REMARK    5  A    between atoms: C10_13  and  N3_14 
REMARK    6  A    between atoms: N3_14  and  C11_15 
ROOT
HETATM    1  C7  UNL     1      24.245   3.569  51.464  1.00  0.00     0.131 A 
HETATM    2  C8  UNL     1      24.199   2.342  52.091  1.00  0.00     0.066 A 
HETATM    3  C9  UNL     1      23.071   1.785  52.616  1.00  0.00     0.026 A 
HETATM    4  C10 UNL     1      23.060   0.555  53.238  1.00  0.00     0.068 A 
HETATM    5  C16 UNL     1      21.864   0.097  53.728  1.00  0.00     0.089 A 
HETATM    6  C17 UNL     1      21.776  -1.183  54.391  1.00  0.00     0.103 C 
HETATM    7  N4  UNL     1      21.716  -2.217  54.926  1.00  0.00    -0.191 NA
HETATM    8  C18 UNL     1      20.684   0.801  53.631  1.00  0.00     0.142 A 
HETATM    9  N5  UNL     1      20.714   2.008  53.017  1.00  0.00    -0.257 NA
HETATM   10  C19 UNL     1      21.881   2.473  52.529  1.00  0.00     0.086 A 
HETATM   11  C20 UNL     1      21.908   3.702  51.905  1.00  0.00     0.151 A 
HETATM   12  N6  UNL     1      23.057   4.183  51.413  1.00  0.00    -0.241 NA
ENDROOT
BRANCH   4  13
HETATM   13  N3  UNL     1      24.234  -0.198  53.361  1.00  0.00    -0.354 N 
HETATM   14  H13 UNL     1      24.115  -1.217  53.131  1.00  0.00     0.166 HD
BRANCH  13  15
HETATM   15  C11 UNL     1      25.586   0.126  53.740  1.00  0.00     0.043 C 
HETATM   16  C12 UNL     1      26.352   0.728  54.630  1.00  0.00     0.003 C 
HETATM   17  C13 UNL     1      27.528   0.138  54.765  1.00  0.00     0.014 C 
HETATM   18  C14 UNL     1      27.793  -0.385  53.421  1.00  0.00     0.003 C 
HETATM   19  C15 UNL     1      26.604  -0.390  52.800  1.00  0.00     0.030 C 
ENDBRANCH  13  15
ENDBRANCH   4  13
BRANCH   1  20
HETATM   20  N2  UNL     1      25.438   4.127  50.922  1.00  0.00    -0.308 N 
HETATM   21  C6  UNL     1      25.794   3.937  49.559  1.00  0.00     0.246 C 
HETATM   22  O1  UNL     1      24.927   3.242  48.973  1.00  0.00    -0.268 OA
HETATM   23  H11 UNL     1      26.031   4.683  51.593  1.00  0.00     0.170 HD
BRANCH  21  24
HETATM   24  C5  UNL     1      27.007   4.509  49.018  1.00  0.00     0.072 C 
HETATM   25  C4  UNL     1      27.121   5.770  48.648  1.00  0.00     0.008 C 
BRANCH  25  26
HETATM   26  C3  UNL     1      26.164   6.903  48.655  1.00  0.00     0.299 C 
BRANCH  26  27
HETATM   27  N1  UNL     1      26.163   7.466  50.001  1.00  0.00     0.083 N 
HETATM   28  C1  UNL     1      26.873   8.724  50.041  1.00  0.00     0.309 C 
HETATM   29  C2  UNL     1      24.781   7.665  50.379  1.00  0.00     0.309 C 
ENDBRANCH  26  27
ENDBRANCH  25  26
ENDBRANCH  21  24
ENDBRANCH   1  20
TORSDOF 6
ENDMDL
MODEL 2
REMARK VINA RESULT:      -8.2      1.853      3.979
REMARK  6 active torsions:
REMARK  status: ('A' for Active; 'I' for Inactive)
REMARK    1  A    between atoms: N1_2  and  C3_4 
REMARK    2  A    between atoms: C3_4  and  C4_5 
REMARK    3  A    between atoms: C5_6  and  C6_7 
REMARK       I    between atoms: C6_7  and  N2_9 
REMARK    4  A    between atoms: N2_9  and  C7_10 
REMARK    5  A    between atoms: C10_13  and  N3_14 
REMARK    6  A    between atoms: N3_14  and  C11_15 
ROOT
HETATM    1  C7  UNL     1      26.518   2.575  51.919  1.00  0.00     0.131 A 
HETATM    2  C8  UNL     1      25.273   2.078  52.240  1.00  0.00     0.066 A 
HETATM    3  C9  UNL     1      25.057   0.982  53.022  1.00  0.00     0.026 A 
HETATM    4  C10 UNL     1      23.797   0.511  53.323  1.00  0.00     0.068 A 
HETATM    5  C16 UNL     1      23.704  -0.602  54.121  1.00  0.00     0.089 A 
HETATM    6  C17 UNL     1      22.418  -1.151  54.479  1.00  0.00     0.103 C 
HETATM    7  N4  UNL     1      21.374  -1.587  54.761  1.00  0.00    -0.191 NA
HETATM    8  C18 UNL     1      24.799  -1.264  54.629  1.00  0.00     0.142 A 
HETATM    9  N5  UNL     1      26.029  -0.788  54.322  1.00  0.00    -0.257 NA
HETATM   10  C19 UNL     1      26.138   0.305  53.540  1.00  0.00     0.086 A 
HETATM   11  C20 UNL     1      27.391   0.787  53.229  1.00  0.00     0.151 A 
HETATM   12  N6  UNL     1      27.523   1.871  52.453  1.00  0.00    -0.241 NA
ENDROOT
BRANCH   4  13
HETATM   13  N3  UNL     1      22.654   1.151  52.831  1.00  0.00    -0.354 N 
HETATM   14  H13 UNL     1      22.416   2.045  53.328  1.00  0.00     0.166 HD
BRANCH  13  15
HETATM   15  C11 UNL     1      21.722   0.845  51.775  1.00  0.00     0.043 C 
HETATM   16  C12 UNL     1      20.542   0.331  51.480  1.00  0.00     0.003 C 
HETATM   17  C13 UNL     1      19.989   0.909  50.427  1.00  0.00     0.014 C 
HETATM   18  C14 UNL     1      21.147   1.273  49.602  1.00  0.00     0.003 C 
HETATM   19  C15 UNL     1      22.200   1.232  50.431  1.00  0.00     0.030 C 
ENDBRANCH  13  15
ENDBRANCH   4  13
BRANCH   1  20
HETATM   20  N2  UNL     1      26.715   3.723  51.100  1.00  0.00    -0.308 N 
HETATM   21  C6  UNL     1      26.699   3.633  49.681  1.00  0.00     0.246 C 
HETATM   22  O1  UNL     1      26.495   2.448  49.319  1.00  0.00    -0.268 OA
HETATM   23  H11 UNL     1      26.871   4.630  51.611  1.00  0.00     0.170 HD
BRANCH  21  24
HETATM   24  C5  UNL     1      26.900   4.805  48.858  1.00  0.00     0.072 C 
HETATM   25  C4  UNL     1      25.995   5.751  48.698  1.00  0.00     0.008 C 
BRANCH  25  26
HETATM   26  C3  UNL     1      24.625   5.925  49.239  1.00  0.00     0.299 C 
BRANCH  26  27
HETATM   27  N1  UNL     1      24.747   6.597  50.530  1.00  0.00     0.083 N 
HETATM   28  C1  UNL     1      24.374   7.989  50.430  1.00  0.00     0.309 C 
HETATM   29  C2  UNL     1      23.867   5.912  51.451  1.00  0.00     0.309 C 
ENDBRANCH  26  27
ENDBRANCH  25  26
ENDBRANCH  21  24
ENDBRANCH   1  20
TORSDOF 6
ENDMDL
MODEL 3
REMARK VINA RESULT:      -8.2      3.198      7.059
REMARK  6 active torsions:
REMARK  status: ('A' for Active; 'I' for Inactive)
REMARK    1  A    between atoms: N1_2  and  C3_4 
REMARK    2  A    between atoms: C3_4  and  C4_5 
REMARK    3  A    between atoms: C5_6  and  C6_7 
REMARK       I    between atoms: C6_7  and  N2_9 
REMARK    4  A    between atoms: N2_9  and  C7_10 
REMARK    5  A    between atoms: C10_13  and  N3_14 
REMARK    6  A    between atoms: N3_14  and  C11_15 
ROOT
HETATM    1  C7  UNL     1      22.227  -1.222  53.987  1.00  0.00     0.131 A 
HETATM    2  C8  UNL     1      23.173  -0.445  53.354  1.00  0.00     0.066 A 
HETATM    3  C9  UNL     1      24.419  -0.193  53.844  1.00  0.00     0.026 A 
HETATM    4  C10 UNL     1      25.343   0.591  53.185  1.00  0.00     0.068 A 
HETATM    5  C16 UNL     1      26.566   0.773  53.778  1.00  0.00     0.089 A 
HETATM    6  C17 UNL     1      27.583   1.580  53.145  1.00  0.00     0.103 C 
HETATM    7  N4  UNL     1      28.396   2.234  52.626  1.00  0.00    -0.191 NA
HETATM    8  C18 UNL     1      26.913   0.217  54.989  1.00  0.00     0.142 A 
HETATM    9  N5  UNL     1      25.994  -0.549  55.623  1.00  0.00    -0.257 NA
HETATM   10  C19 UNL     1      24.786  -0.739  55.055  1.00  0.00     0.086 A 
HETATM   11  C20 UNL     1      23.853  -1.519  55.702  1.00  0.00     0.151 A 
HETATM   12  N6  UNL     1      22.647  -1.720  55.155  1.00  0.00    -0.241 NA
ENDROOT
BRANCH   4  13
HETATM   13  N3  UNL     1      25.037   1.177  51.951  1.00  0.00    -0.354 N 
HETATM   14  H13 UNL     1      25.326   0.601  51.121  1.00  0.00     0.166 HD
BRANCH  13  15
HETATM   15  C11 UNL     1      24.402   2.413  51.570  1.00  0.00     0.043 C 
HETATM   16  C12 UNL     1      23.925   3.126  50.567  1.00  0.00     0.003 C 
HETATM   17  C13 UNL     1      22.907   3.890  50.931  1.00  0.00     0.014 C 
HETATM   18  C14 UNL     1      23.225   4.225  52.324  1.00  0.00     0.003 C 
HETATM   19  C15 UNL     1      24.138   3.319  52.707  1.00  0.00     0.030 C 
ENDBRANCH  13  15
ENDBRANCH   4  13
BRANCH   1  20
HETATM   20  N2  UNL     1      20.931  -1.469  53.451  1.00  0.00    -0.308 N 
HETATM   21  C6  UNL     1      19.884  -0.514  53.570  1.00  0.00     0.246 C 
HETATM   22  O1  UNL     1      20.287   0.503  54.187  1.00  0.00    -0.268 OA
HETATM   23  H11 UNL     1      20.804  -2.396  52.966  1.00  0.00     0.170 HD
BRANCH  21  24
HETATM   24  C5  UNL     1      18.572  -0.774  53.022  1.00  0.00     0.072 C 
HETATM   25  C4  UNL     1      18.073  -0.137  51.980  1.00  0.00     0.008 C 
BRANCH  25  26
HETATM   26  C3  UNL     1      18.617   0.936  51.112  1.00  0.00     0.299 C 
BRANCH  26  27
HETATM   27  N1  UNL     1      18.231   2.214  51.703  1.00  0.00     0.083 N 
HETATM   28  C1  UNL     1      19.310   3.172  51.626  1.00  0.00     0.309 C 
HETATM   29  C2  UNL     1      17.086   2.697  50.963  1.00  0.00     0.309 C 
ENDBRANCH  26  27
ENDBRANCH  25  26
ENDBRANCH  21  24
ENDBRANCH   1  20
TORSDOF 6
ENDMDL
MODEL 4
REMARK VINA RESULT:      -8.1      2.150      4.267
REMARK  6 active torsions:
REMARK  status: ('A' for Active; 'I' for Inactive)
REMARK    1  A    between atoms: N1_2  and  C3_4 
REMARK    2  A    between atoms: C3_4  and  C4_5 
REMARK    3  A    between atoms: C5_6  and  C6_7 
REMARK       I    between atoms: C6_7  and  N2_9 
REMARK    4  A    between atoms: N2_9  and  C7_10 
REMARK    5  A    between atoms: C10_13  and  N3_14 
REMARK    6  A    between atoms: N3_14  and  C11_15 
ROOT
HETATM    1  C7  UNL     1      26.066   2.957  51.589  1.00  0.00     0.131 A 
HETATM    2  C8  UNL     1      24.907   2.341  52.010  1.00  0.00     0.066 A 
HETATM    3  C9  UNL     1      24.865   1.207  52.764  1.00  0.00     0.026 A 
HETATM    4  C10 UNL     1      23.687   0.615  53.168  1.00  0.00     0.068 A 
HETATM    5  C16 UNL     1      23.770  -0.526  53.925  1.00  0.00     0.089 A 
HETATM    6  C17 UNL     1      22.578  -1.198  54.385  1.00  0.00     0.103 C 
HETATM    7  N4  UNL     1      21.609  -1.734  54.750  1.00  0.00    -0.191 NA
HETATM    8  C18 UNL     1      24.963  -1.104  54.297  1.00  0.00     0.142 A 
HETATM    9  N5  UNL     1      26.111  -0.510  53.891  1.00  0.00    -0.257 NA
HETATM   10  C19 UNL     1      26.047   0.612  53.146  1.00  0.00     0.086 A 
HETATM   11  C20 UNL     1      27.216   1.213  52.735  1.00  0.00     0.151 A 
HETATM   12  N6  UNL     1      27.176   2.329  51.994  1.00  0.00    -0.241 NA
ENDROOT
BRANCH   4  13
HETATM   13  N3  UNL     1      22.449   1.166  52.816  1.00  0.00    -0.354 N 
HETATM   14  H13 UNL     1      22.178   2.008  53.384  1.00  0.00     0.166 HD
BRANCH  13  15
HETATM   15  C11 UNL     1      21.455   0.825  51.830  1.00  0.00     0.043 C 
HETATM   16  C12 UNL     1      20.231   0.373  51.631  1.00  0.00     0.003 C 
HETATM   17  C13 UNL     1      19.677   0.881  50.542  1.00  0.00     0.014 C 
HETATM   18  C14 UNL     1      20.822   1.071  49.645  1.00  0.00     0.003 C 
HETATM   19  C15 UNL     1      21.904   1.036  50.438  1.00  0.00     0.030 C 
ENDBRANCH  13  15
ENDBRANCH   4  13
BRANCH   1  20
HETATM   20  N2  UNL     1      26.081   4.144  50.802  1.00  0.00    -0.308 N 
HETATM   21  C6  UNL     1      26.601   4.149  49.478  1.00  0.00     0.246 C 
HETATM   22  O1  UNL     1      27.010   3.003  49.164  1.00  0.00    -0.268 OA
HETATM   23  H11 UNL     1      25.685   5.005  51.262  1.00  0.00     0.170 HD
BRANCH  21  24
HETATM   24  C5  UNL     1      26.611   5.358  48.687  1.00  0.00     0.072 C 
HETATM   25  C4  UNL     1      27.712   5.936  48.245  1.00  0.00     0.008 C 
BRANCH  25  26
HETATM   26  C3  UNL     1      29.147   5.589  48.387  1.00  0.00     0.299 C 
BRANCH  26  27
HETATM   27  N1  UNL     1      29.922   6.710  47.862  1.00  0.00     0.083 N 
HETATM   28  C1  UNL     1      29.411   7.971  48.348  1.00  0.00     0.309 C 
HETATM   29  C2  UNL     1      31.287   6.526  48.299  1.00  0.00     0.309 C 
ENDBRANCH  26  27
ENDBRANCH  25  26
ENDBRANCH  21  24
ENDBRANCH   1  20
TORSDOF 6
ENDMDL
MODEL 5
REMARK VINA RESULT:      -8.1      2.612      5.387
REMARK  6 active torsions:
REMARK  status: ('A' for Active; 'I' for Inactive)
REMARK    1  A    between atoms: N1_2  and  C3_4 
REMARK    2  A    between atoms: C3_4  and  C4_5 
REMARK    3  A    between atoms: C5_6  and  C6_7 
REMARK       I    between atoms: C6_7  and  N2_9 
REMARK    4  A    between atoms: N2_9  and  C7_10 
REMARK    5  A    between atoms: C10_13  and  N3_14 
REMARK    6  A    between atoms: N3_14  and  C11_15 
ROOT
HETATM    1  C7  UNL     1      25.743   2.727  51.438  1.00  0.00     0.131 A 
HETATM    2  C8  UNL     1      24.671   1.876  51.601  1.00  0.00     0.066 A 
HETATM    3  C9  UNL     1      23.402   2.141  51.180  1.00  0.00     0.026 A 
HETATM    4  C10 UNL     1      22.352   1.266  51.361  1.00  0.00     0.068 A 
HETATM    5  C16 UNL     1      21.118   1.643  50.895  1.00  0.00     0.089 A 
HETATM    6  C17 UNL     1      19.973   0.778  51.047  1.00  0.00     0.103 C 
HETATM    7  N4  UNL     1      19.054   0.072  51.177  1.00  0.00    -0.191 NA
HETATM    8  C18 UNL     1      20.880   2.843  50.262  1.00  0.00     0.142 A 
HETATM    9  N5  UNL     1      21.923   3.691  50.094  1.00  0.00    -0.257 NA
HETATM   10  C19 UNL     1      23.143   3.336  50.546  1.00  0.00     0.086 A 
HETATM   11  C20 UNL     1      24.202   4.201  50.374  1.00  0.00     0.151 A 
HETATM   12  N6  UNL     1      25.422   3.868  50.815  1.00  0.00    -0.241 NA
ENDROOT
BRANCH   4  13
HETATM   13  N3  UNL     1      22.544   0.035  51.998  1.00  0.00    -0.354 N 
HETATM   14  H13 UNL     1      22.990  -0.697  51.389  1.00  0.00     0.166 HD
BRANCH  13  15
HETATM   15  C11 UNL     1      22.261  -0.451  53.324  1.00  0.00     0.043 C 
HETATM   16  C12 UNL     1      21.319  -0.855  54.156  1.00  0.00     0.003 C 
HETATM   17  C13 UNL     1      21.756  -1.767  55.009  1.00  0.00     0.014 C 
HETATM   18  C14 UNL     1      23.160  -1.390  55.208  1.00  0.00     0.003 C 
HETATM   19  C15 UNL     1      23.461  -0.587  54.176  1.00  0.00     0.030 C 
ENDBRANCH  13  15
ENDBRANCH   4  13
BRANCH   1  20
HETATM   20  N2  UNL     1      27.060   2.424  51.887  1.00  0.00    -0.308 N 
HETATM   21  C6  UNL     1      27.376   2.367  53.272  1.00  0.00     0.246 C 
HETATM   22  O1  UNL     1      26.358   2.613  53.965  1.00  0.00    -0.268 OA
HETATM   23  H11 UNL     1      27.773   2.248  51.132  1.00  0.00     0.170 HD
BRANCH  21  24
HETATM   24  C5  UNL     1      28.716   2.057  53.718  1.00  0.00     0.072 C 
HETATM   25  C4  UNL     1      29.079   0.877  54.184  1.00  0.00     0.008 C 
BRANCH  25  26
HETATM   26  C3  UNL     1      28.333  -0.388  54.388  1.00  0.00     0.299 C 
BRANCH  26  27
HETATM   27  N1  UNL     1      28.331  -1.104  53.116  1.00  0.00     0.083 N 
HETATM   28  C1  UNL     1      29.051  -2.354  53.219  1.00  0.00     0.309 C 
HETATM   29  C2  UNL     1      26.950  -1.356  52.770  1.00  0.00     0.309 C 
ENDBRANCH  26  27
ENDBRANCH  25  26
ENDBRANCH  21  24
ENDBRANCH   1  20
TORSDOF 6
ENDMDL
MODEL 6
REMARK VINA RESULT:      -8.1      1.810      2.346
REMARK  6 active torsions:
REMARK  status: ('A' for Active; 'I' for Inactive)
REMARK    1  A    between atoms: N1_2  and  C3_4 
REMARK    2  A    between atoms: C3_4  and  C4_5 
REMARK    3  A    between atoms: C5_6  and  C6_7 
REMARK       I    between atoms: C6_7  and  N2_9 
REMARK    4  A    between atoms: N2_9  and  C7_10 
REMARK    5  A    between atoms: C10_13  and  N3_14 
REMARK    6  A    between atoms: N3_14  and  C11_15 
ROOT
HETATM    1  C7  UNL     1      25.246   3.555  50.710  1.00  0.00     0.131 A 
HETATM    2  C8  UNL     1      25.626   2.741  51.756  1.00  0.00     0.066 A 
HETATM    3  C9  UNL     1      24.848   1.760  52.293  1.00  0.00     0.026 A 
HETATM    4  C10 UNL     1      25.259   0.964  53.340  1.00  0.00     0.068 A 
HETATM    5  C16 UNL     1      24.388   0.007  53.797  1.00  0.00     0.089 A 
HETATM    6  C17 UNL     1      24.751  -0.863  54.891  1.00  0.00     0.103 C 
HETATM    7  N4  UNL     1      25.054  -1.561  55.774  1.00  0.00    -0.191 NA
HETATM    8  C18 UNL     1      23.134  -0.192  53.266  1.00  0.00     0.142 A 
HETATM    9  N5  UNL     1      22.746   0.599  52.237  1.00  0.00    -0.257 NA
HETATM   10  C19 UNL     1      23.590   1.544  51.776  1.00  0.00     0.086 A 
HETATM   11  C20 UNL     1      23.192   2.348  50.730  1.00  0.00     0.151 A 
HETATM   12  N6  UNL     1      24.015   3.293  50.255  1.00  0.00    -0.241 NA
ENDROOT
BRANCH   4  13
HETATM   13  N3  UNL     1      26.526   1.129  53.914  1.00  0.00    -0.354 N 
HETATM   14  H13 UNL     1      26.540   1.778  54.740  1.00  0.00     0.166 HD
BRANCH  13  15
HETATM   15  C11 UNL     1      27.829   0.593  53.613  1.00  0.00     0.043 C 
HETATM   16  C12 UNL     1      29.126   0.838  53.584  1.00  0.00     0.003 C 
HETATM   17  C13 UNL     1      29.848  -0.244  53.822  1.00  0.00     0.014 C 
HETATM   18  C14 UNL     1      29.030  -1.322  53.255  1.00  0.00     0.003 C 
HETATM   19  C15 UNL     1      27.799  -0.804  53.130  1.00  0.00     0.030 C 
ENDBRANCH  13  15
ENDBRANCH   4  13
BRANCH   1  20
HETATM   20  N2  UNL     1      26.080   4.574  50.167  1.00  0.00    -0.308 N 
HETATM   21  C6  UNL     1      27.073   4.278  49.192  1.00  0.00     0.246 C 
HETATM   22  O1  UNL     1      27.073   3.050  48.925  1.00  0.00    -0.268 OA
HETATM   23  H11 UNL     1      25.912   5.547  50.532  1.00  0.00     0.170 HD
BRANCH  21  24
HETATM   24  C5  UNL     1      27.914   5.319  48.646  1.00  0.00     0.072 C 
HETATM   25  C4  UNL     1      27.480   6.526  48.338  1.00  0.00     0.008 C 
BRANCH  25  26
HETATM   26  C3  UNL     1      26.142   7.160  48.433  1.00  0.00     0.299 C 
BRANCH  26  27
HETATM   27  N1  UNL     1      25.848   7.756  47.133  1.00  0.00     0.083 N 
HETATM   28  C1  UNL     1      24.423   7.810  46.895  1.00  0.00     0.309 C 
HETATM   29  C2  UNL     1      26.400   9.092  47.141  1.00  0.00     0.309 C 
ENDBRANCH  26  27
ENDBRANCH  25  26
ENDBRANCH  21  24
ENDBRANCH   1  20
TORSDOF 6
ENDMDL
MODEL 7
REMARK VINA RESULT:      -8.1      2.719      7.050
REMARK  6 active torsions:
REMARK  status: ('A' for Active; 'I' for Inactive)
REMARK    1  A    between atoms: N1_2  and  C3_4 
REMARK    2  A    between atoms: C3_4  and  C4_5 
REMARK    3  A    between atoms: C5_6  and  C6_7 
REMARK       I    between atoms: C6_7  and  N2_9 
REMARK    4  A    between atoms: N2_9  and  C7_10 
REMARK    5  A    between atoms: C10_13  and  N3_14 
REMARK    6  A    between atoms: N3_14  and  C11_15 
ROOT
HETATM    1  C7  UNL     1      21.726   0.785  52.467  1.00  0.00     0.131 A 
HETATM    2  C8  UNL     1      22.901   1.506  52.501  1.00  0.00     0.066 A 
HETATM    3  C9  UNL     1      24.053   1.077  53.090  1.00  0.00     0.026 A 
HETATM    4  C10 UNL     1      25.212   1.824  53.106  1.00  0.00     0.068 A 
HETATM    5  C16 UNL     1      26.310   1.288  53.729  1.00  0.00     0.089 A 
HETATM    6  C17 UNL     1      27.557   2.013  53.784  1.00  0.00     0.103 C 
HETATM    7  N4  UNL     1      28.560   2.606  53.824  1.00  0.00    -0.191 NA
HETATM    8  C18 UNL     1      26.309   0.052  54.336  1.00  0.00     0.142 A 
HETATM    9  N5  UNL     1      25.162  -0.668  54.311  1.00  0.00    -0.257 NA
HETATM   10  C19 UNL     1      24.074  -0.156  53.702  1.00  0.00     0.086 A 
HETATM   11  C20 UNL     1      22.908  -0.891  53.679  1.00  0.00     0.151 A 
HETATM   12  N6  UNL     1      21.815  -0.401  53.079  1.00  0.00    -0.241 NA
ENDROOT
BRANCH   4  13
HETATM   13  N3  UNL     1      25.261   3.086  52.502  1.00  0.00    -0.354 N 
HETATM   14  H13 UNL     1      25.238   3.887  53.182  1.00  0.00     0.166 HD
BRANCH  13  15
HETATM   15  C11 UNL     1      25.338   3.529  51.133  1.00  0.00     0.043 C 
HETATM   16  C12 UNL     1      24.730   4.196  50.169  1.00  0.00     0.003 C 
HETATM   17  C13 UNL     1      25.583   4.788  49.350  1.00  0.00     0.014 C 
HETATM   18  C14 UNL     1      26.733   3.877  49.353  1.00  0.00     0.003 C 
HETATM   19  C15 UNL     1      26.577   3.112  50.444  1.00  0.00     0.030 C 
ENDBRANCH  13  15
ENDBRANCH   4  13
BRANCH   1  20
HETATM   20  N2  UNL     1      20.536   1.257  51.844  1.00  0.00    -0.308 N 
HETATM   21  C6  UNL     1      20.279   1.023  50.465  1.00  0.00     0.246 C 
HETATM   22  O1  UNL     1      21.222   0.376  49.946  1.00  0.00    -0.268 OA
HETATM   23  H11 UNL     1      19.869   1.783  52.466  1.00  0.00     0.170 HD
BRANCH  21  24
HETATM   24  C5  UNL     1      19.067   1.505  49.841  1.00  0.00     0.072 C 
HETATM   25  C4  UNL     1      17.896   0.906  49.953  1.00  0.00     0.008 C 
BRANCH  25  26
HETATM   26  C3  UNL     1      17.466  -0.319  50.669  1.00  0.00     0.299 C 
BRANCH  26  27
HETATM   27  N1  UNL     1      17.219   0.052  52.059  1.00  0.00     0.083 N 
HETATM   28  C1  UNL     1      15.802   0.114  52.339  1.00  0.00     0.309 C 
HETATM   29  C2  UNL     1      17.843  -0.956  52.887  1.00  0.00     0.309 C 
ENDBRANCH  26  27
ENDBRANCH  25  26
ENDBRANCH  21  24
ENDBRANCH   1  20
TORSDOF 6
ENDMDL
MODEL 8
REMARK VINA RESULT:      -7.9      2.534      5.715
REMARK  6 active torsions:
REMARK  status: ('A' for Active; 'I' for Inactive)
REMARK    1  A    between atoms: N1_2  and  C3_4 
REMARK    2  A    between atoms: C3_4  and  C4_5 
REMARK    3  A    between atoms: C5_6  and  C6_7 
REMARK       I    between atoms: C6_7  and  N2_9 
REMARK    4  A    between atoms: N2_9  and  C7_10 
REMARK    5  A    between atoms: C10_13  and  N3_14 
REMARK    6  A    between atoms: N3_14  and  C11_15 
ROOT
HETATM    1  C7  UNL     1      21.659   0.788  52.212  1.00  0.00     0.131 A 
HETATM    2  C8  UNL     1      22.828   1.513  52.314  1.00  0.00     0.066 A 
HETATM    3  C9  UNL     1      23.951   1.081  52.953  1.00  0.00     0.026 A 
HETATM    4  C10 UNL     1      25.104   1.833  53.037  1.00  0.00     0.068 A 
HETATM    5  C16 UNL     1      26.172   1.293  53.707  1.00  0.00     0.089 A 
HETATM    6  C17 UNL     1      27.412   2.022  53.834  1.00  0.00     0.103 C 
HETATM    7  N4  UNL     1      28.409   2.620  53.931  1.00  0.00    -0.191 NA
HETATM    8  C18 UNL     1      26.149   0.048  54.295  1.00  0.00     0.142 A 
HETATM    9  N5  UNL     1      25.008  -0.676  54.203  1.00  0.00    -0.257 NA
HETATM   10  C19 UNL     1      23.948  -0.161  53.548  1.00  0.00     0.086 A 
HETATM   11  C20 UNL     1      22.789  -0.900  53.457  1.00  0.00     0.151 A 
HETATM   12  N6  UNL     1      21.724  -0.407  52.811  1.00  0.00    -0.241 NA
ENDROOT
BRANCH   4  13
HETATM   13  N3  UNL     1      25.176   3.104  52.455  1.00  0.00    -0.354 N 
HETATM   14  H13 UNL     1      25.106   3.895  53.143  1.00  0.00     0.166 HD
BRANCH  13  15
HETATM   15  C11 UNL     1      25.330   3.567  51.099  1.00  0.00     0.043 C 
HETATM   16  C12 UNL     1      24.858   4.370  50.164  1.00  0.00     0.003 C 
HETATM   17  C13 UNL     1      25.805   4.810  49.352  1.00  0.00     0.014 C 
HETATM   18  C14 UNL     1      26.755   3.693  49.313  1.00  0.00     0.003 C 
HETATM   19  C15 UNL     1      26.460   2.939  50.382  1.00  0.00     0.030 C 
ENDBRANCH  13  15
ENDBRANCH   4  13
BRANCH   1  20
HETATM   20  N2  UNL     1      20.499   1.264  51.537  1.00  0.00    -0.308 N 
HETATM   21  C6  UNL     1      19.762   2.378  52.025  1.00  0.00     0.246 C 
HETATM   22  O1  UNL     1      20.286   2.825  53.075  1.00  0.00    -0.268 OA
HETATM   23  H11 UNL     1      20.229   0.740  50.665  1.00  0.00     0.170 HD
BRANCH  21  24
HETATM   24  C5  UNL     1      18.585   2.853  51.332  1.00  0.00     0.072 C 
HETATM   25  C4  UNL     1      18.627   3.620  50.259  1.00  0.00     0.008 C 
BRANCH  25  26
HETATM   26  C3  UNL     1      19.754   4.191  49.483  1.00  0.00     0.299 C 
BRANCH  26  27
HETATM   27  N1  UNL     1      20.000   5.536  49.994  1.00  0.00     0.083 N 
HETATM   28  C1  UNL     1      21.170   5.566  50.841  1.00  0.00     0.309 C 
HETATM   29  C2  UNL     1      20.195   6.398  48.849  1.00  0.00     0.309 C 
ENDBRANCH  26  27
ENDBRANCH  25  26
ENDBRANCH  21  24
ENDBRANCH   1  20
TORSDOF 6
ENDMDL
MODEL 9
REMARK VINA RESULT:      -7.6      1.921      7.654
REMARK  6 active torsions:
REMARK  status: ('A' for Active; 'I' for Inactive)
REMARK    1  A    between atoms: N1_2  and  C3_4 
REMARK    2  A    between atoms: C3_4  and  C4_5 
REMARK    3  A    between atoms: C5_6  and  C6_7 
REMARK       I    between atoms: C6_7  and  N2_9 
REMARK    4  A    between atoms: N2_9  and  C7_10 
REMARK    5  A    between atoms: C10_13  and  N3_14 
REMARK    6  A    between atoms: N3_14  and  C11_15 
ROOT
HETATM    1  C7  UNL     1      22.975   3.936  52.118  1.00  0.00     0.131 A 
HETATM    2  C8  UNL     1      23.683   4.922  51.465  1.00  0.00     0.066 A 
HETATM    3  C9  UNL     1      23.117   5.949  50.770  1.00  0.00     0.026 A 
HETATM    4  C10 UNL     1      23.856   6.919  50.127  1.00  0.00     0.068 A 
HETATM    5  C16 UNL     1      23.175   7.904  49.458  1.00  0.00     0.089 A 
HETATM    6  C17 UNL     1      23.882   8.953  48.763  1.00  0.00     0.103 C 
HETATM    7  N4  UNL     1      24.463   9.795  48.205  1.00  0.00    -0.191 NA
HETATM    8  C18 UNL     1      21.801   7.969  49.398  1.00  0.00     0.142 A 
HETATM    9  N5  UNL     1      21.090   7.007  50.034  1.00  0.00    -0.257 NA
HETATM   10  C19 UNL     1      21.744   6.032  50.697  1.00  0.00     0.086 A 
HETATM   11  C20 UNL     1      21.019   5.054  51.343  1.00  0.00     0.151 A 
HETATM   12  N6  UNL     1      21.648   4.076  52.007  1.00  0.00    -0.241 NA
ENDROOT
BRANCH   4  13
HETATM   13  N3  UNL     1      25.256   6.896  50.161  1.00  0.00    -0.354 N 
HETATM   14  H13 UNL     1      25.668   7.264  51.054  1.00  0.00     0.166 HD
BRANCH  13  15
HETATM   15  C11 UNL     1      26.264   6.470  49.223  1.00  0.00     0.043 C 
HETATM   16  C12 UNL     1      27.139   6.861  48.315  1.00  0.00     0.003 C 
HETATM   17  C13 UNL     1      28.201   6.073  48.268  1.00  0.00     0.014 C 
HETATM   18  C14 UNL     1      27.655   4.757  48.617  1.00  0.00     0.003 C 
HETATM   19  C15 UNL     1      26.472   5.007  49.200  1.00  0.00     0.030 C 
ENDBRANCH  13  15
ENDBRANCH   4  13
BRANCH   1  20
HETATM   20  N2  UNL     1      23.592   2.875  52.839  1.00  0.00    -0.308 N 
HETATM   21  C6  UNL     1      23.929   1.646  52.206  1.00  0.00     0.246 C 
HETATM   22  O1  UNL     1      23.605   1.675  50.993  1.00  0.00    -0.268 OA
HETATM   23  H11 UNL     1      23.780   3.060  53.858  1.00  0.00     0.170 HD
BRANCH  21  24
HETATM   24  C5  UNL     1      24.556   0.574  52.946  1.00  0.00     0.072 C 
HETATM   25  C4  UNL     1      23.929  -0.526  53.316  1.00  0.00     0.008 C 
BRANCH  25  26
HETATM   26  C3  UNL     1      22.534  -0.992  53.125  1.00  0.00     0.299 C 
BRANCH  26  27
HETATM   27  N1  UNL     1      21.959  -1.205  54.450  1.00  0.00     0.083 N 
HETATM   28  C1  UNL     1      22.992  -1.403  55.441  1.00  0.00     0.309 C 
HETATM   29  C2  UNL     1      21.183  -0.029  54.772  1.00  0.00     0.309 C 
ENDBRANCH  26  27
ENDBRANCH  25  26
ENDBRANCH  21  24
ENDBRANCH   1  20
TORSDOF 6
ENDMDL
