MODEL 1
REMARK VINA RESULT:      -8.6      0.000      0.000
REMARK  0 active torsions:
REMARK  status: ('A' for Active; 'I' for Inactive)
REMARK       I    between atoms: N1_1  and  C1_2 
ROOT
HETATM    1  N1  UNL     1      31.887   6.214  50.843  1.00  0.00    -0.230 N 
HETATM    2  C1  UNL     1      32.043   6.764  49.542  1.00  0.00     0.742 C 
HETATM    3  N2  UNL     1      32.719   6.176  48.575  1.00  0.00     0.044 NA
HETATM    4  N3  UNL     1      32.765   6.879  47.352  1.00  0.00    -0.132 NA
HETATM    5  C2  UNL     1      32.626   6.149  46.297  1.00  0.00     0.110 C 
HETATM    6  C3  UNL     1      33.081   4.935  46.415  1.00  0.00     0.036 C 
HETATM    7  C4  UNL     1      31.861   4.451  46.967  1.00  0.00     0.002 C 
HETATM    8  C5  UNL     1      30.686   4.362  47.466  1.00  0.00     0.001 C 
HETATM    9  C6  UNL     1      29.657   5.234  47.819  1.00  0.00     0.012 C 
HETATM   10  C7  UNL     1      28.583   5.858  48.211  1.00  0.00    -0.026 A 
HETATM   11  C8  UNL     1      27.889   4.732  48.582  1.00  0.00     0.012 A 
HETATM   12  C9  UNL     1      26.592   4.692  49.120  1.00  0.00     0.001 A 
HETATM   13  C10 UNL     1      26.011   5.927  49.267  1.00  0.00     0.001 A 
HETATM   14  C11 UNL     1      26.716   7.041  48.892  1.00  0.00     0.012 A 
HETATM   15  C12 UNL     1      27.979   7.061  48.371  1.00  0.00    -0.024 A 
HETATM   16  C13 UNL     1      28.358   8.287  48.136  1.00  0.00     0.043 C 
HETATM   17  C14 UNL     1      29.526   8.947  47.623  1.00  0.00     0.060 C 
HETATM   18  C15 UNL     1      29.466   9.325  46.358  1.00  0.00     0.039 C 
HETATM   19 BR1  UNL     1      27.727   8.803  45.686  1.00  0.00    -0.049 Br
HETATM   20  C16 UNL     1      30.486  10.009  45.530  1.00  0.00     0.035 C 
HETATM   21  C17 UNL     1      31.519  10.437  46.184  1.00  0.00    -0.007 C 
HETATM   22  C18 UNL     1      31.666   9.985  47.421  1.00  0.00     0.113 C 
HETATM   23  N4  UNL     1      30.751   9.282  48.308  1.00  0.00    -0.280 N 
HETATM   24  C19 UNL     1      31.236   9.054  49.667  1.00  0.00     0.311 C 
HETATM   25  F1  UNL     1      30.918  10.279  50.113  1.00  0.00    -0.162 F 
HETATM   26  N5  UNL     1      31.490   7.950  49.148  1.00  0.00    -0.014 NA
HETATM   27  H1  UNL     1      32.689   6.722  51.283  1.00  0.00     0.174 HD
HETATM   28  H2  UNL     1      31.367   5.583  51.488  1.00  0.00     0.174 HD
ENDROOT
TORSDOF 0
ENDMDL
MODEL 2
REMARK VINA RESULT:      -8.5      1.063      1.162
REMARK  0 active torsions:
REMARK  status: ('A' for Active; 'I' for Inactive)
REMARK       I    between atoms: N1_1  and  C1_2 
ROOT
HETATM    1  N1  UNL     1      31.788   7.836  50.505  1.00  0.00    -0.230 N 
HETATM    2  C1  UNL     1      31.917   8.183  49.132  1.00  0.00     0.742 C 
HETATM    3  N2  UNL     1      32.772   7.608  48.310  1.00  0.00     0.044 NA
HETATM    4  N3  UNL     1      32.756   8.090  46.984  1.00  0.00    -0.132 NA
HETATM    5  C2  UNL     1      32.853   7.183  46.071  1.00  0.00     0.110 C 
HETATM    6  C3  UNL     1      33.546   6.138  46.419  1.00  0.00     0.036 C 
HETATM    7  C4  UNL     1      32.421   5.492  47.006  1.00  0.00     0.002 C 
HETATM    8  C5  UNL     1      31.259   5.228  47.472  1.00  0.00     0.001 C 
HETATM    9  C6  UNL     1      30.045   5.895  47.629  1.00  0.00     0.012 C 
HETATM   10  C7  UNL     1      28.837   6.320  47.866  1.00  0.00    -0.026 A 
HETATM   11  C8  UNL     1      28.374   5.146  48.408  1.00  0.00     0.012 A 
HETATM   12  C9  UNL     1      27.080   4.907  48.900  1.00  0.00     0.001 A 
HETATM   13  C10 UNL     1      26.239   5.988  48.804  1.00  0.00     0.001 A 
HETATM   14  C11 UNL     1      26.716   7.153  48.261  1.00  0.00     0.012 A 
HETATM   15  C12 UNL     1      27.980   7.367  47.789  1.00  0.00    -0.024 A 
HETATM   16  C13 UNL     1      28.104   8.590  47.352  1.00  0.00     0.043 C 
HETATM   17  C14 UNL     1      29.139   9.399  46.770  1.00  0.00     0.060 C 
HETATM   18  C15 UNL     1      29.091   9.539  45.456  1.00  0.00     0.039 C 
HETATM   19 BR1  UNL     1      27.557   8.538  44.829  1.00  0.00    -0.049 Br
HETATM   20  C16 UNL     1      29.999  10.286  44.556  1.00  0.00     0.035 C 
HETATM   21  C17 UNL     1      30.866  11.036  45.157  1.00  0.00    -0.007 C 
HETATM   22  C18 UNL     1      31.016  10.840  46.460  1.00  0.00     0.113 C 
HETATM   23  N4  UNL     1      30.211  10.108  47.425  1.00  0.00    -0.280 N 
HETATM   24  C19 UNL     1      30.632  10.223  48.819  1.00  0.00     0.311 C 
HETATM   25  F1  UNL     1      30.028  11.403  49.028  1.00  0.00    -0.162 F 
HETATM   26  N5  UNL     1      31.153   9.133  48.514  1.00  0.00    -0.014 NA
HETATM   27  H1  UNL     1      32.429   8.576  50.874  1.00  0.00     0.174 HD
HETATM   28  H2  UNL     1      31.370   7.221  51.234  1.00  0.00     0.174 HD
ENDROOT
TORSDOF 0
ENDMDL
MODEL 3
REMARK VINA RESULT:      -8.4      5.720      8.078
REMARK  0 active torsions:
REMARK  status: ('A' for Active; 'I' for Inactive)
REMARK       I    between atoms: N1_1  and  C1_2 
ROOT
HETATM    1  N1  UNL     1      24.538   7.344  51.951  1.00  0.00    -0.230 N 
HETATM    2  C1  UNL     1      24.061   7.189  50.620  1.00  0.00     0.742 C 
HETATM    3  N2  UNL     1      24.666   7.697  49.564  1.00  0.00     0.044 NA
HETATM    4  N3  UNL     1      24.040   7.440  48.326  1.00  0.00    -0.132 NA
HETATM    5  C2  UNL     1      24.842   7.144  47.359  1.00  0.00     0.110 C 
HETATM    6  C3  UNL     1      26.015   7.702  47.439  1.00  0.00     0.036 C 
HETATM    7  C4  UNL     1      26.540   6.660  48.255  1.00  0.00     0.002 C 
HETATM    8  C5  UNL     1      26.670   5.621  48.991  1.00  0.00     0.001 C 
HETATM    9  C6  UNL     1      25.845   4.624  49.507  1.00  0.00     0.012 C 
HETATM   10  C7  UNL     1      25.266   3.609  50.083  1.00  0.00    -0.026 A 
HETATM   11  C8  UNL     1      26.408   3.091  50.644  1.00  0.00     0.012 A 
HETATM   12  C9  UNL     1      26.496   1.938  51.441  1.00  0.00     0.001 A 
HETATM   13  C10 UNL     1      25.294   1.308  51.646  1.00  0.00     0.001 A 
HETATM   14  C11 UNL     1      24.163   1.837  51.078  1.00  0.00     0.012 A 
HETATM   15  C12 UNL     1      24.097   2.962  50.306  1.00  0.00    -0.024 A 
HETATM   16  C13 UNL     1      22.866   3.192  49.938  1.00  0.00     0.043 C 
HETATM   17  C14 UNL     1      22.167   4.179  49.162  1.00  0.00     0.060 C 
HETATM   18  C15 UNL     1      21.874   3.834  47.920  1.00  0.00     0.039 C 
HETATM   19 BR1  UNL     1      22.547   2.038  47.651  1.00  0.00    -0.049 Br
HETATM   20  C16 UNL     1      21.180   4.610  46.867  1.00  0.00     0.035 C 
HETATM   21  C17 UNL     1      20.648   5.719  47.270  1.00  0.00    -0.007 C 
HETATM   22  C18 UNL     1      21.011   6.148  48.470  1.00  0.00     0.113 C 
HETATM   23  N4  UNL     1      21.713   5.489  49.560  1.00  0.00    -0.280 N 
HETATM   24  C19 UNL     1      21.824   6.256  50.799  1.00  0.00     0.311 C 
HETATM   25  F1  UNL     1      20.596   5.945  51.241  1.00  0.00    -0.162 F 
HETATM   26  N5  UNL     1      22.941   6.480  50.292  1.00  0.00    -0.014 NA
HETATM   27  H1  UNL     1      23.953   8.179  52.189  1.00  0.00     0.174 HD
HETATM   28  H2  UNL     1      25.159   7.015  52.720  1.00  0.00     0.174 HD
ENDROOT
TORSDOF 0
ENDMDL
MODEL 4
REMARK VINA RESULT:      -8.3      6.112      8.605
REMARK  0 active torsions:
REMARK  status: ('A' for Active; 'I' for Inactive)
REMARK       I    between atoms: N1_1  and  C1_2 
ROOT
HETATM    1  N1  UNL     1      24.244   6.208  52.700  1.00  0.00    -0.230 N 
HETATM    2  C1  UNL     1      24.122   5.995  51.299  1.00  0.00     0.742 C 
HETATM    3  N2  UNL     1      25.135   6.067  50.459  1.00  0.00     0.044 NA
HETATM    4  N3  UNL     1      24.817   5.828  49.105  1.00  0.00    -0.132 NA
HETATM    5  C2  UNL     1      25.673   5.107  48.461  1.00  0.00     0.110 C 
HETATM    6  C3  UNL     1      26.901   5.229  48.873  1.00  0.00     0.036 C 
HETATM    7  C4  UNL     1      26.746   4.232  49.877  1.00  0.00     0.002 C 
HETATM    8  C5  UNL     1      26.265   3.359  50.680  1.00  0.00     0.001 C 
HETATM    9  C6  UNL     1      25.014   2.818  50.971  1.00  0.00     0.012 C 
HETATM   10  C7  UNL     1      23.959   2.184  51.397  1.00  0.00    -0.026 A 
HETATM   11  C8  UNL     1      24.617   1.411  52.322  1.00  0.00     0.012 A 
HETATM   12  C9  UNL     1      24.038   0.459  53.176  1.00  0.00     0.001 A 
HETATM   13  C10 UNL     1      22.680   0.330  53.030  1.00  0.00     0.001 A 
HETATM   14  C11 UNL     1      22.037   1.109  52.102  1.00  0.00     0.012 A 
HETATM   15  C12 UNL     1      22.617   2.032  51.280  1.00  0.00    -0.024 A 
HETATM   16  C13 UNL     1      21.718   2.604  50.528  1.00  0.00     0.043 C 
HETATM   17  C14 UNL     1      21.688   3.619  49.510  1.00  0.00     0.060 C 
HETATM   18  C15 UNL     1      21.631   3.182  48.263  1.00  0.00     0.039 C 
HETATM   19 BR1  UNL     1      21.609   1.248  48.334  1.00  0.00    -0.049 Br
HETATM   20  C16 UNL     1      21.599   3.951  46.998  1.00  0.00     0.035 C 
HETATM   21  C17 UNL     1      21.445   5.229  47.142  1.00  0.00    -0.007 C 
HETATM   22  C18 UNL     1      21.607   5.711  48.366  1.00  0.00     0.113 C 
HETATM   23  N4  UNL     1      21.681   5.053  49.661  1.00  0.00    -0.280 N 
HETATM   24  C19 UNL     1      21.740   5.940  50.820  1.00  0.00     0.311 C 
HETATM   25  F1  UNL     1      20.416   6.157  50.870  1.00  0.00    -0.162 F 
HETATM   26  N5  UNL     1      22.949   5.672  50.680  1.00  0.00    -0.014 NA
HETATM   27  H1  UNL     1      23.983   7.221  52.688  1.00  0.00     0.174 HD
HETATM   28  H2  UNL     1      24.459   5.826  53.645  1.00  0.00     0.174 HD
ENDROOT
TORSDOF 0
ENDMDL
MODEL 5
REMARK VINA RESULT:      -8.1      5.005      6.979
REMARK  0 active torsions:
REMARK  status: ('A' for Active; 'I' for Inactive)
REMARK       I    between atoms: N1_1  and  C1_2 
ROOT
HETATM    1  N1  UNL     1      24.545   6.971  51.969  1.00  0.00    -0.230 N 
HETATM    2  C1  UNL     1      24.748   7.290  50.598  1.00  0.00     0.742 C 
HETATM    3  N2  UNL     1      25.928   7.268  50.009  1.00  0.00     0.044 NA
HETATM    4  N3  UNL     1      25.929   7.619  48.642  1.00  0.00    -0.132 NA
HETATM    5  C2  UNL     1      26.690   6.896  47.892  1.00  0.00     0.110 C 
HETATM    6  C3  UNL     1      27.749   6.427  48.488  1.00  0.00     0.036 C 
HETATM    7  C4  UNL     1      27.060   5.281  48.976  1.00  0.00     0.002 C 
HETATM    8  C5  UNL     1      26.160   4.426  49.286  1.00  0.00     0.001 C 
HETATM    9  C6  UNL     1      24.778   4.304  49.156  1.00  0.00     0.012 C 
HETATM   10  C7  UNL     1      23.515   3.988  49.139  1.00  0.00    -0.026 A 
HETATM   11  C8  UNL     1      23.661   2.772  49.761  1.00  0.00     0.012 A 
HETATM   12  C9  UNL     1      22.635   1.865  50.072  1.00  0.00     0.001 A 
HETATM   13  C10 UNL     1      21.384   2.287  49.695  1.00  0.00     0.001 A 
HETATM   14  C11 UNL     1      21.254   3.504  49.075  1.00  0.00     0.012 A 
HETATM   15  C12 UNL     1      22.265   4.374  48.782  1.00  0.00    -0.024 A 
HETATM   16  C13 UNL     1      21.795   5.444  48.202  1.00  0.00     0.043 C 
HETATM   17  C14 UNL     1      22.320   6.676  47.682  1.00  0.00     0.060 C 
HETATM   18  C15 UNL     1      22.479   6.727  46.371  1.00  0.00     0.039 C 
HETATM   19 BR1  UNL     1      21.903   5.021  45.658  1.00  0.00    -0.049 Br
HETATM   20  C16 UNL     1      23.001   7.827  45.528  1.00  0.00     0.035 C 
HETATM   21  C17 UNL     1      23.175   8.951  46.147  1.00  0.00    -0.007 C 
HETATM   22  C18 UNL     1      23.132   8.910  47.472  1.00  0.00     0.113 C 
HETATM   23  N4  UNL     1      22.672   7.882  48.392  1.00  0.00    -0.280 N 
HETATM   24  C19 UNL     1      22.662   8.254  49.805  1.00  0.00     0.311 C 
HETATM   25  F1  UNL     1      21.487   8.900  49.749  1.00  0.00    -0.162 F 
HETATM   26  N5  UNL     1      23.741   7.632  49.741  1.00  0.00    -0.014 NA
HETATM   27  H1  UNL     1      24.589   7.953  52.327  1.00  0.00     0.174 HD
HETATM   28  H2  UNL     1      24.386   6.248  52.702  1.00  0.00     0.174 HD
ENDROOT
TORSDOF 0
ENDMDL
MODEL 6
REMARK VINA RESULT:      -8.0      2.659      4.787
REMARK  0 active torsions:
REMARK  status: ('A' for Active; 'I' for Inactive)
REMARK       I    between atoms: N1_1  and  C1_2 
ROOT
HETATM    1  N1  UNL     1      28.460   9.887  44.936  1.00  0.00    -0.230 N 
HETATM    2  C1  UNL     1      29.626  10.008  45.741  1.00  0.00     0.742 C 
HETATM    3  N2  UNL     1      29.874  11.045  46.516  1.00  0.00     0.044 NA
HETATM    4  N3  UNL     1      31.085  10.985  47.238  1.00  0.00    -0.132 NA
HETATM    5  C2  UNL     1      31.014  11.396  48.460  1.00  0.00     0.110 C 
HETATM    6  C3  UNL     1      30.131  12.329  48.666  1.00  0.00     0.036 C 
HETATM    7  C4  UNL     1      29.078  11.393  48.871  1.00  0.00     0.002 C 
HETATM    8  C5  UNL     1      28.381  10.323  48.946  1.00  0.00     0.001 C 
HETATM    9  C6  UNL     1      28.567   8.963  48.705  1.00  0.00     0.012 C 
HETATM   10  C7  UNL     1      28.523   7.671  48.548  1.00  0.00    -0.026 A 
HETATM   11  C8  UNL     1      27.220   7.520  48.953  1.00  0.00     0.012 A 
HETATM   12  C9  UNL     1      26.502   6.314  49.024  1.00  0.00     0.001 A 
HETATM   13  C10 UNL     1      27.224   5.212  48.639  1.00  0.00     0.001 A 
HETATM   14  C11 UNL     1      28.524   5.379  48.237  1.00  0.00     0.012 A 
HETATM   15  C12 UNL     1      29.206   6.561  48.173  1.00  0.00    -0.024 A 
HETATM   16  C13 UNL     1      30.420   6.367  47.737  1.00  0.00     0.043 C 
HETATM   17  C14 UNL     1      31.576   7.170  47.450  1.00  0.00     0.060 C 
HETATM   18  C15 UNL     1      32.518   7.176  48.377  1.00  0.00     0.039 C 
HETATM   19 BR1  UNL     1      31.912   6.032  49.817  1.00  0.00    -0.049 Br
HETATM   20  C16 UNL     1      33.812   7.897  48.400  1.00  0.00     0.035 C 
HETATM   21  C17 UNL     1      34.132   8.475  47.286  1.00  0.00    -0.007 C 
HETATM   22  C18 UNL     1      33.172   8.584  46.378  1.00  0.00     0.113 C 
HETATM   23  N4  UNL     1      31.866   7.952  46.273  1.00  0.00    -0.280 N 
HETATM   24  C19 UNL     1      31.126   8.227  45.044  1.00  0.00     0.311 C 
HETATM   25  F1  UNL     1      31.766   7.303  44.311  1.00  0.00    -0.162 F 
HETATM   26  N5  UNL     1      30.600   9.053  45.814  1.00  0.00    -0.014 NA
HETATM   27  H1  UNL     1      28.884  10.268  44.057  1.00  0.00     0.174 HD
HETATM   28  H2  UNL     1      27.460   9.609  44.850  1.00  0.00     0.174 HD
ENDROOT
TORSDOF 0
ENDMDL
MODEL 7
REMARK VINA RESULT:      -7.9      2.155      2.930
REMARK  0 active torsions:
REMARK  status: ('A' for Active; 'I' for Inactive)
REMARK       I    between atoms: N1_1  and  C1_2 
ROOT
HETATM    1  N1  UNL     1      30.605   9.646  50.216  1.00  0.00    -0.230 N 
HETATM    2  C1  UNL     1      30.550   9.998  48.839  1.00  0.00     0.742 C 
HETATM    3  N2  UNL     1      31.543   9.801  47.994  1.00  0.00     0.044 NA
HETATM    4  N3  UNL     1      31.301  10.219  46.668  1.00  0.00    -0.132 NA
HETATM    5  C2  UNL     1      31.729   9.414  45.754  1.00  0.00     0.110 C 
HETATM    6  C3  UNL     1      32.791   8.736  46.085  1.00  0.00     0.036 C 
HETATM    7  C4  UNL     1      32.032   7.704  46.705  1.00  0.00     0.002 C 
HETATM    8  C5  UNL     1      31.084   7.004  47.205  1.00  0.00     0.001 C 
HETATM    9  C6  UNL     1      29.709   7.134  47.395  1.00  0.00     0.012 C 
HETATM   10  C7  UNL     1      28.438   7.045  47.666  1.00  0.00    -0.026 A 
HETATM   11  C8  UNL     1      28.496   5.791  48.223  1.00  0.00     0.012 A 
HETATM   12  C9  UNL     1      27.418   5.063  48.752  1.00  0.00     0.001 A 
HETATM   13  C10 UNL     1      26.213   5.717  48.678  1.00  0.00     0.001 A 
HETATM   14  C11 UNL     1      26.172   6.968  48.119  1.00  0.00     0.012 A 
HETATM   15  C12 UNL     1      27.233   7.662  47.611  1.00  0.00    -0.024 A 
HETATM   16  C13 UNL     1      26.848   8.827  47.168  1.00  0.00     0.043 C 
HETATM   17  C14 UNL     1      27.458   9.974  46.555  1.00  0.00     0.060 C 
HETATM   18  C15 UNL     1      27.326  10.066  45.243  1.00  0.00     0.039 C 
HETATM   19 BR1  UNL     1      26.303   8.528  44.662  1.00  0.00    -0.049 Br
HETATM   20  C16 UNL     1      27.837  11.101  44.315  1.00  0.00     0.035 C 
HETATM   21  C17 UNL     1      28.348  12.142  44.890  1.00  0.00    -0.007 C 
HETATM   22  C18 UNL     1      28.596  12.040  46.188  1.00  0.00     0.113 C 
HETATM   23  N4  UNL     1      28.175  11.061  47.178  1.00  0.00    -0.280 N 
HETATM   24  C19 UNL     1      28.551  11.352  48.559  1.00  0.00     0.311 C 
HETATM   25  F1  UNL     1      27.532  12.196  48.783  1.00  0.00    -0.162 F 
HETATM   26  N5  UNL     1      29.456  10.556  48.242  1.00  0.00    -0.014 NA
HETATM   27  H1  UNL     1      30.907  10.586  50.566  1.00  0.00     0.174 HD
HETATM   28  H2  UNL     1      30.486   8.926  50.958  1.00  0.00     0.174 HD
ENDROOT
TORSDOF 0
ENDMDL
MODEL 8
REMARK VINA RESULT:      -7.8      6.252      8.987
REMARK  0 active torsions:
REMARK  status: ('A' for Active; 'I' for Inactive)
REMARK       I    between atoms: N1_1  and  C1_2 
ROOT
HETATM    1  N1  UNL     1      23.007   1.926  47.064  1.00  0.00    -0.230 N 
HETATM    2  C1  UNL     1      22.331   2.668  48.070  1.00  0.00     0.742 C 
HETATM    3  N2  UNL     1      21.957   2.158  49.227  1.00  0.00     0.044 NA
HETATM    4  N3  UNL     1      21.295   3.051  50.097  1.00  0.00    -0.132 NA
HETATM    5  C2  UNL     1      21.636   2.958  51.339  1.00  0.00     0.110 C 
HETATM    6  C3  UNL     1      21.995   1.765  51.713  1.00  0.00     0.036 C 
HETATM    7  C4  UNL     1      23.346   1.961  51.308  1.00  0.00     0.002 C 
HETATM    8  C5  UNL     1      24.423   2.435  50.807  1.00  0.00     0.001 C 
HETATM    9  C6  UNL     1      24.804   3.567  50.089  1.00  0.00     0.012 C 
HETATM   10  C7  UNL     1      25.371   4.534  49.426  1.00  0.00    -0.026 A 
HETATM   11  C8  UNL     1      26.640   4.009  49.461  1.00  0.00     0.012 A 
HETATM   12  C9  UNL     1      27.794   4.579  48.898  1.00  0.00     0.001 A 
HETATM   13  C10 UNL     1      27.573   5.775  48.263  1.00  0.00     0.001 A 
HETATM   14  C11 UNL     1      26.301   6.286  48.235  1.00  0.00     0.012 A 
HETATM   15  C12 UNL     1      25.189   5.716  48.788  1.00  0.00    -0.024 A 
HETATM   16  C13 UNL     1      24.138   6.458  48.570  1.00  0.00     0.043 C 
HETATM   17  C14 UNL     1      22.733   6.407  48.869  1.00  0.00     0.060 C 
HETATM   18  C15 UNL     1      22.336   7.142  49.893  1.00  0.00     0.039 C 
HETATM   19 BR1  UNL     1      23.902   8.032  50.602  1.00  0.00    -0.049 Br
HETATM   20  C16 UNL     1      20.979   7.303  50.465  1.00  0.00     0.035 C 
HETATM   21  C17 UNL     1      20.027   6.775  49.765  1.00  0.00    -0.007 C 
HETATM   22  C18 UNL     1      20.394   5.943  48.799  1.00  0.00     0.113 C 
HETATM   23  N4  UNL     1      21.687   5.685  48.186  1.00  0.00    -0.280 N 
HETATM   24  C19 UNL     1      21.678   4.773  47.045  1.00  0.00     0.311 C 
HETATM   25  F1  UNL     1      21.305   5.704  46.153  1.00  0.00    -0.162 F 
HETATM   26  N5  UNL     1      22.018   3.993  47.956  1.00  0.00    -0.014 NA
HETATM   27  H1  UNL     1      22.154   1.665  46.516  1.00  0.00     0.174 HD
HETATM   28  H2  UNL     1      23.902   1.564  46.672  1.00  0.00     0.174 HD
ENDROOT
TORSDOF 0
ENDMDL
MODEL 9
REMARK VINA RESULT:      -7.8      6.240      8.703
REMARK  0 active torsions:
REMARK  status: ('A' for Active; 'I' for Inactive)
REMARK       I    between atoms: N1_1  and  C1_2 
ROOT
HETATM    1  N1  UNL     1      20.524   5.641  50.628  1.00  0.00    -0.230 N 
HETATM    2  C1  UNL     1      21.434   4.557  50.491  1.00  0.00     0.742 C 
HETATM    3  N2  UNL     1      21.188   3.483  49.766  1.00  0.00     0.044 NA
HETATM    4  N3  UNL     1      22.211   2.512  49.754  1.00  0.00    -0.132 NA
HETATM    5  C2  UNL     1      22.440   1.973  48.604  1.00  0.00     0.110 C 
HETATM    6  C3  UNL     1      21.397   1.890  47.829  1.00  0.00     0.036 C 
HETATM    7  C4  UNL     1      21.587   3.200  47.305  1.00  0.00     0.002 C 
HETATM    8  C5  UNL     1      22.005   4.390  47.090  1.00  0.00     0.001 C 
HETATM    9  C6  UNL     1      22.959   5.252  47.629  1.00  0.00     0.012 C 
HETATM   10  C7  UNL     1      23.778   6.204  47.971  1.00  0.00    -0.026 A 
HETATM   11  C8  UNL     1      23.368   7.099  47.013  1.00  0.00     0.012 A 
HETATM   12  C9  UNL     1      23.868   8.397  46.815  1.00  0.00     0.001 A 
HETATM   13  C10 UNL     1      24.861   8.752  47.694  1.00  0.00     0.001 A 
HETATM   14  C11 UNL     1      25.260   7.847  48.644  1.00  0.00     0.012 A 
HETATM   15  C12 UNL     1      24.760   6.589  48.822  1.00  0.00    -0.024 A 
HETATM   16  C13 UNL     1      25.352   5.998  49.824  1.00  0.00     0.043 C 
HETATM   17  C14 UNL     1      25.274   4.729  50.493  1.00  0.00     0.060 C 
HETATM   18  C15 UNL     1      26.201   3.846  50.162  1.00  0.00     0.039 C 
HETATM   19 BR1  UNL     1      27.342   4.681  48.840  1.00  0.00    -0.049 Br
HETATM   20  C16 UNL     1      26.396   2.461  50.648  1.00  0.00     0.035 C 
HETATM   21  C17 UNL     1      25.651   2.126  51.653  1.00  0.00    -0.007 C 
HETATM   22  C18 UNL     1      24.643   2.938  51.938  1.00  0.00     0.113 C 
HETATM   23  N4  UNL     1      24.339   4.292  51.501  1.00  0.00    -0.280 N 
HETATM   24  C19 UNL     1      23.185   4.920  52.138  1.00  0.00     0.311 C 
HETATM   25  F1  UNL     1      23.849   5.297  53.241  1.00  0.00    -0.162 F 
HETATM   26  N5  UNL     1      22.668   4.523  51.075  1.00  0.00    -0.014 NA
HETATM   27  H1  UNL     1      20.082   5.311  51.518  1.00  0.00     0.174 HD
HETATM   28  H2  UNL     1      20.144   6.538  50.261  1.00  0.00     0.174 HD
ENDROOT
TORSDOF 0
ENDMDL
