MODEL 1
REMARK VINA RESULT:      -8.4      0.000      0.000
REMARK  6 active torsions:
REMARK  status: ('A' for Active; 'I' for Inactive)
REMARK    1  A    between atoms: C2_2  and  C3_3 
REMARK    2  A    between atoms: C4_4  and  C5_5 
REMARK    3  A    between atoms: C5_5  and  C6_6 
REMARK    4  A    between atoms: C6_6  and  N1_7 
REMARK       I    between atoms: N1_7  and  C7_8 
REMARK    5  A    between atoms: C7_8  and  C8_10 
REMARK    6  A    between atoms: C8_10  and  C9_11 
ROOT
HETATM    1  C9  UNL     1      24.337   2.837  51.736  1.00  0.00    -0.047 C 
HETATM    2  C10 UNL     1      24.195   3.880  50.897  1.00  0.00     0.006 C 
HETATM    3  C11 UNL     1      23.383   4.116  49.682  1.00  0.00     0.004 C 
HETATM    4  C12 UNL     1      22.464   3.365  49.119  1.00  0.00     0.055 C 
HETATM    5  C13 UNL     1      21.461   2.596  48.458  1.00  0.00     0.172 C 
HETATM    6  O2  UNL     1      20.886   2.655  47.390  1.00  0.00    -0.289 OA
HETATM    7  C14 UNL     1      20.775   1.421  49.015  1.00  0.00     0.055 C 
HETATM    8  C15 UNL     1      20.923   1.038  50.233  1.00  0.00     0.018 C 
HETATM    9  C16 UNL     1      21.009   0.494  51.614  1.00  0.00    -0.003 A 
HETATM   10  C17 UNL     1      19.716   0.052  51.911  1.00  0.00     0.014 A 
HETATM   11  C18 UNL     1      19.309  -0.542  53.102  1.00  0.00     0.001 A 
HETATM   12  C19 UNL     1      20.360  -0.639  53.967  1.00  0.00     0.003 A 
HETATM   13  C20 UNL     1      21.637  -0.224  53.727  1.00  0.00     0.037 A 
HETATM   14  C21 UNL     1      22.007   0.346  52.570  1.00  0.00     0.079 A 
HETATM   15  O3  UNL     1      23.008   0.843  51.975  1.00  0.00    -0.346 OA
HETATM   16  C22 UNL     1      23.931   1.468  51.326  1.00  0.00     0.210 C 
ENDROOT
BRANCH   1  17
HETATM   17  C8  UNL     1      25.176   2.802  52.931  1.00  0.00     0.139 C 
BRANCH  17  18
HETATM   18  C7  UNL     1      26.601   2.534  52.639  1.00  0.00     0.221 C 
HETATM   19  N1  UNL     1      27.376   2.478  53.864  1.00  0.00    -0.361 N 
HETATM   20  H14 UNL     1      26.888   2.612  54.804  1.00  0.00     0.162 HD
HETATM   21  O1  UNL     1      27.429   2.330  51.721  1.00  0.00    -0.273 OA
BRANCH  19  22
HETATM   22  C6  UNL     1      28.851   2.247  53.999  1.00  0.00     0.122 C 
BRANCH  22  23
HETATM   23  C5  UNL     1      29.148   0.880  54.471  1.00  0.00     0.020 C 
BRANCH  23  24
HETATM   24  C4  UNL     1      29.228  -0.203  53.510  1.00  0.00     0.002 C 
HETATM   25  C3  UNL     1      28.280  -1.232  53.172  1.00  0.00    -0.000 C 
BRANCH  25  26
HETATM   26  C2  UNL     1      26.929  -1.085  52.651  1.00  0.00    -0.005 C 
HETATM   27  C1  UNL     1      25.796  -0.854  53.592  1.00  0.00     0.005 C 
ENDBRANCH  25  26
ENDBRANCH  23  24
ENDBRANCH  22  23
ENDBRANCH  19  22
ENDBRANCH  17  18
ENDBRANCH   1  17
TORSDOF 6
ENDMDL
MODEL 2
REMARK VINA RESULT:      -8.2      2.748      6.045
REMARK  6 active torsions:
REMARK  status: ('A' for Active; 'I' for Inactive)
REMARK    1  A    between atoms: C2_2  and  C3_3 
REMARK    2  A    between atoms: C4_4  and  C5_5 
REMARK    3  A    between atoms: C5_5  and  C6_6 
REMARK    4  A    between atoms: C6_6  and  N1_7 
REMARK       I    between atoms: N1_7  and  C7_8 
REMARK    5  A    between atoms: C7_8  and  C8_10 
REMARK    6  A    between atoms: C8_10  and  C9_11 
ROOT
HETATM    1  C9  UNL     1      22.303   2.613  51.509  1.00  0.00    -0.047 C 
HETATM    2  C10 UNL     1      21.146   2.574  52.195  1.00  0.00     0.006 C 
HETATM    3  C11 UNL     1      20.542   1.600  53.133  1.00  0.00     0.004 C 
HETATM    4  C12 UNL     1      21.040   0.498  53.646  1.00  0.00     0.055 C 
HETATM    5  C13 UNL     1      21.521  -0.708  54.235  1.00  0.00     0.172 C 
HETATM    6  O2  UNL     1      21.030  -1.621  54.868  1.00  0.00    -0.289 OA
HETATM    7  C14 UNL     1      22.920  -1.162  54.243  1.00  0.00     0.055 C 
HETATM    8  C15 UNL     1      23.892  -0.433  53.821  1.00  0.00     0.018 C 
HETATM    9  C16 UNL     1      25.098   0.306  53.365  1.00  0.00    -0.003 A 
HETATM   10  C17 UNL     1      26.104  -0.045  54.271  1.00  0.00     0.014 A 
HETATM   11  C18 UNL     1      27.422   0.401  54.243  1.00  0.00     0.001 A 
HETATM   12  C19 UNL     1      27.613   1.250  53.192  1.00  0.00     0.003 A 
HETATM   13  C20 UNL     1      26.668   1.625  52.282  1.00  0.00     0.037 A 
HETATM   14  C21 UNL     1      25.403   1.180  52.328  1.00  0.00     0.079 A 
HETATM   15  O3  UNL     1      24.290   1.269  51.732  1.00  0.00    -0.346 OA
HETATM   16  C22 UNL     1      23.090   1.375  51.269  1.00  0.00     0.210 C 
ENDROOT
BRANCH   1  17
HETATM   17  C8  UNL     1      22.754   3.699  50.642  1.00  0.00     0.139 C 
BRANCH  17  18
HETATM   18  C7  UNL     1      23.380   4.817  51.381  1.00  0.00     0.221 C 
HETATM   19  N1  UNL     1      23.681   5.920  50.489  1.00  0.00    -0.361 N 
HETATM   20  H14 UNL     1      23.432   5.844  49.453  1.00  0.00     0.162 HD
HETATM   21  O1  UNL     1      23.767   5.198  52.510  1.00  0.00    -0.273 OA
BRANCH  19  22
HETATM   22  C6  UNL     1      24.332   7.224  50.840  1.00  0.00     0.122 C 
BRANCH  22  23
HETATM   23  C5  UNL     1      25.707   7.307  50.306  1.00  0.00     0.020 C 
BRANCH  23  24
HETATM   24  C4  UNL     1      25.978   6.830  48.964  1.00  0.00     0.002 C 
HETATM   25  C3  UNL     1      27.060   6.030  48.452  1.00  0.00    -0.000 C 
BRANCH  25  26
HETATM   26  C2  UNL     1      27.453   4.682  48.836  1.00  0.00    -0.005 C 
HETATM   27  C1  UNL     1      26.438   3.754  49.412  1.00  0.00     0.005 C 
ENDBRANCH  25  26
ENDBRANCH  23  24
ENDBRANCH  22  23
ENDBRANCH  19  22
ENDBRANCH  17  18
ENDBRANCH   1  17
TORSDOF 6
ENDMDL
MODEL 3
REMARK VINA RESULT:      -8.2      2.786      5.913
REMARK  6 active torsions:
REMARK  status: ('A' for Active; 'I' for Inactive)
REMARK    1  A    between atoms: C2_2  and  C3_3 
REMARK    2  A    between atoms: C4_4  and  C5_5 
REMARK    3  A    between atoms: C5_5  and  C6_6 
REMARK    4  A    between atoms: C6_6  and  N1_7 
REMARK       I    between atoms: N1_7  and  C7_8 
REMARK    5  A    between atoms: C7_8  and  C8_10 
REMARK    6  A    between atoms: C8_10  and  C9_11 
ROOT
HETATM    1  C9  UNL     1      24.483   2.623  51.289  1.00  0.00    -0.047 C 
HETATM    2  C10 UNL     1      25.725   2.261  50.919  1.00  0.00     0.006 C 
HETATM    3  C11 UNL     1      26.770   1.407  51.529  1.00  0.00     0.004 C 
HETATM    4  C12 UNL     1      26.729   0.661  52.609  1.00  0.00     0.055 C 
HETATM    5  C13 UNL     1      26.749  -0.166  53.770  1.00  0.00     0.172 C 
HETATM    6  O2  UNL     1      27.605  -0.749  54.406  1.00  0.00    -0.289 OA
HETATM    7  C14 UNL     1      25.573  -0.589  54.545  1.00  0.00     0.055 C 
HETATM    8  C15 UNL     1      24.367  -0.355  54.166  1.00  0.00     0.018 C 
HETATM    9  C16 UNL     1      22.932  -0.146  53.840  1.00  0.00    -0.003 A 
HETATM   10  C17 UNL     1      22.291  -1.316  54.259  1.00  0.00     0.014 A 
HETATM   11  C18 UNL     1      20.928  -1.582  54.162  1.00  0.00     0.001 A 
HETATM   12  C19 UNL     1      20.279  -0.527  53.589  1.00  0.00     0.003 A 
HETATM   13  C20 UNL     1      20.855   0.634  53.164  1.00  0.00     0.037 A 
HETATM   14  C21 UNL     1      22.173   0.868  53.268  1.00  0.00     0.079 A 
HETATM   15  O3  UNL     1      23.056   1.739  53.017  1.00  0.00    -0.346 OA
HETATM   16  C22 UNL     1      24.045   2.507  52.704  1.00  0.00     0.210 C 
ENDROOT
BRANCH   1  17
HETATM   17  C8  UNL     1      23.565   3.460  50.521  1.00  0.00     0.139 C 
BRANCH  17  18
HETATM   18  C7  UNL     1      23.498   4.855  51.008  1.00  0.00     0.221 C 
HETATM   19  N1  UNL     1      24.660   5.608  50.577  1.00  0.00    -0.361 N 
HETATM   20  H14 UNL     1      25.405   5.132  49.979  1.00  0.00     0.162 HD
HETATM   21  O1  UNL     1      22.810   5.669  51.668  1.00  0.00    -0.273 OA
BRANCH  19  22
HETATM   22  C6  UNL     1      24.979   7.042  50.875  1.00  0.00     0.122 C 
BRANCH  22  23
HETATM   23  C5  UNL     1      24.951   7.872  49.654  1.00  0.00     0.020 C 
BRANCH  23  24
HETATM   24  C4  UNL     1      25.391   7.300  48.396  1.00  0.00     0.002 C 
HETATM   25  C3  UNL     1      26.715   7.066  47.883  1.00  0.00    -0.000 C 
BRANCH  25  26
HETATM   26  C2  UNL     1      27.772   6.235  48.443  1.00  0.00    -0.005 C 
HETATM   27  C1  UNL     1      27.520   4.785  48.684  1.00  0.00     0.005 C 
ENDBRANCH  25  26
ENDBRANCH  23  24
ENDBRANCH  22  23
ENDBRANCH  19  22
ENDBRANCH  17  18
ENDBRANCH   1  17
TORSDOF 6
ENDMDL
MODEL 4
REMARK VINA RESULT:      -7.9      2.100      6.306
REMARK  6 active torsions:
REMARK  status: ('A' for Active; 'I' for Inactive)
REMARK    1  A    between atoms: C2_2  and  C3_3 
REMARK    2  A    between atoms: C4_4  and  C5_5 
REMARK    3  A    between atoms: C5_5  and  C6_6 
REMARK    4  A    between atoms: C6_6  and  N1_7 
REMARK       I    between atoms: N1_7  and  C7_8 
REMARK    5  A    between atoms: C7_8  and  C8_10 
REMARK    6  A    between atoms: C8_10  and  C9_11 
ROOT
HETATM    1  C9  UNL     1      24.578   2.931  51.469  1.00  0.00    -0.047 C 
HETATM    2  C10 UNL     1      25.755   2.539  50.949  1.00  0.00     0.006 C 
HETATM    3  C11 UNL     1      26.769   1.534  51.346  1.00  0.00     0.004 C 
HETATM    4  C12 UNL     1      26.745   0.645  52.312  1.00  0.00     0.055 C 
HETATM    5  C13 UNL     1      26.783  -0.340  53.342  1.00  0.00     0.172 C 
HETATM    6  O2  UNL     1      27.632  -1.068  53.817  1.00  0.00    -0.289 OA
HETATM    7  C14 UNL     1      25.636  -0.785  54.147  1.00  0.00     0.055 C 
HETATM    8  C15 UNL     1      24.428  -0.414  53.906  1.00  0.00     0.018 C 
HETATM    9  C16 UNL     1      22.995  -0.060  53.734  1.00  0.00    -0.003 A 
HETATM   10  C17 UNL     1      22.293  -1.230  54.039  1.00  0.00     0.014 A 
HETATM   11  C18 UNL     1      20.909  -1.381  54.022  1.00  0.00     0.001 A 
HETATM   12  C19 UNL     1      20.309  -0.211  53.657  1.00  0.00     0.003 A 
HETATM   13  C20 UNL     1      20.946   0.955  53.349  1.00  0.00     0.037 A 
HETATM   14  C21 UNL     1      22.282   1.077  53.373  1.00  0.00     0.079 A 
HETATM   15  O3  UNL     1      23.214   1.911  53.172  1.00  0.00    -0.346 OA
HETATM   16  C22 UNL     1      24.236   2.644  52.886  1.00  0.00     0.210 C 
ENDROOT
BRANCH   1  17
HETATM   17  C8  UNL     1      23.678   3.933  50.903  1.00  0.00     0.139 C 
BRANCH  17  18
HETATM   18  C7  UNL     1      22.870   3.425  49.774  1.00  0.00     0.221 C 
HETATM   19  N1  UNL     1      22.403   2.077  50.039  1.00  0.00    -0.361 N 
HETATM   20  H14 UNL     1      22.652   1.605  50.964  1.00  0.00     0.162 HD
HETATM   21  O1  UNL     1      22.416   3.707  48.640  1.00  0.00    -0.273 OA
BRANCH  19  22
HETATM   22  C6  UNL     1      21.575   1.206  49.143  1.00  0.00     0.122 C 
BRANCH  22  23
HETATM   23  C5  UNL     1      20.439   0.603  49.868  1.00  0.00     0.020 C 
BRANCH  23  24
HETATM   24  C4  UNL     1      19.131   1.223  49.782  1.00  0.00     0.002 C 
HETATM   25  C3  UNL     1      17.847   0.780  50.258  1.00  0.00    -0.000 C 
BRANCH  25  26
HETATM   26  C2  UNL     1      17.438   0.487  51.624  1.00  0.00    -0.005 C 
HETATM   27  C1  UNL     1      17.080  -0.910  52.003  1.00  0.00     0.005 C 
ENDBRANCH  25  26
ENDBRANCH  23  24
ENDBRANCH  22  23
ENDBRANCH  19  22
ENDBRANCH  17  18
ENDBRANCH   1  17
TORSDOF 6
ENDMDL
MODEL 5
REMARK VINA RESULT:      -7.6      4.190      8.974
REMARK  6 active torsions:
REMARK  status: ('A' for Active; 'I' for Inactive)
REMARK    1  A    between atoms: C2_2  and  C3_3 
REMARK    2  A    between atoms: C4_4  and  C5_5 
REMARK    3  A    between atoms: C5_5  and  C6_6 
REMARK    4  A    between atoms: C6_6  and  N1_7 
REMARK       I    between atoms: N1_7  and  C7_8 
REMARK    5  A    between atoms: C7_8  and  C8_10 
REMARK    6  A    between atoms: C8_10  and  C9_11 
ROOT
HETATM    1  C9  UNL     1      20.578   0.386  52.413  1.00  0.00    -0.047 C 
HETATM    2  C10 UNL     1      20.657  -0.054  53.682  1.00  0.00     0.006 C 
HETATM    3  C11 UNL     1      21.772  -0.517  54.540  1.00  0.00     0.004 C 
HETATM    4  C12 UNL     1      23.065  -0.536  54.310  1.00  0.00     0.055 C 
HETATM    5  C13 UNL     1      24.478  -0.585  54.122  1.00  0.00     0.172 C 
HETATM    6  O2  UNL     1      25.414  -1.095  54.705  1.00  0.00    -0.289 OA
HETATM    7  C14 UNL     1      25.226   0.094  53.054  1.00  0.00     0.055 C 
HETATM    8  C15 UNL     1      24.680   0.927  52.240  1.00  0.00     0.018 C 
HETATM    9  C16 UNL     1      24.171   1.903  51.242  1.00  0.00    -0.003 A 
HETATM   10  C17 UNL     1      25.202   2.834  51.085  1.00  0.00     0.014 A 
HETATM   11  C18 UNL     1      25.184   3.940  50.239  1.00  0.00     0.001 A 
HETATM   12  C19 UNL     1      23.999   4.002  49.567  1.00  0.00     0.003 A 
HETATM   13  C20 UNL     1      22.962   3.123  49.683  1.00  0.00     0.037 A 
HETATM   14  C21 UNL     1      23.003   2.063  50.505  1.00  0.00     0.079 A 
HETATM   15  O3  UNL     1      22.317   1.073  50.894  1.00  0.00    -0.346 OA
HETATM   16  C22 UNL     1      21.663   0.102  51.438  1.00  0.00     0.210 C 
ENDROOT
BRANCH   1  17
HETATM   17  C8  UNL     1      19.368   0.846  51.735  1.00  0.00     0.139 C 
BRANCH  17  18
HETATM   18  C7  UNL     1      19.086   2.281  51.950  1.00  0.00     0.221 C 
HETATM   19  N1  UNL     1      17.739   2.611  51.523  1.00  0.00    -0.361 N 
HETATM   20  H14 UNL     1      17.107   1.845  51.131  1.00  0.00     0.162 HD
HETATM   21  O1  UNL     1      19.566   3.360  52.368  1.00  0.00    -0.273 OA
BRANCH  19  22
HETATM   22  C6  UNL     1      17.076   3.955  51.556  1.00  0.00     0.122 C 
BRANCH  22  23
HETATM   23  C5  UNL     1      15.815   3.922  52.325  1.00  0.00     0.020 C 
BRANCH  23  24
HETATM   24  C4  UNL     1      14.550   3.960  51.618  1.00  0.00     0.002 C 
HETATM   25  C3  UNL     1      13.200   3.834  52.100  1.00  0.00    -0.000 C 
BRANCH  25  26
HETATM   26  C2  UNL     1      12.499   4.668  53.065  1.00  0.00    -0.005 C 
HETATM   27  C1  UNL     1      12.257   4.155  54.444  1.00  0.00     0.005 C 
ENDBRANCH  25  26
ENDBRANCH  23  24
ENDBRANCH  22  23
ENDBRANCH  19  22
ENDBRANCH  17  18
ENDBRANCH   1  17
TORSDOF 6
ENDMDL
MODEL 6
REMARK VINA RESULT:      -7.6      2.934      7.174
REMARK  6 active torsions:
REMARK  status: ('A' for Active; 'I' for Inactive)
REMARK    1  A    between atoms: C2_2  and  C3_3 
REMARK    2  A    between atoms: C4_4  and  C5_5 
REMARK    3  A    between atoms: C5_5  and  C6_6 
REMARK    4  A    between atoms: C6_6  and  N1_7 
REMARK       I    between atoms: N1_7  and  C7_8 
REMARK    5  A    between atoms: C7_8  and  C8_10 
REMARK    6  A    between atoms: C8_10  and  C9_11 
ROOT
HETATM    1  C9  UNL     1      20.585   0.640  52.275  1.00  0.00    -0.047 C 
HETATM    2  C10 UNL     1      20.419   0.278  53.561  1.00  0.00     0.006 C 
HETATM    3  C11 UNL     1      21.322  -0.280  54.594  1.00  0.00     0.004 C 
HETATM    4  C12 UNL     1      22.617  -0.496  54.559  1.00  0.00     0.055 C 
HETATM    5  C13 UNL     1      24.018  -0.756  54.584  1.00  0.00     0.172 C 
HETATM    6  O2  UNL     1      24.777  -1.353  55.322  1.00  0.00    -0.289 OA
HETATM    7  C14 UNL     1      25.001  -0.261  53.610  1.00  0.00     0.055 C 
HETATM    8  C15 UNL     1      24.705   0.586  52.688  1.00  0.00     0.018 C 
HETATM    9  C16 UNL     1      24.492   1.556  51.583  1.00  0.00    -0.003 A 
HETATM   10  C17 UNL     1      25.662   2.320  51.539  1.00  0.00     0.014 A 
HETATM   11  C18 UNL     1      25.927   3.359  50.652  1.00  0.00     0.001 A 
HETATM   12  C19 UNL     1      24.870   3.544  49.809  1.00  0.00     0.003 A 
HETATM   13  C20 UNL     1      23.709   2.829  49.810  1.00  0.00     0.037 A 
HETATM   14  C21 UNL     1      23.475   1.830  50.675  1.00  0.00     0.079 A 
HETATM   15  O3  UNL     1      22.602   0.974  51.002  1.00  0.00    -0.346 OA
HETATM   16  C22 UNL     1      21.741   0.143  51.486  1.00  0.00     0.210 C 
ENDROOT
BRANCH   1  17
HETATM   17  C8  UNL     1      19.564   1.220  51.406  1.00  0.00     0.139 C 
BRANCH  17  18
HETATM   18  C7  UNL     1      19.437   2.687  51.549  1.00  0.00     0.221 C 
HETATM   19  N1  UNL     1      19.848   3.361  50.331  1.00  0.00    -0.361 N 
HETATM   20  H14 UNL     1      20.170   2.784  49.493  1.00  0.00     0.162 HD
HETATM   21  O1  UNL     1      19.106   3.607  52.332  1.00  0.00    -0.273 OA
BRANCH  19  22
HETATM   22  C6  UNL     1      19.886   4.837  50.075  1.00  0.00     0.122 C 
BRANCH  22  23
HETATM   23  C5  UNL     1      21.270   5.353  50.068  1.00  0.00     0.020 C 
BRANCH  23  24
HETATM   24  C4  UNL     1      21.915   5.672  51.327  1.00  0.00     0.002 C 
HETATM   25  C3  UNL     1      23.265   6.082  51.613  1.00  0.00    -0.000 C 
BRANCH  25  26
HETATM   26  C2  UNL     1      23.976   7.260  51.137  1.00  0.00    -0.005 C 
HETATM   27  C1  UNL     1      25.293   7.100  50.457  1.00  0.00     0.005 C 
ENDBRANCH  25  26
ENDBRANCH  23  24
ENDBRANCH  22  23
ENDBRANCH  19  22
ENDBRANCH  17  18
ENDBRANCH   1  17
TORSDOF 6
ENDMDL
MODEL 7
REMARK VINA RESULT:      -7.5      2.108      3.015
REMARK  6 active torsions:
REMARK  status: ('A' for Active; 'I' for Inactive)
REMARK    1  A    between atoms: C2_2  and  C3_3 
REMARK    2  A    between atoms: C4_4  and  C5_5 
REMARK    3  A    between atoms: C5_5  and  C6_6 
REMARK    4  A    between atoms: C6_6  and  N1_7 
REMARK       I    between atoms: N1_7  and  C7_8 
REMARK    5  A    between atoms: C7_8  and  C8_10 
REMARK    6  A    between atoms: C8_10  and  C9_11 
ROOT
HETATM    1  C9  UNL     1      22.091   3.859  51.571  1.00  0.00    -0.047 C 
HETATM    2  C10 UNL     1      20.933   4.522  51.397  1.00  0.00     0.006 C 
HETATM    3  C11 UNL     1      19.541   4.101  51.117  1.00  0.00     0.004 C 
HETATM    4  C12 UNL     1      19.018   2.898  51.051  1.00  0.00     0.055 C 
HETATM    5  C13 UNL     1      18.390   1.621  50.964  1.00  0.00     0.172 C 
HETATM    6  O2  UNL     1      17.314   1.207  50.582  1.00  0.00    -0.289 OA
HETATM    7  C14 UNL     1      18.970   0.347  51.413  1.00  0.00     0.055 C 
HETATM    8  C15 UNL     1      20.077   0.274  52.065  1.00  0.00     0.018 C 
HETATM    9  C16 UNL     1      21.338   0.056  52.819  1.00  0.00    -0.003 A 
HETATM   10  C17 UNL     1      21.060  -0.994  53.698  1.00  0.00     0.014 A 
HETATM   11  C18 UNL     1      21.949  -1.555  54.610  1.00  0.00     0.001 A 
HETATM   12  C19 UNL     1      23.160  -0.931  54.536  1.00  0.00     0.003 A 
HETATM   13  C20 UNL     1      23.483   0.096  53.699  1.00  0.00     0.037 A 
HETATM   14  C21 UNL     1      22.609   0.621  52.827  1.00  0.00     0.079 A 
HETATM   15  O3  UNL     1      22.499   1.513  51.936  1.00  0.00    -0.346 OA
HETATM   16  C22 UNL     1      22.247   2.460  51.096  1.00  0.00     0.210 C 
ENDROOT
BRANCH   1  17
HETATM   17  C8  UNL     1      23.386   4.456  51.885  1.00  0.00     0.139 C 
BRANCH  17  18
HETATM   18  C7  UNL     1      24.480   3.974  51.014  1.00  0.00     0.221 C 
HETATM   19  N1  UNL     1      25.397   3.130  51.758  1.00  0.00    -0.361 N 
HETATM   20  H14 UNL     1      25.211   2.933  52.791  1.00  0.00     0.162 HD
HETATM   21  O1  UNL     1      24.944   4.008  49.851  1.00  0.00    -0.273 OA
BRANCH  19  22
HETATM   22  C6  UNL     1      26.638   2.463  51.248  1.00  0.00     0.122 C 
BRANCH  22  23
HETATM   23  C5  UNL     1      26.931   1.219  51.989  1.00  0.00     0.020 C 
BRANCH  23  24
HETATM   24  C4  UNL     1      26.980   1.248  53.437  1.00  0.00     0.002 C 
HETATM   25  C3  UNL     1      27.534   0.310  54.378  1.00  0.00    -0.000 C 
BRANCH  25  26
HETATM   26  C2  UNL     1      28.911  -0.144  54.503  1.00  0.00    -0.005 C 
HETATM   27  C1  UNL     1      29.500  -1.014  53.445  1.00  0.00     0.005 C 
ENDBRANCH  25  26
ENDBRANCH  23  24
ENDBRANCH  22  23
ENDBRANCH  19  22
ENDBRANCH  17  18
ENDBRANCH   1  17
TORSDOF 6
ENDMDL
MODEL 8
REMARK VINA RESULT:      -7.5      2.589      6.263
REMARK  6 active torsions:
REMARK  status: ('A' for Active; 'I' for Inactive)
REMARK    1  A    between atoms: C2_2  and  C3_3 
REMARK    2  A    between atoms: C4_4  and  C5_5 
REMARK    3  A    between atoms: C5_5  and  C6_6 
REMARK    4  A    between atoms: C6_6  and  N1_7 
REMARK       I    between atoms: N1_7  and  C7_8 
REMARK    5  A    between atoms: C7_8  and  C8_10 
REMARK    6  A    between atoms: C8_10  and  C9_11 
ROOT
HETATM    1  C9  UNL     1      24.483   2.702  51.354  1.00  0.00    -0.047 C 
HETATM    2  C10 UNL     1      25.694   2.308  50.919  1.00  0.00     0.006 C 
HETATM    3  C11 UNL     1      26.718   1.374  51.441  1.00  0.00     0.004 C 
HETATM    4  C12 UNL     1      26.677   0.566  52.475  1.00  0.00     0.055 C 
HETATM    5  C13 UNL     1      26.698  -0.330  53.585  1.00  0.00     0.172 C 
HETATM    6  O2  UNL     1      27.546  -0.987  54.154  1.00  0.00    -0.289 OA
HETATM    7  C14 UNL     1      25.530  -0.745  54.374  1.00  0.00     0.055 C 
HETATM    8  C15 UNL     1      24.323  -0.436  54.053  1.00  0.00     0.018 C 
HETATM    9  C16 UNL     1      22.890  -0.145  53.792  1.00  0.00    -0.003 A 
HETATM   10  C17 UNL     1      22.210  -1.308  54.163  1.00  0.00     0.014 A 
HETATM   11  C18 UNL     1      20.833  -1.506  54.100  1.00  0.00     0.001 A 
HETATM   12  C19 UNL     1      20.216  -0.391  53.614  1.00  0.00     0.003 A 
HETATM   13  C20 UNL     1      20.831   0.767  53.237  1.00  0.00     0.037 A 
HETATM   14  C21 UNL     1      22.160   0.935  53.308  1.00  0.00     0.079 A 
HETATM   15  O3  UNL     1      23.075   1.780  53.077  1.00  0.00    -0.346 OA
HETATM   16  C22 UNL     1      24.087   2.521  52.775  1.00  0.00     0.210 C 
ENDROOT
BRANCH   1  17
HETATM   17  C8  UNL     1      23.580   3.624  50.670  1.00  0.00     0.139 C 
BRANCH  17  18
HETATM   18  C7  UNL     1      24.284   4.710  49.953  1.00  0.00     0.221 C 
HETATM   19  N1  UNL     1      24.630   5.787  50.861  1.00  0.00    -0.361 N 
HETATM   20  H14 UNL     1      24.377   5.707  51.895  1.00  0.00     0.162 HD
HETATM   21  O1  UNL     1      24.713   5.078  48.835  1.00  0.00    -0.273 OA
BRANCH  19  22
HETATM   22  C6  UNL     1      25.329   7.070  50.528  1.00  0.00     0.122 C 
BRANCH  22  23
HETATM   23  C5  UNL     1      24.368   8.157  50.247  1.00  0.00     0.020 C 
BRANCH  23  24
HETATM   24  C4  UNL     1      22.954   7.933  50.476  1.00  0.00     0.002 C 
HETATM   25  C3  UNL     1      21.853   7.856  49.553  1.00  0.00    -0.000 C 
BRANCH  25  26
HETATM   26  C2  UNL     1      21.656   6.924  48.452  1.00  0.00    -0.005 C 
HETATM   27  C1  UNL     1      20.781   5.731  48.642  1.00  0.00     0.005 C 
ENDBRANCH  25  26
ENDBRANCH  23  24
ENDBRANCH  22  23
ENDBRANCH  19  22
ENDBRANCH  17  18
ENDBRANCH   1  17
TORSDOF 6
ENDMDL
MODEL 9
REMARK VINA RESULT:      -7.5      2.612      4.717
REMARK  6 active torsions:
REMARK  status: ('A' for Active; 'I' for Inactive)
REMARK    1  A    between atoms: C2_2  and  C3_3 
REMARK    2  A    between atoms: C4_4  and  C5_5 
REMARK    3  A    between atoms: C5_5  and  C6_6 
REMARK    4  A    between atoms: C6_6  and  N1_7 
REMARK       I    between atoms: N1_7  and  C7_8 
REMARK    5  A    between atoms: C7_8  and  C8_10 
REMARK    6  A    between atoms: C8_10  and  C9_11 
ROOT
HETATM    1  C9  UNL     1      22.041   2.759  51.851  1.00  0.00    -0.047 C 
HETATM    2  C10 UNL     1      23.109   2.051  52.264  1.00  0.00     0.006 C 
HETATM    3  C11 UNL     1      23.277   0.841  53.100  1.00  0.00     0.004 C 
HETATM    4  C12 UNL     1      22.375   0.036  53.614  1.00  0.00     0.055 C 
HETATM    5  C13 UNL     1      21.447  -0.874  54.201  1.00  0.00     0.172 C 
HETATM    6  O2  UNL     1      21.509  -1.771  55.018  1.00  0.00    -0.289 OA
HETATM    7  C14 UNL     1      20.016  -0.968  53.878  1.00  0.00     0.055 C 
HETATM    8  C15 UNL     1      19.473  -0.310  52.915  1.00  0.00     0.018 C 
HETATM    9  C16 UNL     1      18.728   0.392  51.838  1.00  0.00    -0.003 A 
HETATM   10  C17 UNL     1      17.796  -0.541  51.373  1.00  0.00     0.014 A 
HETATM   11  C18 UNL     1      16.865  -0.331  50.360  1.00  0.00     0.001 A 
HETATM   12  C19 UNL     1      16.982   0.934  49.863  1.00  0.00     0.003 A 
HETATM   13  C20 UNL     1      17.872   1.880  50.280  1.00  0.00     0.037 A 
HETATM   14  C21 UNL     1      18.761   1.656  51.260  1.00  0.00     0.079 A 
HETATM   15  O3  UNL     1      19.697   2.210  51.907  1.00  0.00    -0.346 OA
HETATM   16  C22 UNL     1      20.733   2.640  52.544  1.00  0.00     0.210 C 
ENDROOT
BRANCH   1  17
HETATM   17  C8  UNL     1      22.070   3.930  50.978  1.00  0.00     0.139 C 
BRANCH  17  18
HETATM   18  C7  UNL     1      23.346   4.676  51.041  1.00  0.00     0.221 C 
HETATM   19  N1  UNL     1      24.183   4.362  49.899  1.00  0.00    -0.361 N 
HETATM   20  H14 UNL     1      23.830   3.679  49.158  1.00  0.00     0.162 HD
HETATM   21  O1  UNL     1      24.010   5.499  51.713  1.00  0.00    -0.273 OA
BRANCH  19  22
HETATM   22  C6  UNL     1      25.554   4.890  49.601  1.00  0.00     0.122 C 
BRANCH  22  23
HETATM   23  C5  UNL     1      26.601   3.895  49.908  1.00  0.00     0.020 C 
BRANCH  23  24
HETATM   24  C4  UNL     1      26.216   2.592  50.414  1.00  0.00     0.002 C 
HETATM   25  C3  UNL     1      26.781   1.788  51.466  1.00  0.00    -0.000 C 
BRANCH  25  26
HETATM   26  C2  UNL     1      26.928   2.113  52.878  1.00  0.00    -0.005 C 
HETATM   27  C1  UNL     1      28.288   2.334  53.446  1.00  0.00     0.005 C 
ENDBRANCH  25  26
ENDBRANCH  23  24
ENDBRANCH  22  23
ENDBRANCH  19  22
ENDBRANCH  17  18
ENDBRANCH   1  17
TORSDOF 6
ENDMDL
