MODEL 1
REMARK VINA RESULT:      -6.3      0.000      0.000
REMARK  7 active torsions:
REMARK  status: ('A' for Active; 'I' for Inactive)
REMARK    1  A    between atoms: C2_2  and  O1_3 
REMARK    2  A    between atoms: O1_3  and  C3_4 
REMARK    3  A    between atoms: C4_5  and  C5_6 
REMARK    4  A    between atoms: C5_6  and  C7_9 
REMARK    5  A    between atoms: C7_9  and  O3_11 
REMARK    6  A    between atoms: S1_15  and  C11_16 
REMARK    7  A    between atoms: C16_21  and  O4_22 
ROOT
HETATM    1  C5  UNL     1      25.844   1.513  52.849  1.00  0.00     0.222 C 
HETATM    2  C6  UNL     1      27.035   2.106  53.508  1.00  0.00     0.079 C 
HETATM    3  N1  UNL     1      27.971   2.583  54.027  1.00  0.00    -0.196 NA
ENDROOT
BRANCH   1   4
HETATM    4  C4  UNL     1      25.630   2.200  51.562  1.00  0.00    -0.021 C 
HETATM    5  C3  UNL     1      24.169   2.369  51.317  1.00  0.00     0.214 C 
HETATM    6  C16 UNL     1      23.724   3.771  51.566  1.00  0.00     0.107 C 
HETATM    7  S1  UNL     1      24.600   4.940  50.829  1.00  0.00    -0.152 SA
HETATM    8  C10 UNL     1      26.053   4.796  49.737  1.00  0.00     0.075 C 
HETATM    9  C9  UNL     1      26.196   3.332  49.409  1.00  0.00     0.037 C 
HETATM   10  C8  UNL     1      26.506   2.642  50.688  1.00  0.00    -0.018 C 
BRANCH   5  11
HETATM   11  O1  UNL     1      23.383   1.543  52.113  1.00  0.00    -0.375 OA
BRANCH  11  12
HETATM   12  C2  UNL     1      22.381   0.900  51.429  1.00  0.00     0.164 C 
HETATM   13  C1  UNL     1      21.563  -0.059  52.242  1.00  0.00     0.033 C 
ENDBRANCH  11  12
ENDBRANCH   5  11
BRANCH   6  14
HETATM   14  O4  UNL     1      22.704   4.338  52.303  1.00  0.00    -0.351 OA
HETATM   15  C17 UNL     1      21.347   4.333  51.996  1.00  0.00     0.210 C 
ENDBRANCH   6  14
BRANCH   7  16
HETATM   16  C11 UNL     1      24.172   6.708  51.171  1.00  0.00     0.089 A 
HETATM   17  C12 UNL     1      25.283   7.586  50.666  1.00  0.00    -0.008 A 
HETATM   18  C13 UNL     1      24.800   8.431  49.746  1.00  0.00    -0.003 A 
HETATM   19  C14 UNL     1      23.371   8.181  49.580  1.00  0.00    -0.003 A 
HETATM   20  C15 UNL     1      23.012   7.193  50.395  1.00  0.00    -0.008 A 
ENDBRANCH   7  16
ENDBRANCH   1   4
BRANCH   1  21
HETATM   21  C7  UNL     1      26.127   0.061  52.756  1.00  0.00     0.162 C 
HETATM   22  O2  UNL     1      26.979  -0.802  52.346  1.00  0.00    -0.649 OA
BRANCH  21  23
HETATM   23  O3  UNL     1      25.040  -0.613  53.347  1.00  0.00    -0.775 OA
HETATM   24  H8  UNL     1      24.777  -1.550  53.082  1.00  0.00     0.167 HD
ENDBRANCH  21  23
ENDBRANCH   1  21
TORSDOF 7
ENDMDL
MODEL 2
REMARK VINA RESULT:      -6.1      2.967      6.661
REMARK  7 active torsions:
REMARK  status: ('A' for Active; 'I' for Inactive)
REMARK    1  A    between atoms: C2_2  and  O1_3 
REMARK    2  A    between atoms: O1_3  and  C3_4 
REMARK    3  A    between atoms: C4_5  and  C5_6 
REMARK    4  A    between atoms: C5_6  and  C7_9 
REMARK    5  A    between atoms: C7_9  and  O3_11 
REMARK    6  A    between atoms: S1_15  and  C11_16 
REMARK    7  A    between atoms: C16_21  and  O4_22 
ROOT
HETATM    1  C5  UNL     1      23.691   5.618  49.745  1.00  0.00     0.222 C 
HETATM    2  C6  UNL     1      22.537   6.112  50.537  1.00  0.00     0.079 C 
HETATM    3  N1  UNL     1      21.628   6.496  51.169  1.00  0.00    -0.196 NA
ENDROOT
BRANCH   1   4
HETATM    4  C4  UNL     1      23.528   4.167  49.536  1.00  0.00    -0.021 C 
HETATM    5  C3  UNL     1      24.758   3.452  49.981  1.00  0.00     0.214 C 
HETATM    6  C16 UNL     1      24.560   2.775  51.296  1.00  0.00     0.107 C 
HETATM    7  S1  UNL     1      23.232   1.828  51.419  1.00  0.00    -0.152 SA
HETATM    8  C10 UNL     1      21.938   1.465  50.185  1.00  0.00     0.075 C 
HETATM    9  C9  UNL     1      22.432   2.023  48.875  1.00  0.00     0.037 C 
HETATM   10  C8  UNL     1      22.510   3.497  49.047  1.00  0.00    -0.018 C 
BRANCH   5  11
HETATM   11  O1  UNL     1      25.859   4.290  50.114  1.00  0.00    -0.375 OA
BRANCH  11  12
HETATM   12  C2  UNL     1      26.912   3.962  49.296  1.00  0.00     0.164 C 
HETATM   13  C1  UNL     1      27.572   5.118  48.606  1.00  0.00     0.033 C 
ENDBRANCH  11  12
ENDBRANCH   5  11
BRANCH   6  14
HETATM   14  O4  UNL     1      25.263   2.759  52.483  1.00  0.00    -0.351 OA
HETATM   15  C17 UNL     1      26.418   2.035  52.762  1.00  0.00     0.210 C 
ENDBRANCH   6  14
BRANCH   7  16
HETATM   16  C11 UNL     1      22.862   1.037  53.051  1.00  0.00     0.089 A 
HETATM   17  C12 UNL     1      21.374   0.874  53.190  1.00  0.00    -0.008 A 
HETATM   18  C13 UNL     1      21.082  -0.424  53.343  1.00  0.00    -0.003 A 
HETATM   19  C14 UNL     1      22.321  -1.194  53.319  1.00  0.00    -0.003 A 
HETATM   20  C15 UNL     1      23.341  -0.358  53.150  1.00  0.00    -0.008 A 
ENDBRANCH   7  16
ENDBRANCH   1   4
BRANCH   1  21
HETATM   21  C7  UNL     1      23.707   6.441  48.513  1.00  0.00     0.162 C 
HETATM   22  O2  UNL     1      24.459   6.889  47.579  1.00  0.00    -0.649 OA
BRANCH  21  23
HETATM   23  O3  UNL     1      22.390   6.895  48.300  1.00  0.00    -0.775 OA
HETATM   24  H8  UNL     1      21.659   6.289  47.959  1.00  0.00     0.167 HD
ENDBRANCH  21  23
ENDBRANCH   1  21
TORSDOF 7
ENDMDL
MODEL 3
REMARK VINA RESULT:      -6.1      3.852      6.485
REMARK  7 active torsions:
REMARK  status: ('A' for Active; 'I' for Inactive)
REMARK    1  A    between atoms: C2_2  and  O1_3 
REMARK    2  A    between atoms: O1_3  and  C3_4 
REMARK    3  A    between atoms: C4_5  and  C5_6 
REMARK    4  A    between atoms: C5_6  and  C7_9 
REMARK    5  A    between atoms: C7_9  and  O3_11 
REMARK    6  A    between atoms: S1_15  and  C11_16 
REMARK    7  A    between atoms: C16_21  and  O4_22 
ROOT
HETATM    1  C5  UNL     1      21.012   1.242  49.794  1.00  0.00     0.222 C 
HETATM    2  C6  UNL     1      21.869   1.539  48.619  1.00  0.00     0.079 C 
HETATM    3  N1  UNL     1      22.552   1.770  47.695  1.00  0.00    -0.196 NA
ENDROOT
BRANCH   1   4
HETATM    4  C4  UNL     1      21.670   1.779  51.000  1.00  0.00    -0.021 C 
HETATM    5  C3  UNL     1      21.280   0.971  52.190  1.00  0.00     0.214 C 
HETATM    6  C16 UNL     1      22.373   0.050  52.617  1.00  0.00     0.107 C 
HETATM    7  S1  UNL     1      23.848   0.731  52.807  1.00  0.00    -0.152 SA
HETATM    8  C10 UNL     1      24.372   2.462  52.575  1.00  0.00     0.075 C 
HETATM    9  C9  UNL     1      23.111   3.269  52.394  1.00  0.00     0.037 C 
HETATM   10  C8  UNL     1      22.489   2.798  51.129  1.00  0.00    -0.018 C 
BRANCH   5  11
HETATM   11  O1  UNL     1      20.149   0.191  51.973  1.00  0.00    -0.375 OA
BRANCH  11  12
HETATM   12  C2  UNL     1      19.284   0.155  53.039  1.00  0.00     0.164 C 
HETATM   13  C1  UNL     1      18.319  -0.992  53.043  1.00  0.00     0.033 C 
ENDBRANCH  11  12
ENDBRANCH   5  11
BRANCH   6  14
HETATM   14  O4  UNL     1      22.436  -1.299  52.902  1.00  0.00    -0.351 OA
HETATM   15  C17 UNL     1      22.010  -1.930  54.067  1.00  0.00     0.210 C 
ENDBRANCH   6  14
BRANCH   7  16
HETATM   16  C11 UNL     1      25.276  -0.366  53.235  1.00  0.00     0.089 A 
HETATM   17  C12 UNL     1      26.403  -0.097  52.277  1.00  0.00    -0.008 A 
HETATM   18  C13 UNL     1      27.481   0.310  52.961  1.00  0.00    -0.003 A 
HETATM   19  C14 UNL     1      27.154   0.339  54.383  1.00  0.00    -0.003 A 
HETATM   20  C15 UNL     1      25.892  -0.047  54.540  1.00  0.00    -0.008 A 
ENDBRANCH   7  16
ENDBRANCH   1   4
BRANCH   1  21
HETATM   21  C7  UNL     1      19.689   1.828  49.477  1.00  0.00     0.162 C 
HETATM   22  O2  UNL     1      18.576   2.204  49.987  1.00  0.00    -0.649 OA
BRANCH  21  23
HETATM   23  O3  UNL     1      19.656   2.051  48.087  1.00  0.00    -0.775 OA
HETATM   24  H8  UNL     1      20.128   2.831  47.654  1.00  0.00     0.167 HD
ENDBRANCH  21  23
ENDBRANCH   1  21
TORSDOF 7
ENDMDL
MODEL 4
REMARK VINA RESULT:      -6.1      3.033      6.193
REMARK  7 active torsions:
REMARK  status: ('A' for Active; 'I' for Inactive)
REMARK    1  A    between atoms: C2_2  and  O1_3 
REMARK    2  A    between atoms: O1_3  and  C3_4 
REMARK    3  A    between atoms: C4_5  and  C5_6 
REMARK    4  A    between atoms: C5_6  and  C7_9 
REMARK    5  A    between atoms: C7_9  and  O3_11 
REMARK    6  A    between atoms: S1_15  and  C11_16 
REMARK    7  A    between atoms: C16_21  and  O4_22 
ROOT
HETATM    1  C5  UNL     1      24.008   3.302  51.556  1.00  0.00     0.222 C 
HETATM    2  C6  UNL     1      23.137   4.501  51.642  1.00  0.00     0.079 C 
HETATM    3  N1  UNL     1      22.443   5.443  51.714  1.00  0.00    -0.196 NA
ENDROOT
BRANCH   1   4
HETATM    4  C4  UNL     1      23.241   2.211  50.927  1.00  0.00    -0.021 C 
HETATM    5  C3  UNL     1      23.272   1.004  51.802  1.00  0.00     0.214 C 
HETATM    6  C16 UNL     1      21.983   0.813  52.529  1.00  0.00     0.107 C 
HETATM    7  S1  UNL     1      20.630   0.860  51.610  1.00  0.00    -0.152 SA
HETATM    8  C10 UNL     1      20.449   1.111  49.812  1.00  0.00     0.075 C 
HETATM    9  C9  UNL     1      21.837   1.035  49.229  1.00  0.00     0.037 C 
HETATM   10  C8  UNL     1      22.591   2.188  49.786  1.00  0.00    -0.018 C 
BRANCH   5  11
HETATM   11  O1  UNL     1      24.279   1.049  52.759  1.00  0.00    -0.375 OA
BRANCH  11  12
HETATM   12  C2  UNL     1      25.115  -0.040  52.739  1.00  0.00     0.164 C 
HETATM   13  C1  UNL     1      26.453   0.191  52.102  1.00  0.00     0.033 C 
ENDBRANCH  11  12
ENDBRANCH   5  11
BRANCH   6  14
HETATM   14  O4  UNL     1      21.649   0.598  53.850  1.00  0.00    -0.351 OA
HETATM   15  C17 UNL     1      21.810  -0.580  54.574  1.00  0.00     0.210 C 
ENDBRANCH   6  14
BRANCH   7  16
HETATM   16  C11 UNL     1      18.988   0.734  52.453  1.00  0.00     0.089 A 
HETATM   17  C12 UNL     1      17.918   1.220  51.515  1.00  0.00    -0.008 A 
HETATM   18  C13 UNL     1      17.038   0.235  51.296  1.00  0.00    -0.003 A 
HETATM   19  C14 UNL     1      17.449  -0.943  52.053  1.00  0.00    -0.003 A 
HETATM   20  C15 UNL     1      18.566  -0.658  52.715  1.00  0.00    -0.008 A 
ENDBRANCH   7  16
ENDBRANCH   1   4
BRANCH   1  21
HETATM   21  C7  UNL     1      25.214   3.742  50.815  1.00  0.00     0.162 C 
HETATM   22  O2  UNL     1      26.269   3.329  50.220  1.00  0.00    -0.649 OA
BRANCH  21  23
HETATM   23  O3  UNL     1      25.169   5.148  50.746  1.00  0.00    -0.775 OA
HETATM   24  H8  UNL     1      25.626   5.737  51.427  1.00  0.00     0.167 HD
ENDBRANCH  21  23
ENDBRANCH   1  21
TORSDOF 7
ENDMDL
MODEL 5
REMARK VINA RESULT:      -6.0      2.897      6.083
REMARK  7 active torsions:
REMARK  status: ('A' for Active; 'I' for Inactive)
REMARK    1  A    between atoms: C2_2  and  O1_3 
REMARK    2  A    between atoms: O1_3  and  C3_4 
REMARK    3  A    between atoms: C4_5  and  C5_6 
REMARK    4  A    between atoms: C5_6  and  C7_9 
REMARK    5  A    between atoms: C7_9  and  O3_11 
REMARK    6  A    between atoms: S1_15  and  C11_16 
REMARK    7  A    between atoms: C16_21  and  O4_22 
ROOT
HETATM    1  C5  UNL     1      22.404   3.429  49.085  1.00  0.00     0.222 C 
HETATM    2  C6  UNL     1      22.052   1.987  49.046  1.00  0.00     0.079 C 
HETATM    3  N1  UNL     1      21.774   0.849  49.024  1.00  0.00    -0.196 NA
ENDROOT
BRANCH   1   4
HETATM    4  C4  UNL     1      23.696   3.575  49.780  1.00  0.00    -0.021 C 
HETATM    5  C3  UNL     1      23.462   3.853  51.226  1.00  0.00     0.214 C 
HETATM    6  C16 UNL     1      23.717   2.649  52.070  1.00  0.00     0.107 C 
HETATM    7  S1  UNL     1      25.146   1.893  51.823  1.00  0.00    -0.152 SA
HETATM    8  C10 UNL     1      26.495   2.298  50.664  1.00  0.00     0.075 C 
HETATM    9  C9  UNL     1      26.173   3.655  50.092  1.00  0.00     0.037 C 
HETATM   10  C8  UNL     1      24.920   3.494  49.309  1.00  0.00    -0.018 C 
BRANCH   5  11
HETATM   11  O1  UNL     1      22.165   4.276  51.498  1.00  0.00    -0.375 OA
BRANCH  11  12
HETATM   12  C2  UNL     1      22.085   5.569  51.952  1.00  0.00     0.164 C 
HETATM   13  C1  UNL     1      21.772   6.597  50.906  1.00  0.00     0.033 C 
ENDBRANCH  11  12
ENDBRANCH   5  11
BRANCH   6  14
HETATM   14  O4  UNL     1      23.000   1.994  53.050  1.00  0.00    -0.351 OA
HETATM   15  C17 UNL     1      21.926   1.128  52.865  1.00  0.00     0.210 C 
ENDBRANCH   6  14
BRANCH   7  16
HETATM   16  C11 UNL     1      25.491   0.334  52.758  1.00  0.00     0.089 A 
HETATM   17  C12 UNL     1      26.629  -0.392  52.096  1.00  0.00    -0.008 A 
HETATM   18  C13 UNL     1      27.634  -0.534  52.970  1.00  0.00    -0.003 A 
HETATM   19  C14 UNL     1      27.245   0.070  54.241  1.00  0.00    -0.003 A 
HETATM   20  C15 UNL     1      26.018   0.568  54.119  1.00  0.00    -0.008 A 
ENDBRANCH   7  16
ENDBRANCH   1   4
BRANCH   1  21
HETATM   21  C7  UNL     1      22.387   3.878  47.673  1.00  0.00     0.162 C 
HETATM   22  O2  UNL     1      22.429   4.910  46.916  1.00  0.00    -0.649 OA
BRANCH  21  23
HETATM   23  O3  UNL     1      22.287   2.724  46.871  1.00  0.00    -0.775 OA
HETATM   24  H8  UNL     1      22.955   1.970  46.926  1.00  0.00     0.167 HD
ENDBRANCH  21  23
ENDBRANCH   1  21
TORSDOF 7
ENDMDL
MODEL 6
REMARK VINA RESULT:      -5.9      3.182      6.187
REMARK  7 active torsions:
REMARK  status: ('A' for Active; 'I' for Inactive)
REMARK    1  A    between atoms: C2_2  and  O1_3 
REMARK    2  A    between atoms: O1_3  and  C3_4 
REMARK    3  A    between atoms: C4_5  and  C5_6 
REMARK    4  A    between atoms: C5_6  and  C7_9 
REMARK    5  A    between atoms: C7_9  and  O3_11 
REMARK    6  A    between atoms: S1_15  and  C11_16 
REMARK    7  A    between atoms: C16_21  and  O4_22 
ROOT
HETATM    1  C5  UNL     1      25.429   6.008  49.013  1.00  0.00     0.222 C 
HETATM    2  C6  UNL     1      26.432   4.918  49.110  1.00  0.00     0.079 C 
HETATM    3  N1  UNL     1      27.217   4.051  49.184  1.00  0.00    -0.196 NA
ENDROOT
BRANCH   1   4
HETATM    4  C4  UNL     1      24.298   5.684  49.902  1.00  0.00    -0.021 C 
HETATM    5  C3  UNL     1      23.203   5.050  49.113  1.00  0.00     0.214 C 
HETATM    6  C16 UNL     1      23.144   3.576  49.331  1.00  0.00     0.107 C 
HETATM    7  S1  UNL     1      23.127   3.084  50.891  1.00  0.00    -0.152 SA
HETATM    8  C10 UNL     1      23.169   4.069  52.426  1.00  0.00     0.075 C 
HETATM    9  C9  UNL     1      22.977   5.507  52.014  1.00  0.00     0.037 C 
HETATM   10  C8  UNL     1      24.162   5.872  51.195  1.00  0.00    -0.018 C 
BRANCH   5  11
HETATM   11  O1  UNL     1      23.326   5.257  47.743  1.00  0.00    -0.375 OA
BRANCH  11  12
HETATM   12  C2  UNL     1      22.155   5.622  47.127  1.00  0.00     0.164 C 
HETATM   13  C1  UNL     1      21.936   5.030  45.766  1.00  0.00     0.033 C 
ENDBRANCH  11  12
ENDBRANCH   5  11
BRANCH   6  14
HETATM   14  O4  UNL     1      23.099   2.482  48.491  1.00  0.00    -0.351 OA
HETATM   15  C17 UNL     1      21.967   1.921  47.907  1.00  0.00     0.210 C 
ENDBRANCH   6  14
BRANCH   7  16
HETATM   16  C11 UNL     1      23.159   1.268  51.242  1.00  0.00     0.089 A 
HETATM   17  C12 UNL     1      24.271   0.976  52.211  1.00  0.00    -0.008 A 
HETATM   18  C13 UNL     1      23.762   0.419  53.318  1.00  0.00    -0.003 A 
HETATM   19  C14 UNL     1      22.315   0.303  53.166  1.00  0.00    -0.003 A 
HETATM   20  C15 UNL     1      21.969   0.790  51.978  1.00  0.00    -0.008 A 
ENDBRANCH   7  16
ENDBRANCH   1   4
BRANCH   1  21
HETATM   21  C7  UNL     1      26.164   7.251  49.346  1.00  0.00     0.162 C 
HETATM   22  O2  UNL     1      26.021   8.482  49.669  1.00  0.00    -0.649 OA
BRANCH  21  23
HETATM   23  O3  UNL     1      27.539   6.952  49.281  1.00  0.00    -0.775 OA
HETATM   24  H8  UNL     1      27.880   6.011  49.148  1.00  0.00     0.167 HD
ENDBRANCH  21  23
ENDBRANCH   1  21
TORSDOF 7
ENDMDL
MODEL 7
REMARK VINA RESULT:      -5.7      3.125      5.952
REMARK  7 active torsions:
REMARK  status: ('A' for Active; 'I' for Inactive)
REMARK    1  A    between atoms: C2_2  and  O1_3 
REMARK    2  A    between atoms: O1_3  and  C3_4 
REMARK    3  A    between atoms: C4_5  and  C5_6 
REMARK    4  A    between atoms: C5_6  and  C7_9 
REMARK    5  A    between atoms: C7_9  and  O3_11 
REMARK    6  A    between atoms: S1_15  and  C11_16 
REMARK    7  A    between atoms: C16_21  and  O4_22 
ROOT
HETATM    1  C5  UNL     1      24.614   5.351  50.175  1.00  0.00     0.222 C 
HETATM    2  C6  UNL     1      23.526   6.323  50.446  1.00  0.00     0.079 C 
HETATM    3  N1  UNL     1      22.662   7.084  50.665  1.00  0.00    -0.196 NA
ENDROOT
BRANCH   1   4
HETATM    4  C4  UNL     1      24.015   4.114  49.641  1.00  0.00    -0.021 C 
HETATM    5  C3  UNL     1      24.513   2.938  50.411  1.00  0.00     0.214 C 
HETATM    6  C16 UNL     1      23.488   2.426  51.365  1.00  0.00     0.107 C 
HETATM    7  S1  UNL     1      22.002   2.152  50.738  1.00  0.00    -0.152 SA
HETATM    8  C10 UNL     1      21.395   2.377  49.033  1.00  0.00     0.075 C 
HETATM    9  C9  UNL     1      22.608   2.654  48.182  1.00  0.00     0.037 C 
HETATM   10  C8  UNL     1      23.166   3.949  48.652  1.00  0.00    -0.018 C 
BRANCH   5  11
HETATM   11  O1  UNL     1      25.658   3.216  51.150  1.00  0.00    -0.375 OA
BRANCH  11  12
HETATM   12  C2  UNL     1      26.611   2.229  51.093  1.00  0.00     0.164 C 
HETATM   13  C1  UNL     1      27.321   1.948  52.383  1.00  0.00     0.033 C 
ENDBRANCH  11  12
ENDBRANCH   5  11
BRANCH   6  14
HETATM   14  O4  UNL     1      23.498   2.116  52.710  1.00  0.00    -0.351 OA
HETATM   15  C17 UNL     1      23.876   0.907  53.287  1.00  0.00     0.210 C 
ENDBRANCH   6  14
BRANCH   7  16
HETATM   16  C11 UNL     1      20.650   1.613  51.881  1.00  0.00     0.089 A 
HETATM   17  C12 UNL     1      19.445   2.484  51.657  1.00  0.00    -0.008 A 
HETATM   18  C13 UNL     1      18.408   1.722  51.283  1.00  0.00    -0.003 A 
HETATM   19  C14 UNL     1      18.840   0.328  51.235  1.00  0.00    -0.003 A 
HETATM   20  C15 UNL     1      20.123   0.266  51.576  1.00  0.00    -0.008 A 
ENDBRANCH   7  16
ENDBRANCH   1   4
BRANCH   1  21
HETATM   21  C7  UNL     1      25.550   6.050  49.263  1.00  0.00     0.162 C 
HETATM   22  O2  UNL     1      25.617   6.823  48.245  1.00  0.00    -0.649 OA
BRANCH  21  23
HETATM   23  O3  UNL     1      26.856   5.739  49.690  1.00  0.00    -0.775 OA
HETATM   24  H8  UNL     1      27.675   6.128  49.247  1.00  0.00     0.167 HD
ENDBRANCH  21  23
ENDBRANCH   1  21
TORSDOF 7
ENDMDL
MODEL 8
REMARK VINA RESULT:      -5.5      3.010      6.250
REMARK  7 active torsions:
REMARK  status: ('A' for Active; 'I' for Inactive)
REMARK    1  A    between atoms: C2_2  and  O1_3 
REMARK    2  A    between atoms: O1_3  and  C3_4 
REMARK    3  A    between atoms: C4_5  and  C5_6 
REMARK    4  A    between atoms: C5_6  and  C7_9 
REMARK    5  A    between atoms: C7_9  and  O3_11 
REMARK    6  A    between atoms: S1_15  and  C11_16 
REMARK    7  A    between atoms: C16_21  and  O4_22 
ROOT
HETATM    1  C5  UNL     1      21.246   3.466  51.065  1.00  0.00     0.222 C 
HETATM    2  C6  UNL     1      21.875   4.453  51.978  1.00  0.00     0.079 C 
HETATM    3  N1  UNL     1      22.380   5.231  52.695  1.00  0.00    -0.196 NA
ENDROOT
BRANCH   1   4
HETATM    4  C4  UNL     1      21.846   2.143  51.323  1.00  0.00    -0.021 C 
HETATM    5  C3  UNL     1      22.879   1.848  50.289  1.00  0.00     0.214 C 
HETATM    6  C16 UNL     1      24.262   2.020  50.822  1.00  0.00     0.107 C 
HETATM    7  S1  UNL     1      24.584   1.258  52.233  1.00  0.00    -0.152 SA
HETATM    8  C10 UNL     1      23.503   0.216  53.269  1.00  0.00     0.075 C 
HETATM    9  C9  UNL     1      22.257  -0.042  52.461  1.00  0.00     0.037 C 
HETATM   10  C8  UNL     1      21.595   1.276  52.277  1.00  0.00    -0.018 C 
BRANCH   5  11
HETATM   11  O1  UNL     1      22.771   2.657  49.163  1.00  0.00    -0.375 OA
BRANCH  11  12
HETATM   12  C2  UNL     1      22.185   2.038  48.087  1.00  0.00     0.164 C 
HETATM   13  C1  UNL     1      21.309   2.915  47.242  1.00  0.00     0.033 C 
ENDBRANCH  11  12
ENDBRANCH   5  11
BRANCH   6  14
HETATM   14  O4  UNL     1      25.381   2.701  50.387  1.00  0.00    -0.351 OA
HETATM   15  C17 UNL     1      25.553   4.081  50.332  1.00  0.00     0.210 C 
ENDBRANCH   6  14
BRANCH   7  16
HETATM   16  C11 UNL     1      26.244   1.507  53.010  1.00  0.00     0.089 A 
HETATM   17  C12 UNL     1      26.179   1.081  54.450  1.00  0.00    -0.008 A 
HETATM   18  C13 UNL     1      27.062   0.096  54.663  1.00  0.00    -0.003 A 
HETATM   19  C14 UNL     1      27.757  -0.194  53.413  1.00  0.00    -0.003 A 
HETATM   20  C15 UNL     1      27.289   0.614  52.466  1.00  0.00    -0.008 A 
ENDBRANCH   7  16
ENDBRANCH   1   4
BRANCH   1  21
HETATM   21  C7  UNL     1      19.790   3.564  51.320  1.00  0.00     0.162 C 
HETATM   22  O2  UNL     1      18.901   3.595  52.241  1.00  0.00    -0.649 OA
BRANCH  21  23
HETATM   23  O3  UNL     1      19.155   3.662  50.066  1.00  0.00    -0.775 OA
HETATM   24  H8  UNL     1      19.672   3.681  49.200  1.00  0.00     0.167 HD
ENDBRANCH  21  23
ENDBRANCH   1  21
TORSDOF 7
ENDMDL
MODEL 9
REMARK VINA RESULT:      -5.5      2.304      2.804
REMARK  7 active torsions:
REMARK  status: ('A' for Active; 'I' for Inactive)
REMARK    1  A    between atoms: C2_2  and  O1_3 
REMARK    2  A    between atoms: O1_3  and  C3_4 
REMARK    3  A    between atoms: C4_5  and  C5_6 
REMARK    4  A    between atoms: C5_6  and  C7_9 
REMARK    5  A    between atoms: C7_9  and  O3_11 
REMARK    6  A    between atoms: S1_15  and  C11_16 
REMARK    7  A    between atoms: C16_21  and  O4_22 
ROOT
HETATM    1  C5  UNL     1      24.328   2.710  51.676  1.00  0.00     0.222 C 
HETATM    2  C6  UNL     1      23.849   3.883  52.449  1.00  0.00     0.079 C 
HETATM    3  N1  UNL     1      23.466   4.812  53.052  1.00  0.00    -0.196 NA
ENDROOT
BRANCH   1   4
HETATM    4  C4  UNL     1      25.032   3.197  50.475  1.00  0.00    -0.021 C 
HETATM    5  C3  UNL     1      24.082   3.272  49.329  1.00  0.00     0.214 C 
HETATM    6  C16 UNL     1      23.669   4.677  49.042  1.00  0.00     0.107 C 
HETATM    7  S1  UNL     1      24.885   5.761  48.891  1.00  0.00    -0.152 SA
HETATM    8  C10 UNL     1      26.688   5.519  49.021  1.00  0.00     0.075 C 
HETATM    9  C9  UNL     1      26.916   4.029  49.062  1.00  0.00     0.037 C 
HETATM   10  C8  UNL     1      26.289   3.543  50.319  1.00  0.00    -0.018 C 
BRANCH   5  11
HETATM   11  O1  UNL     1      22.918   2.538  49.535  1.00  0.00    -0.375 OA
BRANCH  11  12
HETATM   12  C2  UNL     1      22.392   1.995  48.389  1.00  0.00     0.164 C 
HETATM   13  C1  UNL     1      20.895   2.015  48.300  1.00  0.00     0.033 C 
ENDBRANCH  11  12
ENDBRANCH   5  11
BRANCH   6  14
HETATM   14  O4  UNL     1      22.453   5.303  48.866  1.00  0.00    -0.351 OA
HETATM   15  C17 UNL     1      21.534   5.641  49.855  1.00  0.00     0.210 C 
ENDBRANCH   6  14
BRANCH   7  16
HETATM   16  C11 UNL     1      24.449   7.542  48.637  1.00  0.00     0.089 A 
HETATM   17  C12 UNL     1      24.796   8.312  49.881  1.00  0.00    -0.008 A 
HETATM   18  C13 UNL     1      25.688   9.265  49.580  1.00  0.00    -0.003 A 
HETATM   19  C14 UNL     1      25.988   9.197  48.153  1.00  0.00    -0.003 A 
HETATM   20  C15 UNL     1      25.280   8.210  47.613  1.00  0.00    -0.008 A 
ENDBRANCH   7  16
ENDBRANCH   1   4
BRANCH   1  21
HETATM   21  C7  UNL     1      25.153   1.923  52.623  1.00  0.00     0.162 C 
HETATM   22  O2  UNL     1      25.645   0.762  52.847  1.00  0.00    -0.649 OA
BRANCH  21  23
HETATM   23  O3  UNL     1      25.535   2.792  53.663  1.00  0.00    -0.775 OA
HETATM   24  H8  UNL     1      26.502   2.961  53.898  1.00  0.00     0.167 HD
ENDBRANCH  21  23
ENDBRANCH   1  21
TORSDOF 7
ENDMDL
