MODEL 1
REMARK VINA RESULT:      -7.9      0.000      0.000
REMARK  4 active torsions:
REMARK  status: ('A' for Active; 'I' for Inactive)
REMARK    1  A    between atoms: C4_5  and  P1_6 
REMARK    2  A    between atoms: P1_6  and  N1_7 
REMARK    3  A    between atoms: N1_7  and  C5_8 
REMARK    4  A    between atoms: C7_10  and  N2_11 
ROOT
HETATM    1  C5  UNL     1      25.020   1.144  52.722  1.00  0.00     0.144 A 
HETATM    2  C6  UNL     1      24.174   0.176  53.527  1.00  0.00     0.059 A 
HETATM    3  C7  UNL     1      24.422  -0.639  54.539  1.00  0.00     0.152 A 
HETATM    4  O1  UNL     1      25.751  -0.585  54.933  1.00  0.00    -0.293 OA
HETATM    5  C8  UNL     1      26.704   0.224  54.341  1.00  0.00     0.086 A 
HETATM    6  C9  UNL     1      27.951   0.112  54.896  1.00  0.00     0.038 A 
HETATM    7  C10 UNL     1      28.991   0.865  54.394  1.00  0.00     0.003 A 
HETATM    8  C11 UNL     1      28.745   1.717  53.337  1.00  0.00     0.001 A 
HETATM    9  C12 UNL     1      27.469   1.775  52.834  1.00  0.00     0.012 A 
HETATM   10  C13 UNL     1      26.381   1.060  53.280  1.00  0.00     0.002 A 
ENDROOT
BRANCH   1  11
HETATM   11  N1  UNL     1      24.370   2.420  52.946  1.00  0.00    -0.384 N 
HETATM   12  H4  UNL     1      23.857   2.456  53.834  1.00  0.00     0.159 HD
BRANCH  11  13
HETATM   13  P1  UNL     1      23.587   3.123  51.533  1.00  0.00     0.001 P 
HETATM   14  H3  UNL     1      22.555   4.034  51.996  1.00  0.00     0.085 HD
BRANCH  13  15
HETATM   15  C4  UNL     1      24.852   3.998  50.543  1.00  0.00    -0.014 A 
HETATM   16  C3  UNL     1      25.905   3.313  49.973  1.00  0.00     0.015 A 
HETATM   17  C2  UNL     1      26.890   3.917  49.217  1.00  0.00     0.024 A 
HETATM   18  C1  UNL     1      26.846   5.278  49.002  1.00  0.00     0.034 A 
HETATM   19 CL1  UNL     1      28.030   6.167  48.064  1.00  0.00    -0.084 Cl
HETATM   20  C15 UNL     1      25.806   5.995  49.560  1.00  0.00     0.024 A 
HETATM   21  C14 UNL     1      24.830   5.374  50.313  1.00  0.00     0.015 A 
ENDBRANCH  13  15
ENDBRANCH  11  13
ENDBRANCH   1  11
BRANCH   3  22
HETATM   22  N2  UNL     1      23.462  -1.482  55.163  1.00  0.00    -0.303 N 
HETATM   23 BR1  UNL     1      21.670  -1.355  54.521  1.00  0.00     0.049 Br
HETATM   24  H7  UNL     1      23.654  -2.169  55.948  1.00  0.00     0.176 HD
ENDBRANCH   3  22
TORSDOF 4
ENDMDL
MODEL 2
REMARK VINA RESULT:      -7.7      2.421      4.025
REMARK  4 active torsions:
REMARK  status: ('A' for Active; 'I' for Inactive)
REMARK    1  A    between atoms: C4_5  and  P1_6 
REMARK    2  A    between atoms: P1_6  and  N1_7 
REMARK    3  A    between atoms: N1_7  and  C5_8 
REMARK    4  A    between atoms: C7_10  and  N2_11 
ROOT
HETATM    1  C5  UNL     1      23.110   1.782  52.532  1.00  0.00     0.144 A 
HETATM    2  C6  UNL     1      24.545   1.347  52.755  1.00  0.00     0.059 A 
HETATM    3  C7  UNL     1      25.109   0.286  53.308  1.00  0.00     0.152 A 
HETATM    4  O1  UNL     1      24.166  -0.612  53.785  1.00  0.00    -0.293 OA
HETATM    5  C8  UNL     1      22.798  -0.423  53.693  1.00  0.00     0.086 A 
HETATM    6  C9  UNL     1      22.059  -1.442  54.232  1.00  0.00     0.038 A 
HETATM    7  C10 UNL     1      20.682  -1.372  54.206  1.00  0.00     0.003 A 
HETATM    8  C11 UNL     1      20.082  -0.269  53.634  1.00  0.00     0.001 A 
HETATM    9  C12 UNL     1      20.890   0.711  53.114  1.00  0.00     0.012 A 
HETATM   10  C13 UNL     1      22.266   0.715  53.100  1.00  0.00     0.002 A 
ENDROOT
BRANCH   1  11
HETATM   11  N1  UNL     1      23.017   1.900  51.090  1.00  0.00    -0.384 N 
HETATM   12  H4  UNL     1      23.680   1.291  50.597  1.00  0.00     0.159 HD
BRANCH  11  13
HETATM   13  P1  UNL     1      22.825   3.542  50.482  1.00  0.00     0.001 P 
HETATM   14  H3  UNL     1      22.358   4.376  51.575  1.00  0.00     0.085 HD
BRANCH  13  15
HETATM   15  C4  UNL     1      24.442   4.118  49.849  1.00  0.00    -0.014 A 
HETATM   16  C3  UNL     1      25.543   3.289  49.857  1.00  0.00     0.015 A 
HETATM   17  C2  UNL     1      26.788   3.665  49.394  1.00  0.00     0.024 A 
HETATM   18  C1  UNL     1      26.972   4.935  48.889  1.00  0.00     0.034 A 
HETATM   19 CL1  UNL     1      28.496   5.539  48.270  1.00  0.00    -0.084 Cl
HETATM   20  C15 UNL     1      25.890   5.792  48.866  1.00  0.00     0.024 A 
HETATM   21  C14 UNL     1      24.652   5.398  49.334  1.00  0.00     0.015 A 
ENDBRANCH  13  15
ENDBRANCH  11  13
ENDBRANCH   1  11
BRANCH   3  22
HETATM   22  N2  UNL     1      26.511   0.069  53.417  1.00  0.00    -0.303 N 
HETATM   23 BR1  UNL     1      27.172  -1.589  52.743  1.00  0.00     0.049 Br
HETATM   24  H7  UNL     1      27.214   0.742  53.837  1.00  0.00     0.176 HD
ENDBRANCH   3  22
TORSDOF 4
ENDMDL
MODEL 3
REMARK VINA RESULT:      -7.6      3.533      4.277
REMARK  4 active torsions:
REMARK  status: ('A' for Active; 'I' for Inactive)
REMARK    1  A    between atoms: C4_5  and  P1_6 
REMARK    2  A    between atoms: P1_6  and  N1_7 
REMARK    3  A    between atoms: N1_7  and  C5_8 
REMARK    4  A    between atoms: C7_10  and  N2_11 
ROOT
HETATM    1  C5  UNL     1      25.336   1.544  52.790  1.00  0.00     0.144 A 
HETATM    2  C6  UNL     1      24.454   0.501  53.450  1.00  0.00     0.059 A 
HETATM    3  C7  UNL     1      24.659  -0.426  54.371  1.00  0.00     0.152 A 
HETATM    4  O1  UNL     1      25.973  -0.434  54.815  1.00  0.00    -0.293 OA
HETATM    5  C8  UNL     1      26.954   0.425  54.352  1.00  0.00     0.086 A 
HETATM    6  C9  UNL     1      28.179   0.234  54.933  1.00  0.00     0.038 A 
HETATM    7  C10 UNL     1      29.243   1.026  54.556  1.00  0.00     0.003 A 
HETATM    8  C11 UNL     1      29.042   1.996  53.595  1.00  0.00     0.001 A 
HETATM    9  C12 UNL     1      27.785   2.127  53.058  1.00  0.00     0.012 A 
HETATM   10  C13 UNL     1      26.676   1.379  53.381  1.00  0.00     0.002 A 
ENDROOT
BRANCH   1  11
HETATM   11  N1  UNL     1      24.691   2.794  53.135  1.00  0.00    -0.384 N 
HETATM   12  H4  UNL     1      24.332   2.806  54.097  1.00  0.00     0.159 HD
BRANCH  11  13
HETATM   13  P1  UNL     1      23.658   3.478  51.882  1.00  0.00     0.001 P 
HETATM   14  H3  UNL     1      24.417   3.515  50.644  1.00  0.00     0.085 HD
BRANCH  13  15
HETATM   15  C4  UNL     1      22.171   2.426  51.719  1.00  0.00    -0.014 A 
HETATM   16  C3  UNL     1      22.124   1.400  50.799  1.00  0.00     0.015 A 
HETATM   17  C2  UNL     1      21.031   0.573  50.629  1.00  0.00     0.024 A 
HETATM   18  C1  UNL     1      19.910   0.758  51.409  1.00  0.00     0.034 A 
HETATM   19 CL1  UNL     1      18.458  -0.219  51.297  1.00  0.00    -0.084 Cl
HETATM   20  C15 UNL     1      19.921   1.776  52.340  1.00  0.00     0.024 A 
HETATM   21  C14 UNL     1      21.024   2.594  52.496  1.00  0.00     0.015 A 
ENDBRANCH  13  15
ENDBRANCH  11  13
ENDBRANCH   1  11
BRANCH   3  22
HETATM   22  N2  UNL     1      23.669  -1.322  54.862  1.00  0.00    -0.303 N 
HETATM   23 BR1  UNL     1      21.872  -0.995  54.311  1.00  0.00     0.049 Br
HETATM   24  H7  UNL     1      23.842  -2.149  55.503  1.00  0.00     0.176 HD
ENDBRANCH   3  22
TORSDOF 4
ENDMDL
MODEL 4
REMARK VINA RESULT:      -7.5      4.862      6.673
REMARK  4 active torsions:
REMARK  status: ('A' for Active; 'I' for Inactive)
REMARK    1  A    between atoms: C4_5  and  P1_6 
REMARK    2  A    between atoms: P1_6  and  N1_7 
REMARK    3  A    between atoms: N1_7  and  C5_8 
REMARK    4  A    between atoms: C7_10  and  N2_11 
ROOT
HETATM    1  C5  UNL     1      24.154   2.774  51.836  1.00  0.00     0.144 A 
HETATM    2  C6  UNL     1      25.096   3.544  50.931  1.00  0.00     0.059 A 
HETATM    3  C7  UNL     1      26.315   3.319  50.468  1.00  0.00     0.152 A 
HETATM    4  O1  UNL     1      26.828   2.114  50.923  1.00  0.00    -0.293 OA
HETATM    5  C8  UNL     1      26.147   1.247  51.760  1.00  0.00     0.086 A 
HETATM    6  C9  UNL     1      26.850   0.116  52.079  1.00  0.00     0.038 A 
HETATM    7  C10 UNL     1      26.282  -0.827  52.910  1.00  0.00     0.003 A 
HETATM    8  C11 UNL     1      25.013  -0.603  53.401  1.00  0.00     0.001 A 
HETATM    9  C12 UNL     1      24.371   0.555  53.036  1.00  0.00     0.012 A 
HETATM   10  C13 UNL     1      24.867   1.540  52.214  1.00  0.00     0.002 A 
ENDROOT
BRANCH   1  11
HETATM   11  N1  UNL     1      22.994   2.549  50.997  1.00  0.00    -0.384 N 
HETATM   12  H4  UNL     1      23.168   2.770  50.010  1.00  0.00     0.159 HD
BRANCH  11  13
HETATM   13  P1  UNL     1      21.458   3.074  51.682  1.00  0.00     0.001 P 
HETATM   14  H3  UNL     1      20.734   3.804  50.657  1.00  0.00     0.085 HD
BRANCH  13  15
HETATM   15  C4  UNL     1      20.530   1.594  52.226  1.00  0.00    -0.014 A 
HETATM   16  C3  UNL     1      20.868   0.932  53.388  1.00  0.00     0.015 A 
HETATM   17  C2  UNL     1      20.206  -0.188  53.850  1.00  0.00     0.024 A 
HETATM   18  C1  UNL     1      19.146  -0.698  53.132  1.00  0.00     0.034 A 
HETATM   19 CL1  UNL     1      18.222  -2.111  53.604  1.00  0.00    -0.084 Cl
HETATM   20  C15 UNL     1      18.781  -0.061  51.963  1.00  0.00     0.024 A 
HETATM   21  C14 UNL     1      19.455   1.060  51.516  1.00  0.00     0.015 A 
ENDBRANCH  13  15
ENDBRANCH  11  13
ENDBRANCH   1  11
BRANCH   3  22
HETATM   22  N2  UNL     1      27.036   4.194  49.609  1.00  0.00    -0.303 N 
HETATM   23 BR1  UNL     1      26.132   5.777  49.048  1.00  0.00     0.049 Br
HETATM   24  H7  UNL     1      28.025   4.043  49.256  1.00  0.00     0.176 HD
ENDBRANCH   3  22
TORSDOF 4
ENDMDL
MODEL 5
REMARK VINA RESULT:      -7.5      4.091      5.883
REMARK  4 active torsions:
REMARK  status: ('A' for Active; 'I' for Inactive)
REMARK    1  A    between atoms: C4_5  and  P1_6 
REMARK    2  A    between atoms: P1_6  and  N1_7 
REMARK    3  A    between atoms: N1_7  and  C5_8 
REMARK    4  A    between atoms: C7_10  and  N2_11 
ROOT
HETATM    1  C5  UNL     1      22.319   1.108  51.064  1.00  0.00     0.144 A 
HETATM    2  C6  UNL     1      21.032   1.232  50.271  1.00  0.00     0.059 A 
HETATM    3  C7  UNL     1      19.792   0.813  50.461  1.00  0.00     0.152 A 
HETATM    4  O1  UNL     1      19.660   0.104  51.646  1.00  0.00    -0.293 OA
HETATM    5  C8  UNL     1      20.700  -0.136  52.526  1.00  0.00     0.086 A 
HETATM    6  C9  UNL     1      20.337  -0.859  53.632  1.00  0.00     0.038 A 
HETATM    7  C10 UNL     1      21.285  -1.167  54.585  1.00  0.00     0.003 A 
HETATM    8  C11 UNL     1      22.582  -0.737  54.398  1.00  0.00     0.001 A 
HETATM    9  C12 UNL     1      22.869  -0.017  53.264  1.00  0.00     0.012 A 
HETATM   10  C13 UNL     1      21.983   0.331  52.270  1.00  0.00     0.002 A 
ENDROOT
BRANCH   1  11
HETATM   11  N1  UNL     1      22.680   2.485  51.332  1.00  0.00    -0.384 N 
HETATM   12  H4  UNL     1      21.934   3.148  51.089  1.00  0.00     0.159 HD
BRANCH  11  13
HETATM   13  P1  UNL     1      24.327   2.930  50.892  1.00  0.00     0.001 P 
HETATM   14  H3  UNL     1      24.446   4.374  50.991  1.00  0.00     0.085 HD
BRANCH  13  15
HETATM   15  C4  UNL     1      25.480   2.087  52.035  1.00  0.00    -0.014 A 
HETATM   16  C3  UNL     1      25.515   2.412  53.375  1.00  0.00     0.015 A 
HETATM   17  C2  UNL     1      26.362   1.812  54.286  1.00  0.00     0.024 A 
HETATM   18  C1  UNL     1      27.232   0.831  53.863  1.00  0.00     0.034 A 
HETATM   19 CL1  UNL     1      28.357  -0.009  54.913  1.00  0.00    -0.084 Cl
HETATM   20  C15 UNL     1      27.224   0.481  52.527  1.00  0.00     0.024 A 
HETATM   21  C14 UNL     1      26.370   1.092  51.631  1.00  0.00     0.015 A 
ENDBRANCH  13  15
ENDBRANCH  11  13
ENDBRANCH   1  11
BRANCH   3  22
HETATM   22  N2  UNL     1      18.706   1.044  49.571  1.00  0.00    -0.303 N 
HETATM   23 BR1  UNL     1      17.069   0.148  49.972  1.00  0.00     0.049 Br
HETATM   24  H7  UNL     1      18.727   1.664  48.712  1.00  0.00     0.176 HD
ENDBRANCH   3  22
TORSDOF 4
ENDMDL
MODEL 6
REMARK VINA RESULT:      -7.3      1.452      2.029
REMARK  4 active torsions:
REMARK  status: ('A' for Active; 'I' for Inactive)
REMARK    1  A    between atoms: C4_5  and  P1_6 
REMARK    2  A    between atoms: P1_6  and  N1_7 
REMARK    3  A    between atoms: N1_7  and  C5_8 
REMARK    4  A    between atoms: C7_10  and  N2_11 
ROOT
HETATM    1  C5  UNL     1      23.447   1.505  51.960  1.00  0.00     0.144 A 
HETATM    2  C6  UNL     1      22.343   0.865  52.779  1.00  0.00     0.059 A 
HETATM    3  C7  UNL     1      22.321  -0.034  53.749  1.00  0.00     0.152 A 
HETATM    4  O1  UNL     1      23.594  -0.480  54.071  1.00  0.00    -0.293 OA
HETATM    5  C8  UNL     1      24.750  -0.036  53.454  1.00  0.00     0.086 A 
HETATM    6  C9  UNL     1      25.894  -0.616  53.936  1.00  0.00     0.038 A 
HETATM    7  C10 UNL     1      27.115  -0.261  53.401  1.00  0.00     0.003 A 
HETATM    8  C11 UNL     1      27.151   0.675  52.388  1.00  0.00     0.001 A 
HETATM    9  C12 UNL     1      25.962   1.211  51.958  1.00  0.00     0.012 A 
HETATM   10  C13 UNL     1      24.708   0.911  52.439  1.00  0.00     0.002 A 
ENDROOT
BRANCH   1  11
HETATM   11  N1  UNL     1      23.311   2.916  52.261  1.00  0.00    -0.384 N 
HETATM   12  H4  UNL     1      22.754   3.092  53.105  1.00  0.00     0.159 HD
BRANCH  11  13
HETATM   13  P1  UNL     1      23.014   3.956  50.869  1.00  0.00     0.001 P 
HETATM   14  H3  UNL     1      22.321   5.144  51.334  1.00  0.00     0.085 HD
BRANCH  13  15
HETATM   15  C4  UNL     1      24.623   4.378  50.108  1.00  0.00    -0.014 A 
HETATM   16  C3  UNL     1      24.960   5.689  49.844  1.00  0.00     0.015 A 
HETATM   17  C2  UNL     1      26.158   6.070  49.272  1.00  0.00     0.024 A 
HETATM   18  C1  UNL     1      27.088   5.111  48.935  1.00  0.00     0.034 A 
HETATM   19 CL1  UNL     1      28.643   5.458  48.205  1.00  0.00    -0.084 Cl
HETATM   20  C15 UNL     1      26.783   3.788  49.185  1.00  0.00     0.024 A 
HETATM   21  C14 UNL     1      25.579   3.425  49.758  1.00  0.00     0.015 A 
ENDBRANCH  13  15
ENDBRANCH  11  13
ENDBRANCH   1  11
BRANCH   3  22
HETATM   22  N2  UNL     1      21.146  -0.508  54.397  1.00  0.00    -0.303 N 
HETATM   23 BR1  UNL     1      19.543  -0.511  53.363  1.00  0.00     0.049 Br
HETATM   24  H7  UNL     1      21.085  -0.855  55.397  1.00  0.00     0.176 HD
ENDBRANCH   3  22
TORSDOF 4
ENDMDL
MODEL 7
REMARK VINA RESULT:      -7.1      2.850      3.800
REMARK  4 active torsions:
REMARK  status: ('A' for Active; 'I' for Inactive)
REMARK    1  A    between atoms: C4_5  and  P1_6 
REMARK    2  A    between atoms: P1_6  and  N1_7 
REMARK    3  A    between atoms: N1_7  and  C5_8 
REMARK    4  A    between atoms: C7_10  and  N2_11 
ROOT
HETATM    1  C5  UNL     1      22.396   1.635  50.877  1.00  0.00     0.144 A 
HETATM    2  C6  UNL     1      20.930   1.248  50.838  1.00  0.00     0.059 A 
HETATM    3  C7  UNL     1      20.177   0.424  51.548  1.00  0.00     0.152 A 
HETATM    4  O1  UNL     1      20.905  -0.219  52.538  1.00  0.00    -0.293 OA
HETATM    5  C8  UNL     1      22.258  -0.023  52.758  1.00  0.00     0.086 A 
HETATM    6  C9  UNL     1      22.766  -0.766  53.790  1.00  0.00     0.038 A 
HETATM    7  C10 UNL     1      24.104  -0.664  54.109  1.00  0.00     0.003 A 
HETATM    8  C11 UNL     1      24.899   0.190  53.374  1.00  0.00     0.001 A 
HETATM    9  C12 UNL     1      24.317   0.902  52.354  1.00  0.00     0.012 A 
HETATM   10  C13 UNL     1      22.995   0.856  51.976  1.00  0.00     0.002 A 
ENDROOT
BRANCH   1  11
HETATM   11  N1  UNL     1      22.358   3.063  51.120  1.00  0.00    -0.384 N 
HETATM   12  H4  UNL     1      21.668   3.327  51.833  1.00  0.00     0.159 HD
BRANCH  11  13
HETATM   13  P1  UNL     1      22.456   4.073  49.680  1.00  0.00     0.001 P 
HETATM   14  H3  UNL     1      21.702   5.289  49.930  1.00  0.00     0.085 HD
BRANCH  13  15
HETATM   15  C4  UNL     1      24.218   4.440  49.349  1.00  0.00    -0.014 A 
HETATM   16  C3  UNL     1      24.606   5.666  48.851  1.00  0.00     0.015 A 
HETATM   17  C2  UNL     1      25.918   6.001  48.581  1.00  0.00     0.024 A 
HETATM   18  C1  UNL     1      26.918   5.081  48.812  1.00  0.00     0.034 A 
HETATM   19 CL1  UNL     1      28.619   5.377  48.513  1.00  0.00    -0.084 Cl
HETATM   20  C15 UNL     1      26.565   3.843  49.310  1.00  0.00     0.024 A 
HETATM   21  C14 UNL     1      25.247   3.525  49.574  1.00  0.00     0.015 A 
ENDBRANCH  13  15
ENDBRANCH  11  13
ENDBRANCH   1  11
BRANCH   3  22
HETATM   22  N2  UNL     1      18.787   0.203  51.341  1.00  0.00    -0.303 N 
HETATM   23 BR1  UNL     1      17.905  -0.921  52.605  1.00  0.00     0.049 Br
HETATM   24  H7  UNL     1      18.205   0.605  50.552  1.00  0.00     0.176 HD
ENDBRANCH   3  22
TORSDOF 4
ENDMDL
MODEL 8
REMARK VINA RESULT:      -7.1      4.400      7.310
REMARK  4 active torsions:
REMARK  status: ('A' for Active; 'I' for Inactive)
REMARK    1  A    between atoms: C4_5  and  P1_6 
REMARK    2  A    between atoms: P1_6  and  N1_7 
REMARK    3  A    between atoms: N1_7  and  C5_8 
REMARK    4  A    between atoms: C7_10  and  N2_11 
ROOT
HETATM    1  C5  UNL     1      24.893   3.305  50.462  1.00  0.00     0.144 A 
HETATM    2  C6  UNL     1      25.975   4.331  50.182  1.00  0.00     0.059 A 
HETATM    3  C7  UNL     1      26.071   5.365  49.363  1.00  0.00     0.152 A 
HETATM    4  O1  UNL     1      24.926   5.529  48.599  1.00  0.00    -0.293 OA
HETATM    5  C8  UNL     1      23.813   4.711  48.683  1.00  0.00     0.086 A 
HETATM    6  C9  UNL     1      22.799   5.062  47.832  1.00  0.00     0.038 A 
HETATM    7  C10 UNL     1      21.635   4.323  47.818  1.00  0.00     0.003 A 
HETATM    8  C11 UNL     1      21.523   3.241  48.666  1.00  0.00     0.001 A 
HETATM    9  C12 UNL     1      22.582   2.951  49.490  1.00  0.00     0.012 A 
HETATM   10  C13 UNL     1      23.772   3.638  49.565  1.00  0.00     0.002 A 
ENDROOT
BRANCH   1  11
HETATM   11  N1  UNL     1      24.600   3.504  51.868  1.00  0.00    -0.384 N 
HETATM   12  H4  UNL     1      25.166   4.248  52.291  1.00  0.00     0.159 HD
BRANCH  11  13
HETATM   13  P1  UNL     1      24.377   2.029  52.804  1.00  0.00     0.001 P 
HETATM   14  H3  UNL     1      23.459   1.168  52.079  1.00  0.00     0.085 HD
BRANCH  13  15
HETATM   15  C4  UNL     1      26.007   1.229  53.022  1.00  0.00    -0.014 A 
HETATM   16  C3  UNL     1      26.181  -0.113  52.754  1.00  0.00     0.015 A 
HETATM   17  C2  UNL     1      27.386  -0.773  52.899  1.00  0.00     0.024 A 
HETATM   18  C1  UNL     1      28.494  -0.079  53.334  1.00  0.00     0.034 A 
HETATM   19 CL1  UNL     1      30.079  -0.793  53.560  1.00  0.00    -0.084 Cl
HETATM   20  C15 UNL     1      28.356   1.266  53.612  1.00  0.00     0.024 A 
HETATM   21  C14 UNL     1      27.143   1.909  53.462  1.00  0.00     0.015 A 
ENDBRANCH  13  15
ENDBRANCH  11  13
ENDBRANCH   1  11
BRANCH   3  22
HETATM   22  N2  UNL     1      27.204   6.219  49.256  1.00  0.00    -0.303 N 
HETATM   23 BR1  UNL     1      28.693   5.543  48.274  1.00  0.00     0.049 Br
HETATM   24  H7  UNL     1      27.291   7.191  49.671  1.00  0.00     0.176 HD
ENDBRANCH   3  22
TORSDOF 4
ENDMDL
MODEL 9
REMARK VINA RESULT:      -7.1      3.321      4.261
REMARK  4 active torsions:
REMARK  status: ('A' for Active; 'I' for Inactive)
REMARK    1  A    between atoms: C4_5  and  P1_6 
REMARK    2  A    between atoms: P1_6  and  N1_7 
REMARK    3  A    between atoms: N1_7  and  C5_8 
REMARK    4  A    between atoms: C7_10  and  N2_11 
ROOT
HETATM    1  C5  UNL     1      20.631   1.070  52.109  1.00  0.00     0.144 A 
HETATM    2  C6  UNL     1      19.461   0.239  52.599  1.00  0.00     0.059 A 
HETATM    3  C7  UNL     1      19.344  -0.779  53.435  1.00  0.00     0.152 A 
HETATM    4  O1  UNL     1      20.567  -1.156  53.967  1.00  0.00    -0.293 OA
HETATM    5  C8  UNL     1      21.769  -0.542  53.662  1.00  0.00     0.086 A 
HETATM    6  C9  UNL     1      22.850  -1.083  54.306  1.00  0.00     0.038 A 
HETATM    7  C10 UNL     1      24.107  -0.561  54.084  1.00  0.00     0.003 A 
HETATM    8  C11 UNL     1      24.242   0.500  53.212  1.00  0.00     0.001 A 
HETATM    9  C12 UNL     1      23.112   0.988  52.604  1.00  0.00     0.012 A 
HETATM   10  C13 UNL     1      21.827   0.524  52.773  1.00  0.00     0.002 A 
ENDROOT
BRANCH   1  11
HETATM   11  N1  UNL     1      20.285   2.413  52.529  1.00  0.00    -0.384 N 
HETATM   12  H4  UNL     1      19.468   2.439  53.150  1.00  0.00     0.159 HD
BRANCH  11  13
HETATM   13  P1  UNL     1      20.380   3.643  51.271  1.00  0.00     0.001 P 
HETATM   14  H3  UNL     1      19.909   4.898  51.830  1.00  0.00     0.085 HD
BRANCH  13  15
HETATM   15  C4  UNL     1      22.118   3.771  50.716  1.00  0.00    -0.014 A 
HETATM   16  C3  UNL     1      22.554   3.107  49.589  1.00  0.00     0.015 A 
HETATM   17  C2  UNL     1      23.852   3.165  49.121  1.00  0.00     0.024 A 
HETATM   18  C1  UNL     1      24.787   3.921  49.796  1.00  0.00     0.034 A 
HETATM   19 CL1  UNL     1      26.464   4.080  49.311  1.00  0.00    -0.084 Cl
HETATM   20  C15 UNL     1      24.384   4.599  50.929  1.00  0.00     0.024 A 
HETATM   21  C14 UNL     1      23.082   4.529  51.383  1.00  0.00     0.015 A 
ENDBRANCH  13  15
ENDBRANCH  11  13
ENDBRANCH   1  11
BRANCH   3  22
HETATM   22  N2  UNL     1      18.122  -1.430  53.764  1.00  0.00    -0.303 N 
HETATM   23 BR1  UNL     1      16.672  -1.187  52.548  1.00  0.00     0.049 Br
HETATM   24  H7  UNL     1      17.949  -2.031  54.620  1.00  0.00     0.176 HD
ENDBRANCH   3  22
TORSDOF 4
ENDMDL
