MODEL 1
REMARK VINA RESULT:      -8.1      0.000      0.000
REMARK  1 active torsions:
REMARK  status: ('A' for Active; 'I' for Inactive)
REMARK    1  A    between atoms: C2_2  and  C3_3 
ROOT
HETATM    1  C3  UNL     1      34.438   8.382  44.706  1.00  0.00    -0.035 C 
HETATM    2  C4  UNL     1      33.684   7.442  44.223  1.00  0.00     0.009 C 
HETATM    3  C5  UNL     1      33.591   6.928  42.826  1.00  0.00     0.059 C 
HETATM    4  C6  UNL     1      33.897   5.426  43.207  1.00  0.00     0.031 C 
HETATM    5  C7  UNL     1      32.947   5.238  44.358  1.00  0.00     0.087 C 
HETATM    6  C8  UNL     1      33.381   4.456  45.508  1.00  0.00     0.037 A 
HETATM    7  C9  UNL     1      33.854   5.549  46.218  1.00  0.00     0.041 A 
HETATM    8  C10 UNL     1      34.128   4.545  47.125  1.00  0.00     0.020 A 
HETATM    9  C11 UNL     1      32.980   4.831  48.055  1.00  0.00     0.060 A 
HETATM   10  C12 UNL     1      31.830   5.675  48.331  1.00  0.00    -0.044 C 
HETATM   11  C13 UNL     1      30.654   5.149  47.913  1.00  0.00    -0.017 C 
HETATM   12  C14 UNL     1      29.285   5.760  48.046  1.00  0.00     0.054 C 
HETATM   13  C15 UNL     1      29.454   7.225  48.044  1.00  0.00    -0.024 C 
HETATM   14  C16 UNL     1      30.610   7.700  48.486  1.00  0.00     0.005 C 
HETATM   15  C17 UNL     1      31.882   6.984  49.022  1.00  0.00     0.173 C 
HETATM   16  O1  UNL     1      32.875   7.839  48.922  1.00  0.00    -0.374 OA
HETATM   17  C18 UNL     1      34.174   7.450  48.697  1.00  0.00     0.210 C 
HETATM   18  C19 UNL     1      34.041   6.541  47.480  1.00  0.00     0.118 C 
HETATM   19  C20 UNL     1      34.474   5.111  47.515  1.00  0.00     0.065 A 
HETATM   20  N1  UNL     1      35.120   4.687  48.851  1.00  0.00    -0.409 N 
HETATM   21  C21 UNL     1      34.874   3.477  47.821  1.00  0.00     0.128 C 
HETATM   22  O2  UNL     1      33.475   7.598  46.673  1.00  0.00    -0.370 OA
HETATM   23  C22 UNL     1      34.395   8.582  46.184  1.00  0.00     0.205 C 
HETATM   24  N2  UNL     1      32.687   6.646  44.790  1.00  0.00    -0.388 N 
HETATM   25  H21 UNL     1      35.434   5.116  49.687  1.00  0.00     0.154 HD
HETATM   26  H26 UNL     1      31.822   6.730  45.414  1.00  0.00     0.159 HD
ENDROOT
BRANCH   1  27
HETATM   27  C2  UNL     1      35.447   9.317  44.186  1.00  0.00     0.034 C 
HETATM   28  C1  UNL     1      34.888  10.612  43.672  1.00  0.00     0.010 C 
ENDBRANCH   1  27
TORSDOF 1
ENDMDL
MODEL 2
REMARK VINA RESULT:      -8.0      9.371     12.232
REMARK  1 active torsions:
REMARK  status: ('A' for Active; 'I' for Inactive)
REMARK    1  A    between atoms: C2_2  and  C3_3 
ROOT
HETATM    1  C3  UNL     1      20.390   2.795  51.288  1.00  0.00    -0.035 C 
HETATM    2  C4  UNL     1      20.963   2.120  50.338  1.00  0.00     0.009 C 
HETATM    3  C5  UNL     1      20.368   1.539  49.099  1.00  0.00     0.059 C 
HETATM    4  C6  UNL     1      21.350   2.284  48.109  1.00  0.00     0.031 C 
HETATM    5  C7  UNL     1      22.672   1.988  48.763  1.00  0.00     0.087 C 
HETATM    6  C8  UNL     1      23.690   3.029  48.792  1.00  0.00     0.037 A 
HETATM    7  C9  UNL     1      23.313   3.524  50.030  1.00  0.00     0.041 A 
HETATM    8  C10 UNL     1      24.372   4.366  49.756  1.00  0.00     0.020 A 
HETATM    9  C11 UNL     1      25.365   3.702  50.671  1.00  0.00     0.060 A 
HETATM   10  C12 UNL     1      25.598   2.638  51.632  1.00  0.00    -0.044 C 
HETATM   11  C13 UNL     1      26.172   1.535  51.097  1.00  0.00    -0.017 C 
HETATM   12  C14 UNL     1      26.547   0.264  51.812  1.00  0.00     0.054 C 
HETATM   13  C15 UNL     1      25.620   0.108  52.948  1.00  0.00    -0.024 C 
HETATM   14  C16 UNL     1      25.100   1.215  53.460  1.00  0.00     0.005 C 
HETATM   15  C17 UNL     1      25.280   2.711  53.077  1.00  0.00     0.173 C 
HETATM   16  O1  UNL     1      24.254   3.362  53.581  1.00  0.00    -0.374 OA
HETATM   17  C18 UNL     1      23.722   4.485  52.992  1.00  0.00     0.210 C 
HETATM   18  C19 UNL     1      23.496   4.029  51.555  1.00  0.00     0.118 C 
HETATM   19  C20 UNL     1      24.144   4.721  50.399  1.00  0.00     0.065 A 
HETATM   20  N1  UNL     1      24.981   5.953  50.799  1.00  0.00    -0.409 N 
HETATM   21  C21 UNL     1      25.108   5.543  49.250  1.00  0.00     0.128 C 
HETATM   22  O2  UNL     1      22.609   2.964  51.965  1.00  0.00    -0.370 OA
HETATM   23  C22 UNL     1      21.284   3.356  52.343  1.00  0.00     0.205 C 
HETATM   24  N2  UNL     1      22.268   1.655  50.164  1.00  0.00    -0.388 N 
HETATM   25  H21 UNL     1      25.146   6.503  51.607  1.00  0.00     0.154 HD
HETATM   26  H26 UNL     1      23.040   1.149  50.704  1.00  0.00     0.159 HD
ENDROOT
BRANCH   1  27
HETATM   27  C2  UNL     1      19.030   3.261  51.598  1.00  0.00     0.034 C 
HETATM   28  C1  UNL     1      18.495   4.292  50.648  1.00  0.00     0.010 C 
ENDBRANCH   1  27
TORSDOF 1
ENDMDL
MODEL 3
REMARK VINA RESULT:      -7.2      9.236     11.848
REMARK  1 active torsions:
REMARK  status: ('A' for Active; 'I' for Inactive)
REMARK    1  A    between atoms: C2_2  and  C3_3 
ROOT
HETATM    1  C3  UNL     1      21.247   6.997  49.551  1.00  0.00    -0.035 C 
HETATM    2  C4  UNL     1      21.138   6.073  48.646  1.00  0.00     0.009 C 
HETATM    3  C5  UNL     1      20.804   6.201  47.198  1.00  0.00     0.059 C 
HETATM    4  C6  UNL     1      22.107   5.468  46.686  1.00  0.00     0.031 C 
HETATM    5  C7  UNL     1      22.094   4.247  47.564  1.00  0.00     0.087 C 
HETATM    6  C8  UNL     1      23.356   3.744  48.087  1.00  0.00     0.037 A 
HETATM    7  C9  UNL     1      23.283   4.461  49.271  1.00  0.00     0.041 A 
HETATM    8  C10 UNL     1      24.477   3.798  49.474  1.00  0.00     0.020 A 
HETATM    9  C11 UNL     1      23.944   2.766  50.430  1.00  0.00     0.060 A 
HETATM   10  C12 UNL     1      22.782   2.267  51.145  1.00  0.00    -0.044 C 
HETATM   11  C13 UNL     1      22.165   1.230  50.530  1.00  0.00    -0.017 C 
HETATM   12  C14 UNL     1      20.944   0.487  51.002  1.00  0.00     0.054 C 
HETATM   13  C15 UNL     1      20.137   1.427  51.802  1.00  0.00    -0.024 C 
HETATM   14  C16 UNL     1      20.783   2.412  52.409  1.00  0.00     0.005 C 
HETATM   15  C17 UNL     1      22.290   2.792  52.440  1.00  0.00     0.173 C 
HETATM   16  O1  UNL     1      22.361   4.052  52.807  1.00  0.00    -0.374 OA
HETATM   17  C18 UNL     1      23.358   4.898  52.380  1.00  0.00     0.210 C 
HETATM   18  C19 UNL     1      23.321   4.715  50.867  1.00  0.00     0.118 C 
HETATM   19  C20 UNL     1      24.515   4.238  50.103  1.00  0.00     0.065 A 
HETATM   20  N1  UNL     1      25.770   4.029  50.975  1.00  0.00    -0.409 N 
HETATM   21  C21 UNL     1      25.930   3.529  49.456  1.00  0.00     0.128 C 
HETATM   22  O2  UNL     1      21.946   5.152  50.783  1.00  0.00    -0.370 OA
HETATM   23  C22 UNL     1      21.724   6.563  50.897  1.00  0.00     0.205 C 
HETATM   24  N2  UNL     1      21.226   4.680  48.702  1.00  0.00    -0.388 N 
HETATM   25  H21 UNL     1      26.064   4.215  51.903  1.00  0.00     0.154 HD
HETATM   26  H26 UNL     1      20.874   3.856  49.286  1.00  0.00     0.159 HD
ENDROOT
BRANCH   1  27
HETATM   27  C2  UNL     1      21.099   8.459  49.610  1.00  0.00     0.034 C 
HETATM   28  C1  UNL     1      19.731   8.930  50.009  1.00  0.00     0.010 C 
ENDBRANCH   1  27
TORSDOF 1
ENDMDL
MODEL 4
REMARK VINA RESULT:      -7.2      1.946      4.842
REMARK  1 active torsions:
REMARK  status: ('A' for Active; 'I' for Inactive)
REMARK    1  A    between atoms: C2_2  and  C3_3 
ROOT
HETATM    1  C3  UNL     1      33.485   4.806  47.236  1.00  0.00    -0.035 C 
HETATM    2  C4  UNL     1      33.951   5.619  48.135  1.00  0.00     0.009 C 
HETATM    3  C5  UNL     1      35.070   5.420  49.102  1.00  0.00     0.059 C 
HETATM    4  C6  UNL     1      35.883   6.694  48.640  1.00  0.00     0.031 C 
HETATM    5  C7  UNL     1      34.792   7.729  48.643  1.00  0.00     0.087 C 
HETATM    6  C8  UNL     1      34.770   8.730  47.585  1.00  0.00     0.037 A 
HETATM    7  C9  UNL     1      33.929   8.004  46.757  1.00  0.00     0.041 A 
HETATM    8  C10 UNL     1      34.105   9.131  45.979  1.00  0.00     0.020 A 
HETATM    9  C11 UNL     1      32.768   9.756  46.270  1.00  0.00     0.060 A 
HETATM   10  C12 UNL     1      31.503   9.630  46.972  1.00  0.00    -0.044 C 
HETATM   11  C13 UNL     1      31.463  10.295  48.151  1.00  0.00    -0.017 C 
HETATM   12  C14 UNL     1      30.310  10.370  49.116  1.00  0.00     0.054 C 
HETATM   13  C15 UNL     1      29.531   9.127  48.970  1.00  0.00    -0.024 C 
HETATM   14  C16 UNL     1      29.576   8.521  47.792  1.00  0.00     0.005 C 
HETATM   15  C17 UNL     1      30.327   8.876  46.478  1.00  0.00     0.173 C 
HETATM   16  O1  UNL     1      30.396   7.773  45.765  1.00  0.00    -0.374 OA
HETATM   17  C18 UNL     1      31.438   7.502  44.911  1.00  0.00     0.210 C 
HETATM   18  C19 UNL     1      32.659   7.719  45.798  1.00  0.00     0.118 C 
HETATM   19  C20 UNL     1      33.709   8.728  45.458  1.00  0.00     0.065 A 
HETATM   20  N1  UNL     1      33.470   9.448  44.115  1.00  0.00    -0.409 N 
HETATM   21  C21 UNL     1      34.695  10.038  44.973  1.00  0.00     0.128 C 
HETATM   22  O2  UNL     1      32.237   6.704  46.736  1.00  0.00    -0.370 OA
HETATM   23  C22 UNL     1      32.433   5.345  46.326  1.00  0.00     0.205 C 
HETATM   24  N2  UNL     1      33.556   6.891  48.553  1.00  0.00    -0.388 N 
HETATM   25  H21 UNL     1      32.863   9.374  43.336  1.00  0.00     0.154 HD
HETATM   26  H26 UNL     1      32.674   7.432  48.822  1.00  0.00     0.159 HD
ENDROOT
BRANCH   1  27
HETATM   27  C2  UNL     1      33.775   3.439  46.778  1.00  0.00     0.034 C 
HETATM   28  C1  UNL     1      35.059   3.298  46.015  1.00  0.00     0.010 C 
ENDBRANCH   1  27
TORSDOF 1
ENDMDL
MODEL 5
REMARK VINA RESULT:      -7.1      8.909     12.536
REMARK  1 active torsions:
REMARK  status: ('A' for Active; 'I' for Inactive)
REMARK    1  A    between atoms: C2_2  and  C3_3 
ROOT
HETATM    1  C3  UNL     1      24.863   5.056  49.676  1.00  0.00    -0.035 C 
HETATM    2  C4  UNL     1      24.075   5.604  50.550  1.00  0.00     0.009 C 
HETATM    3  C5  UNL     1      24.158   6.950  51.187  1.00  0.00     0.059 C 
HETATM    4  C6  UNL     1      22.713   7.407  50.740  1.00  0.00     0.031 C 
HETATM    5  C7  UNL     1      21.908   6.205  51.152  1.00  0.00     0.087 C 
HETATM    6  C8  UNL     1      20.825   5.755  50.289  1.00  0.00     0.037 A 
HETATM    7  C9  UNL     1      21.607   4.853  49.584  1.00  0.00     0.041 A 
HETATM    8  C10 UNL     1      20.392   4.645  48.962  1.00  0.00     0.020 A 
HETATM    9  C11 UNL     1      20.064   3.347  49.648  1.00  0.00     0.060 A 
HETATM   10  C12 UNL     1      20.499   2.341  50.601  1.00  0.00    -0.044 C 
HETATM   11  C13 UNL     1      19.980   2.502  51.841  1.00  0.00    -0.017 C 
HETATM   12  C14 UNL     1      20.224   1.640  53.051  1.00  0.00     0.054 C 
HETATM   13  C15 UNL     1      21.570   1.054  52.910  1.00  0.00    -0.024 C 
HETATM   14  C16 UNL     1      22.031   0.888  51.679  1.00  0.00     0.005 C 
HETATM   15  C17 UNL     1      21.406   1.211  50.292  1.00  0.00     0.173 C 
HETATM   16  O1  UNL     1      22.396   1.266  49.428  1.00  0.00    -0.374 OA
HETATM   17  C18 UNL     1      22.375   2.083  48.322  1.00  0.00     0.210 C 
HETATM   18  C19 UNL     1      22.024   3.440  48.920  1.00  0.00     0.118 C 
HETATM   19  C20 UNL     1      20.806   4.196  48.495  1.00  0.00     0.065 A 
HETATM   20  N1  UNL     1      20.008   3.509  47.367  1.00  0.00    -0.409 N 
HETATM   21  C21 UNL     1      19.290   4.805  47.990  1.00  0.00     0.128 C 
HETATM   22  O2  UNL     1      23.193   3.439  49.770  1.00  0.00    -0.370 OA
HETATM   23  C22 UNL     1      24.441   3.733  49.129  1.00  0.00     0.205 C 
HETATM   24  N2  UNL     1      22.950   5.135  51.232  1.00  0.00    -0.388 N 
HETATM   25  H21 UNL     1      20.114   2.741  46.750  1.00  0.00     0.154 HD
HETATM   26  H26 UNL     1      22.617   4.278  51.779  1.00  0.00     0.159 HD
ENDROOT
BRANCH   1  27
HETATM   27  C2  UNL     1      26.096   5.428  48.966  1.00  0.00     0.034 C 
HETATM   28  C1  UNL     1      27.173   4.384  49.003  1.00  0.00     0.010 C 
ENDBRANCH   1  27
TORSDOF 1
ENDMDL
MODEL 6
REMARK VINA RESULT:      -7.0      2.056      4.484
REMARK  1 active torsions:
REMARK  status: ('A' for Active; 'I' for Inactive)
REMARK    1  A    between atoms: C2_2  and  C3_3 
ROOT
HETATM    1  C3  UNL     1      30.507   9.315  48.407  1.00  0.00    -0.035 C 
HETATM    2  C4  UNL     1      30.019   8.796  47.322  1.00  0.00     0.009 C 
HETATM    3  C5  UNL     1      28.793   9.174  46.561  1.00  0.00     0.059 C 
HETATM    4  C6  UNL     1      29.544   9.408  45.190  1.00  0.00     0.031 C 
HETATM    5  C7  UNL     1      30.366   8.151  45.112  1.00  0.00     0.087 C 
HETATM    6  C8  UNL     1      31.726   8.231  44.597  1.00  0.00     0.037 A 
HETATM    7  C9  UNL     1      32.310   8.405  45.842  1.00  0.00     0.041 A 
HETATM    8  C10 UNL     1      33.440   8.420  45.050  1.00  0.00     0.020 A 
HETATM    9  C11 UNL     1      33.901   7.025  45.375  1.00  0.00     0.060 A 
HETATM   10  C12 UNL     1      33.639   5.811  46.129  1.00  0.00    -0.044 C 
HETATM   11  C13 UNL     1      32.999   4.853  45.418  1.00  0.00    -0.017 C 
HETATM   12  C14 UNL     1      32.584   3.487  45.896  1.00  0.00     0.054 C 
HETATM   13  C15 UNL     1      32.339   3.584  47.347  1.00  0.00    -0.024 C 
HETATM   14  C16 UNL     1      33.004   4.519  48.011  1.00  0.00     0.005 C 
HETATM   15  C17 UNL     1      34.034   5.584  47.539  1.00  0.00     0.173 C 
HETATM   16  O1  UNL     1      34.070   6.519  48.462  1.00  0.00    -0.374 OA
HETATM   17  C18 UNL     1      34.332   7.838  48.177  1.00  0.00     0.210 C 
HETATM   18  C19 UNL     1      33.342   8.138  47.058  1.00  0.00     0.118 C 
HETATM   19  C20 UNL     1      33.794   8.599  45.709  1.00  0.00     0.065 A 
HETATM   20  N1  UNL     1      35.319   8.805  45.600  1.00  0.00    -0.409 N 
HETATM   21  C21 UNL     1      34.531   8.952  44.207  1.00  0.00     0.128 C 
HETATM   22  O2  UNL     1      32.205   7.812  47.889  1.00  0.00    -0.370 OA
HETATM   23  C22 UNL     1      31.831   8.797  48.861  1.00  0.00     0.205 C 
HETATM   24  N2  UNL     1      30.405   7.706  46.540  1.00  0.00    -0.388 N 
HETATM   25  H21 UNL     1      36.107   8.818  46.201  1.00  0.00     0.154 HD
HETATM   26  H26 UNL     1      30.707   6.685  46.642  1.00  0.00     0.159 HD
ENDROOT
BRANCH   1  27
HETATM   27  C2  UNL     1      30.140  10.395  49.335  1.00  0.00     0.034 C 
HETATM   28  C1  UNL     1      30.737  11.731  49.000  1.00  0.00     0.010 C 
ENDBRANCH   1  27
TORSDOF 1
ENDMDL
MODEL 7
REMARK VINA RESULT:      -6.9      3.271      6.759
REMARK  1 active torsions:
REMARK  status: ('A' for Active; 'I' for Inactive)
REMARK    1  A    between atoms: C2_2  and  C3_3 
ROOT
HETATM    1  C3  UNL     1      28.034   7.339  47.580  1.00  0.00    -0.035 C 
HETATM    2  C4  UNL     1      27.968   8.147  46.566  1.00  0.00     0.009 C 
HETATM    3  C5  UNL     1      26.816   8.441  45.664  1.00  0.00     0.059 C 
HETATM    4  C6  UNL     1      26.829   9.999  45.922  1.00  0.00     0.031 C 
HETATM    5  C7  UNL     1      28.291  10.295  45.730  1.00  0.00     0.087 C 
HETATM    6  C8  UNL     1      28.932  11.266  46.607  1.00  0.00     0.037 A 
HETATM    7  C9  UNL     1      29.356  10.323  47.531  1.00  0.00     0.041 A 
HETATM    8  C10 UNL     1      29.866  11.466  48.113  1.00  0.00     0.020 A 
HETATM    9  C11 UNL     1      31.297  11.249  47.702  1.00  0.00     0.060 A 
HETATM   10  C12 UNL     1      32.237  10.385  47.010  1.00  0.00    -0.044 C 
HETATM   11  C13 UNL     1      32.496  10.767  45.737  1.00  0.00    -0.017 C 
HETATM   12  C14 UNL     1      33.418  10.096  44.754  1.00  0.00     0.054 C 
HETATM   13  C15 UNL     1      33.454   8.661  45.091  1.00  0.00    -0.024 C 
HETATM   14  C16 UNL     1      33.222   8.332  46.354  1.00  0.00     0.005 C 
HETATM   15  C17 UNL     1      32.898   9.198  47.603  1.00  0.00     0.173 C 
HETATM   16  O1  UNL     1      32.342   8.403  48.489  1.00  0.00    -0.374 OA
HETATM   17  C18 UNL     1      31.401   8.836  49.393  1.00  0.00     0.210 C 
HETATM   18  C19 UNL     1      30.386   9.543  48.502  1.00  0.00     0.118 C 
HETATM   19  C20 UNL     1      30.048  10.987  48.688  1.00  0.00     0.065 A 
HETATM   20  N1  UNL     1      30.758  11.645  49.889  1.00  0.00    -0.409 N 
HETATM   21  C21 UNL     1      29.934  12.671  48.966  1.00  0.00     0.128 C 
HETATM   22  O2  UNL     1      30.126   8.344  47.738  1.00  0.00    -0.370 OA
HETATM   23  C22 UNL     1      29.299   7.359  48.371  1.00  0.00     0.205 C 
HETATM   24  N2  UNL     1      28.918   8.954  45.938  1.00  0.00    -0.388 N 
HETATM   25  H21 UNL     1      31.315  11.366  50.660  1.00  0.00     0.154 HD
HETATM   26  H26 UNL     1      29.921   8.909  45.568  1.00  0.00     0.159 HD
ENDROOT
BRANCH   1  27
HETATM   27  C2  UNL     1      27.128   6.403  48.262  1.00  0.00     0.034 C 
HETATM   28  C1  UNL     1      27.735   5.065  48.572  1.00  0.00     0.010 C 
ENDBRANCH   1  27
TORSDOF 1
ENDMDL
MODEL 8
REMARK VINA RESULT:      -6.8      8.310     11.996
REMARK  1 active torsions:
REMARK  status: ('A' for Active; 'I' for Inactive)
REMARK    1  A    between atoms: C2_2  and  C3_3 
ROOT
HETATM    1  C3  UNL     1      20.502   2.918  48.849  1.00  0.00    -0.035 C 
HETATM    2  C4  UNL     1      21.149   3.362  47.815  1.00  0.00     0.009 C 
HETATM    3  C5  UNL     1      20.732   3.399  46.383  1.00  0.00     0.059 C 
HETATM    4  C6  UNL     1      20.940   4.957  46.217  1.00  0.00     0.031 C 
HETATM    5  C7  UNL     1      22.310   5.115  46.816  1.00  0.00     0.087 C 
HETATM    6  C8  UNL     1      22.588   6.287  47.636  1.00  0.00     0.037 A 
HETATM    7  C9  UNL     1      22.255   5.671  48.832  1.00  0.00     0.041 A 
HETATM    8  C10 UNL     1      22.615   6.918  49.303  1.00  0.00     0.020 A 
HETATM    9  C11 UNL     1      23.964   6.522  49.835  1.00  0.00     0.060 A 
HETATM   10  C12 UNL     1      24.919   5.443  50.027  1.00  0.00    -0.044 C 
HETATM   11  C13 UNL     1      25.879   5.387  49.074  1.00  0.00    -0.017 C 
HETATM   12  C14 UNL     1      27.011   4.400  48.978  1.00  0.00     0.054 C 
HETATM   13  C15 UNL     1      26.559   3.147  49.612  1.00  0.00    -0.024 C 
HETATM   14  C16 UNL     1      25.637   3.249  50.559  1.00  0.00     0.005 C 
HETATM   15  C17 UNL     1      24.902   4.482  51.154  1.00  0.00     0.173 C 
HETATM   16  O1  UNL     1      23.810   4.035  51.735  1.00  0.00    -0.374 OA
HETATM   17  C18 UNL     1      22.653   4.774  51.815  1.00  0.00     0.210 C 
HETATM   18  C19 UNL     1      22.431   5.200  50.369  1.00  0.00     0.118 C 
HETATM   19  C20 UNL     1      22.362   6.641  49.975  1.00  0.00     0.065 A 
HETATM   20  N1  UNL     1      22.461   7.618  51.166  1.00  0.00    -0.409 N 
HETATM   21  C21 UNL     1      22.482   8.328  49.723  1.00  0.00     0.128 C 
HETATM   22  O2  UNL     1      22.360   3.832  49.908  1.00  0.00    -0.370 OA
HETATM   23  C22 UNL     1      21.137   3.137  50.182  1.00  0.00     0.205 C 
HETATM   24  N2  UNL     1      22.434   3.885  47.658  1.00  0.00    -0.388 N 
HETATM   25  H21 UNL     1      22.459   7.578  52.155  1.00  0.00     0.154 HD
HETATM   26  H26 UNL     1      23.445   3.682  47.941  1.00  0.00     0.159 HD
ENDROOT
BRANCH   1  27
HETATM   27  C2  UNL     1      19.198   2.288  49.106  1.00  0.00     0.034 C 
HETATM   28  C1  UNL     1      19.262   1.050  49.952  1.00  0.00     0.010 C 
ENDBRANCH   1  27
TORSDOF 1
ENDMDL
MODEL 9
REMARK VINA RESULT:      -6.8      7.696     11.509
REMARK  1 active torsions:
REMARK  status: ('A' for Active; 'I' for Inactive)
REMARK    1  A    between atoms: C2_2  and  C3_3 
ROOT
HETATM    1  C3  UNL     1      22.292   2.838  47.967  1.00  0.00    -0.035 C 
HETATM    2  C4  UNL     1      22.181   3.768  47.069  1.00  0.00     0.009 C 
HETATM    3  C5  UNL     1      21.388   3.774  45.806  1.00  0.00     0.059 C 
HETATM    4  C6  UNL     1      20.579   5.086  46.154  1.00  0.00     0.031 C 
HETATM    5  C7  UNL     1      21.701   5.993  46.580  1.00  0.00     0.087 C 
HETATM    6  C8  UNL     1      21.488   6.894  47.704  1.00  0.00     0.037 A 
HETATM    7  C9  UNL     1      21.984   6.014  48.653  1.00  0.00     0.041 A 
HETATM    8  C10 UNL     1      21.676   7.085  49.467  1.00  0.00     0.020 A 
HETATM    9  C11 UNL     1      23.084   7.582  49.645  1.00  0.00     0.060 A 
HETATM   10  C12 UNL     1      24.487   7.377  49.327  1.00  0.00    -0.044 C 
HETATM   11  C13 UNL     1      24.928   8.129  48.291  1.00  0.00    -0.017 C 
HETATM   12  C14 UNL     1      26.317   8.159  47.712  1.00  0.00     0.054 C 
HETATM   13  C15 UNL     1      26.916   6.830  47.937  1.00  0.00    -0.024 C 
HETATM   14  C16 UNL     1      26.475   6.137  48.977  1.00  0.00     0.005 C 
HETATM   15  C17 UNL     1      25.399   6.461  50.051  1.00  0.00     0.173 C 
HETATM   16  O1  UNL     1      25.033   5.317  50.586  1.00  0.00    -0.374 OA
HETATM   17  C18 UNL     1      23.766   5.091  51.068  1.00  0.00     0.210 C 
HETATM   18  C19 UNL     1      22.886   5.514  49.898  1.00  0.00     0.118 C 
HETATM   19  C20 UNL     1      21.866   6.599  50.032  1.00  0.00     0.065 A 
HETATM   20  N1  UNL     1      21.752   7.175  51.459  1.00  0.00    -0.409 N 
HETATM   21  C21 UNL     1      20.888   7.964  50.357  1.00  0.00     0.128 C 
HETATM   22  O2  UNL     1      23.484   4.540  49.013  1.00  0.00    -0.370 OA
HETATM   23  C22 UNL     1      23.067   3.181  49.196  1.00  0.00     0.205 C 
HETATM   24  N2  UNL     1      22.783   5.020  46.927  1.00  0.00    -0.388 N 
HETATM   25  H21 UNL     1      22.093   6.970  52.367  1.00  0.00     0.154 HD
HETATM   26  H26 UNL     1      23.746   5.482  46.985  1.00  0.00     0.159 HD
ENDROOT
BRANCH   1  27
HETATM   27  C2  UNL     1      21.772   1.477  48.168  1.00  0.00     0.034 C 
HETATM   28  C1  UNL     1      21.552   1.101  49.604  1.00  0.00     0.010 C 
ENDBRANCH   1  27
TORSDOF 1
ENDMDL
