MODEL 1
REMARK VINA RESULT:      -7.6      0.000      0.000
REMARK  7 active torsions:
REMARK  status: ('A' for Active; 'I' for Inactive)
REMARK    1  A    between atoms: O1_2  and  C2_3 
REMARK    2  A    between atoms: C5_6  and  C6_7 
REMARK    3  A    between atoms: C9_10  and  C10_11 
REMARK    4  A    between atoms: C11_12  and  C12_13 
REMARK    5  A    between atoms: C13_14  and  N1_15 
REMARK    6  A    between atoms: N1_15  and  C14_16 
REMARK    7  A    between atoms: C14_16  and  N2_17 
ROOT
HETATM    1  C6  UNL     1      26.092   3.326  49.494  1.00  0.00     0.064 A 
HETATM    2  C7  UNL     1      24.618   3.301  49.587  1.00  0.00    -0.013 A 
HETATM    3  C8  UNL     1      24.278   2.865  50.788  1.00  0.00     0.008 A 
HETATM    4  C9  UNL     1      25.465   2.569  51.580  1.00  0.00    -0.039 A 
HETATM    5  C15 UNL     1      26.527   2.840  50.819  1.00  0.00    -0.002 A 
ENDROOT
BRANCH   4   6
HETATM    6  C10 UNL     1      25.285   2.080  52.924  1.00  0.00     0.011 C 
HETATM    7  C11 UNL     1      25.342   0.893  53.482  1.00  0.00     0.002 C 
BRANCH   7   8
HETATM    8  C12 UNL     1      25.622  -0.362  52.860  1.00  0.00     0.017 C 
HETATM    9  C13 UNL     1      26.623  -1.102  53.258  1.00  0.00     0.090 C 
BRANCH   9  10
HETATM   10  N1  UNL     1      27.205  -0.346  54.321  1.00  0.00    -0.344 N 
HETATM   11  H13 UNL     1      26.634  -0.023  55.139  1.00  0.00     0.167 HD
BRANCH  10  12
HETATM   12  C14 UNL     1      28.590   0.009  54.328  1.00  0.00     0.169 C 
HETATM   13  S1  UNL     1      29.722  -0.908  53.636  1.00  0.00    -0.041 SA
BRANCH  12  14
HETATM   14  N2  UNL     1      28.880   1.236  54.995  1.00  0.00    -0.376 N 
HETATM   15  H14 UNL     1      28.982   1.944  55.760  1.00  0.00     0.158 HD
HETATM   16  H15 UNL     1      29.236   1.984  54.330  1.00  0.00     0.158 HD
ENDBRANCH  12  14
ENDBRANCH  10  12
ENDBRANCH   9  10
ENDBRANCH   7   8
ENDBRANCH   4   6
BRANCH   1  17
HETATM   17  C5  UNL     1      26.585   4.697  49.205  1.00  0.00    -0.047 A 
HETATM   18  C4  UNL     1      25.790   5.772  49.570  1.00  0.00     0.011 A 
HETATM   19  C3  UNL     1      26.248   7.047  49.301  1.00  0.00     0.037 A 
HETATM   20  C2  UNL     1      27.470   7.215  48.683  1.00  0.00     0.068 A 
HETATM   21  C17 UNL     1      28.259   6.119  48.322  1.00  0.00     0.037 A 
HETATM   22  C16 UNL     1      27.811   4.821  48.586  1.00  0.00     0.011 A 
BRANCH  20  23
HETATM   23  O1  UNL     1      28.061   8.427  48.349  1.00  0.00    -0.356 OA
HETATM   24  C1  UNL     1      29.036   9.062  49.157  1.00  0.00     0.210 C 
ENDBRANCH  20  23
ENDBRANCH   1  17
TORSDOF 7
ENDMDL
MODEL 2
REMARK VINA RESULT:      -7.3      5.026      8.079
REMARK  7 active torsions:
REMARK  status: ('A' for Active; 'I' for Inactive)
REMARK    1  A    between atoms: O1_2  and  C2_3 
REMARK    2  A    between atoms: C5_6  and  C6_7 
REMARK    3  A    between atoms: C9_10  and  C10_11 
REMARK    4  A    between atoms: C11_12  and  C12_13 
REMARK    5  A    between atoms: C13_14  and  N1_15 
REMARK    6  A    between atoms: N1_15  and  C14_16 
REMARK    7  A    between atoms: C14_16  and  N2_17 
ROOT
HETATM    1  C6  UNL     1      25.189  -0.041  53.354  1.00  0.00     0.064 A 
HETATM    2  C7  UNL     1      25.700   0.956  54.317  1.00  0.00    -0.013 A 
HETATM    3  C8  UNL     1      26.331   1.905  53.646  1.00  0.00     0.008 A 
HETATM    4  C9  UNL     1      26.296   1.631  52.215  1.00  0.00    -0.039 A 
HETATM    5  C15 UNL     1      25.625   0.489  52.047  1.00  0.00    -0.002 A 
ENDROOT
BRANCH   4   6
HETATM    6  C10 UNL     1      26.938   2.564  51.324  1.00  0.00     0.011 C 
HETATM    7  C11 UNL     1      26.522   3.322  50.337  1.00  0.00     0.002 C 
BRANCH   7   8
HETATM    8  C12 UNL     1      25.196   3.447  49.819  1.00  0.00     0.017 C 
HETATM    9  C13 UNL     1      24.590   4.604  49.795  1.00  0.00     0.090 C 
BRANCH   9  10
HETATM   10  N1  UNL     1      25.546   5.503  50.360  1.00  0.00    -0.344 N 
HETATM   11  H13 UNL     1      26.519   5.189  50.595  1.00  0.00     0.167 HD
BRANCH  10  12
HETATM   12  C14 UNL     1      25.231   6.870  50.633  1.00  0.00     0.169 C 
HETATM   13  S1  UNL     1      25.749   8.080  49.700  1.00  0.00    -0.041 SA
BRANCH  12  14
HETATM   14  N2  UNL     1      24.427   7.069  51.794  1.00  0.00    -0.376 N 
HETATM   15  H14 UNL     1      24.149   7.322  52.772  1.00  0.00     0.158 HD
HETATM   16  H15 UNL     1      23.413   6.796  51.636  1.00  0.00     0.158 HD
ENDBRANCH  12  14
ENDBRANCH  10  12
ENDBRANCH   9  10
ENDBRANCH   7   8
ENDBRANCH   4   6
BRANCH   1  17
HETATM   17  C5  UNL     1      23.712  -0.165  53.449  1.00  0.00    -0.047 A 
HETATM   18  C4  UNL     1      23.180  -0.913  54.488  1.00  0.00     0.011 A 
HETATM   19  C3  UNL     1      21.807  -1.030  54.577  1.00  0.00     0.037 A 
HETATM   20  C2  UNL     1      21.010  -0.406  53.640  1.00  0.00     0.068 A 
HETATM   21  C17 UNL     1      21.563   0.345  52.598  1.00  0.00     0.037 A 
HETATM   22  C16 UNL     1      22.951   0.473  52.492  1.00  0.00     0.011 A 
BRANCH  20  23
HETATM   23  O1  UNL     1      19.621  -0.431  53.596  1.00  0.00    -0.356 OA
HETATM   24  C1  UNL     1      18.882  -0.295  52.396  1.00  0.00     0.210 C 
ENDBRANCH  20  23
ENDBRANCH   1  17
TORSDOF 7
ENDMDL
MODEL 3
REMARK VINA RESULT:      -7.3      4.611      7.466
REMARK  7 active torsions:
REMARK  status: ('A' for Active; 'I' for Inactive)
REMARK    1  A    between atoms: O1_2  and  C2_3 
REMARK    2  A    between atoms: C5_6  and  C6_7 
REMARK    3  A    between atoms: C9_10  and  C10_11 
REMARK    4  A    between atoms: C11_12  and  C12_13 
REMARK    5  A    between atoms: C13_14  and  N1_15 
REMARK    6  A    between atoms: N1_15  and  C14_16 
REMARK    7  A    between atoms: C14_16  and  N2_17 
ROOT
HETATM    1  C6  UNL     1      23.925   1.821  52.901  1.00  0.00     0.064 A 
HETATM    2  C7  UNL     1      23.561   1.635  51.481  1.00  0.00    -0.013 A 
HETATM    3  C8  UNL     1      23.511   2.821  50.899  1.00  0.00     0.008 A 
HETATM    4  C9  UNL     1      23.829   3.874  51.854  1.00  0.00    -0.039 A 
HETATM    5  C15 UNL     1      24.071   3.285  53.028  1.00  0.00    -0.002 A 
ENDROOT
BRANCH   4   6
HETATM    6  C10 UNL     1      23.822   5.240  51.394  1.00  0.00     0.011 C 
HETATM    7  C11 UNL     1      24.493   5.902  50.481  1.00  0.00     0.002 C 
BRANCH   7   8
HETATM    8  C12 UNL     1      25.511   5.412  49.605  1.00  0.00     0.017 C 
HETATM    9  C13 UNL     1      26.578   6.121  49.351  1.00  0.00     0.090 C 
BRANCH   9  10
HETATM   10  N1  UNL     1      26.386   7.313  50.114  1.00  0.00    -0.344 N 
HETATM   11  H13 UNL     1      25.798   7.318  50.982  1.00  0.00     0.167 HD
BRANCH  10  12
HETATM   12  C14 UNL     1      26.983   8.557  49.740  1.00  0.00     0.169 C 
HETATM   13  S1  UNL     1      26.948   9.111  48.225  1.00  0.00    -0.041 SA
BRANCH  12  14
HETATM   14  N2  UNL     1      27.605   9.259  50.813  1.00  0.00    -0.376 N 
HETATM   15  H14 UNL     1      27.779   9.647  51.771  1.00  0.00     0.158 HD
HETATM   16  H15 UNL     1      28.505   9.739  50.516  1.00  0.00     0.158 HD
ENDBRANCH  12  14
ENDBRANCH  10  12
ENDBRANCH   9  10
ENDBRANCH   7   8
ENDBRANCH   4   6
BRANCH   1  17
HETATM   17  C5  UNL     1      25.179   1.097  53.229  1.00  0.00    -0.047 A 
HETATM   18  C4  UNL     1      26.194   1.797  53.864  1.00  0.00     0.011 A 
HETATM   19  C3  UNL     1      27.362   1.125  54.170  1.00  0.00     0.037 A 
HETATM   20  C2  UNL     1      27.485  -0.209  53.840  1.00  0.00     0.068 A 
HETATM   21  C17 UNL     1      26.451  -0.899  53.200  1.00  0.00     0.037 A 
HETATM   22  C16 UNL     1      25.262  -0.234  52.882  1.00  0.00     0.011 A 
BRANCH  20  23
HETATM   23  O1  UNL     1      28.590  -1.016  54.081  1.00  0.00    -0.356 OA
HETATM   24  C1  UNL     1      29.843  -0.822  53.449  1.00  0.00     0.210 C 
ENDBRANCH  20  23
ENDBRANCH   1  17
TORSDOF 7
ENDMDL
MODEL 4
REMARK VINA RESULT:      -6.9      4.184      7.128
REMARK  7 active torsions:
REMARK  status: ('A' for Active; 'I' for Inactive)
REMARK    1  A    between atoms: O1_2  and  C2_3 
REMARK    2  A    between atoms: C5_6  and  C6_7 
REMARK    3  A    between atoms: C9_10  and  C10_11 
REMARK    4  A    between atoms: C11_12  and  C12_13 
REMARK    5  A    between atoms: C13_14  and  N1_15 
REMARK    6  A    between atoms: N1_15  and  C14_16 
REMARK    7  A    between atoms: C14_16  and  N2_17 
ROOT
HETATM    1  C6  UNL     1      23.503   1.909  52.538  1.00  0.00     0.064 A 
HETATM    2  C7  UNL     1      22.609   0.902  51.931  1.00  0.00    -0.013 A 
HETATM    3  C8  UNL     1      22.422   1.214  50.660  1.00  0.00     0.008 A 
HETATM    4  C9  UNL     1      23.158   2.425  50.317  1.00  0.00    -0.039 A 
HETATM    5  C15 UNL     1      23.790   2.830  51.421  1.00  0.00    -0.002 A 
ENDROOT
BRANCH   4   6
HETATM    6  C10 UNL     1      23.072   2.918  48.966  1.00  0.00     0.011 C 
HETATM    7  C11 UNL     1      22.816   4.090  48.432  1.00  0.00     0.002 C 
BRANCH   7   8
HETATM    8  C12 UNL     1      22.525   5.319  49.100  1.00  0.00     0.017 C 
HETATM    9  C13 UNL     1      23.454   6.218  49.289  1.00  0.00     0.090 C 
BRANCH   9  10
HETATM   10  N1  UNL     1      24.618   5.636  48.703  1.00  0.00    -0.344 N 
HETATM   11  H13 UNL     1      24.616   5.286  47.714  1.00  0.00     0.167 HD
BRANCH  10  12
HETATM   12  C14 UNL     1      25.843   5.499  49.426  1.00  0.00     0.169 C 
HETATM   13  S1  UNL     1      26.751   4.168  49.347  1.00  0.00    -0.041 SA
BRANCH  12  14
HETATM   14  N2  UNL     1      26.190   6.634  50.218  1.00  0.00    -0.376 N 
HETATM   15  H14 UNL     1      26.768   7.359  50.705  1.00  0.00     0.158 HD
HETATM   16  H15 UNL     1      25.337   7.124  50.618  1.00  0.00     0.158 HD
ENDBRANCH  12  14
ENDBRANCH  10  12
ENDBRANCH   9  10
ENDBRANCH   7   8
ENDBRANCH   4   6
BRANCH   1  17
HETATM   17  C5  UNL     1      24.732   1.274  53.078  1.00  0.00    -0.047 A 
HETATM   18  C4  UNL     1      25.773   2.097  53.481  1.00  0.00     0.011 A 
HETATM   19  C3  UNL     1      26.918   1.508  53.983  1.00  0.00     0.037 A 
HETATM   20  C2  UNL     1      26.994   0.133  54.068  1.00  0.00     0.068 A 
HETATM   21  C17 UNL     1      25.934  -0.681  53.657  1.00  0.00     0.037 A 
HETATM   22  C16 UNL     1      24.768  -0.102  53.146  1.00  0.00     0.011 A 
BRANCH  20  23
HETATM   23  O1  UNL     1      28.071  -0.601  54.548  1.00  0.00    -0.356 OA
HETATM   24  C1  UNL     1      29.224  -0.881  53.774  1.00  0.00     0.210 C 
ENDBRANCH  20  23
ENDBRANCH   1  17
TORSDOF 7
ENDMDL
MODEL 5
REMARK VINA RESULT:      -6.8      1.468      2.008
REMARK  7 active torsions:
REMARK  status: ('A' for Active; 'I' for Inactive)
REMARK    1  A    between atoms: O1_2  and  C2_3 
REMARK    2  A    between atoms: C5_6  and  C6_7 
REMARK    3  A    between atoms: C9_10  and  C10_11 
REMARK    4  A    between atoms: C11_12  and  C12_13 
REMARK    5  A    between atoms: C13_14  and  N1_15 
REMARK    6  A    between atoms: N1_15  and  C14_16 
REMARK    7  A    between atoms: C14_16  and  N2_17 
ROOT
HETATM    1  C6  UNL     1      24.485   4.646  49.438  1.00  0.00     0.064 A 
HETATM    2  C7  UNL     1      24.083   5.208  50.744  1.00  0.00    -0.013 A 
HETATM    3  C8  UNL     1      23.969   4.217  51.613  1.00  0.00     0.008 A 
HETATM    4  C9  UNL     1      24.278   2.942  50.978  1.00  0.00    -0.039 A 
HETATM    5  C15 UNL     1      24.580   3.197  49.703  1.00  0.00    -0.002 A 
ENDROOT
BRANCH   4   6
HETATM    6  C10 UNL     1      24.205   1.745  51.778  1.00  0.00     0.011 C 
HETATM    7  C11 UNL     1      24.856   1.305  52.829  1.00  0.00     0.002 C 
BRANCH   7   8
HETATM    8  C12 UNL     1      25.916   1.945  53.542  1.00  0.00     0.017 C 
HETATM    9  C13 UNL     1      26.975   1.277  53.916  1.00  0.00     0.090 C 
BRANCH   9  10
HETATM   10  N1  UNL     1      26.728  -0.048  53.443  1.00  0.00    -0.344 N 
HETATM   11  H13 UNL     1      25.763  -0.363  53.180  1.00  0.00     0.167 HD
BRANCH  10  12
HETATM   12  C14 UNL     1      27.775  -1.011  53.304  1.00  0.00     0.169 C 
HETATM   13  S1  UNL     1      29.315  -0.668  53.640  1.00  0.00    -0.041 SA
BRANCH  12  14
HETATM   14  N2  UNL     1      27.342  -2.291  52.847  1.00  0.00    -0.376 N 
HETATM   15  H14 UNL     1      26.775  -3.027  52.363  1.00  0.00     0.158 HD
HETATM   16  H15 UNL     1      27.969  -3.076  53.189  1.00  0.00     0.158 HD
ENDBRANCH  12  14
ENDBRANCH  10  12
ENDBRANCH   9  10
ENDBRANCH   7   8
ENDBRANCH   4   6
BRANCH   1  17
HETATM   17  C5  UNL     1      25.775   5.223  48.983  1.00  0.00    -0.047 A 
HETATM   18  C4  UNL     1      25.787   6.536  48.537  1.00  0.00     0.011 A 
HETATM   19  C3  UNL     1      26.986   7.073  48.113  1.00  0.00     0.037 A 
HETATM   20  C2  UNL     1      28.128   6.300  48.144  1.00  0.00     0.068 A 
HETATM   21  C17 UNL     1      28.097   4.977  48.597  1.00  0.00     0.037 A 
HETATM   22  C16 UNL     1      26.892   4.416  49.030  1.00  0.00     0.011 A 
BRANCH  20  23
HETATM   23  O1  UNL     1      29.400   6.697  47.754  1.00  0.00    -0.356 OA
HETATM   24  C1  UNL     1      30.581   6.034  48.170  1.00  0.00     0.210 C 
ENDBRANCH  20  23
ENDBRANCH   1  17
TORSDOF 7
ENDMDL
MODEL 6
REMARK VINA RESULT:      -6.6      6.493      8.550
REMARK  7 active torsions:
REMARK  status: ('A' for Active; 'I' for Inactive)
REMARK    1  A    between atoms: O1_2  and  C2_3 
REMARK    2  A    between atoms: C5_6  and  C6_7 
REMARK    3  A    between atoms: C9_10  and  C10_11 
REMARK    4  A    between atoms: C11_12  and  C12_13 
REMARK    5  A    between atoms: C13_14  and  N1_15 
REMARK    6  A    between atoms: N1_15  and  C14_16 
REMARK    7  A    between atoms: C14_16  and  N2_17 
ROOT
HETATM    1  C6  UNL     1      23.201   1.292  52.534  1.00  0.00     0.064 A 
HETATM    2  C7  UNL     1      22.081   0.366  52.795  1.00  0.00    -0.013 A 
HETATM    3  C8  UNL     1      21.383   0.221  51.681  1.00  0.00     0.008 A 
HETATM    4  C9  UNL     1      21.964   1.018  50.608  1.00  0.00    -0.039 A 
HETATM    5  C15 UNL     1      23.030   1.645  51.111  1.00  0.00    -0.002 A 
ENDROOT
BRANCH   4   6
HETATM    6  C10 UNL     1      21.332   0.984  49.313  1.00  0.00     0.011 C 
HETATM    7  C11 UNL     1      21.510   1.639  48.189  1.00  0.00     0.002 C 
BRANCH   7   8
HETATM    8  C12 UNL     1      22.466   2.662  47.906  1.00  0.00     0.017 C 
HETATM    9  C13 UNL     1      22.160   3.675  47.139  1.00  0.00     0.090 C 
BRANCH   9  10
HETATM   10  N1  UNL     1      20.803   3.427  46.771  1.00  0.00    -0.344 N 
HETATM   11  H13 UNL     1      20.227   2.700  47.260  1.00  0.00     0.167 HD
BRANCH  10  12
HETATM   12  C14 UNL     1      20.159   4.152  45.721  1.00  0.00     0.169 C 
HETATM   13  S1  UNL     1      20.550   3.956  44.168  1.00  0.00    -0.041 SA
BRANCH  12  14
HETATM   14  N2  UNL     1      19.148   5.056  46.163  1.00  0.00    -0.376 N 
HETATM   15  H14 UNL     1      18.567   5.924  46.247  1.00  0.00     0.158 HD
HETATM   16  H15 UNL     1      18.529   4.634  46.915  1.00  0.00     0.158 HD
ENDBRANCH  12  14
ENDBRANCH  10  12
ENDBRANCH   9  10
ENDBRANCH   7   8
ENDBRANCH   4   6
BRANCH   1  17
HETATM   17  C5  UNL     1      24.507   0.637  52.801  1.00  0.00    -0.047 A 
HETATM   18  C4  UNL     1      25.585   0.969  51.995  1.00  0.00     0.011 A 
HETATM   19  C3  UNL     1      26.801   0.361  52.242  1.00  0.00     0.037 A 
HETATM   20  C2  UNL     1      26.908  -0.551  53.271  1.00  0.00     0.068 A 
HETATM   21  C17 UNL     1      25.811  -0.874  54.074  1.00  0.00     0.037 A 
HETATM   22  C16 UNL     1      24.573  -0.268  53.839  1.00  0.00     0.011 A 
BRANCH  20  23
HETATM   23  O1  UNL     1      28.056  -1.241  53.640  1.00  0.00    -0.356 OA
HETATM   24  C1  UNL     1      29.342  -0.647  53.668  1.00  0.00     0.210 C 
ENDBRANCH  20  23
ENDBRANCH   1  17
TORSDOF 7
ENDMDL
MODEL 7
REMARK VINA RESULT:      -6.5      6.752      8.685
REMARK  7 active torsions:
REMARK  status: ('A' for Active; 'I' for Inactive)
REMARK    1  A    between atoms: O1_2  and  C2_3 
REMARK    2  A    between atoms: C5_6  and  C6_7 
REMARK    3  A    between atoms: C9_10  and  C10_11 
REMARK    4  A    between atoms: C11_12  and  C12_13 
REMARK    5  A    between atoms: C13_14  and  N1_15 
REMARK    6  A    between atoms: N1_15  and  C14_16 
REMARK    7  A    between atoms: C14_16  and  N2_17 
ROOT
HETATM    1  C6  UNL     1      22.868   1.789  51.156  1.00  0.00     0.064 A 
HETATM    2  C7  UNL     1      22.036   2.777  51.870  1.00  0.00    -0.013 A 
HETATM    3  C8  UNL     1      20.767   2.421  51.759  1.00  0.00     0.008 A 
HETATM    4  C9  UNL     1      20.647   1.194  50.981  1.00  0.00    -0.039 A 
HETATM    5  C15 UNL     1      21.881   0.826  50.629  1.00  0.00    -0.002 A 
ENDROOT
BRANCH   4   6
HETATM    6  C10 UNL     1      19.330   0.653  50.756  1.00  0.00     0.011 C 
HETATM    7  C11 UNL     1      18.506  -0.079  51.468  1.00  0.00     0.002 C 
BRANCH   7   8
HETATM    8  C12 UNL     1      18.699  -0.593  52.787  1.00  0.00     0.017 C 
HETATM    9  C13 UNL     1      17.766  -1.290  53.380  1.00  0.00     0.090 C 
BRANCH   9  10
HETATM   10  N1  UNL     1      16.710  -1.335  52.420  1.00  0.00    -0.344 N 
HETATM   11  H13 UNL     1      16.600  -0.588  51.693  1.00  0.00     0.167 HD
BRANCH  10  12
HETATM   12  C14 UNL     1      15.752  -2.396  52.396  1.00  0.00     0.169 C 
HETATM   13  S1  UNL     1      14.491  -2.400  51.391  1.00  0.00    -0.041 SA
BRANCH  12  14
HETATM   14  N2  UNL     1      16.008  -3.442  53.332  1.00  0.00    -0.376 N 
HETATM   15  H14 UNL     1      16.101  -3.951  54.242  1.00  0.00     0.158 HD
HETATM   16  H15 UNL     1      16.319  -4.340  52.860  1.00  0.00     0.158 HD
ENDBRANCH  12  14
ENDBRANCH  10  12
ENDBRANCH   9  10
ENDBRANCH   7   8
ENDBRANCH   4   6
BRANCH   1  17
HETATM   17  C5  UNL     1      23.845   1.150  52.075  1.00  0.00    -0.047 A 
HETATM   18  C4  UNL     1      23.372   0.240  53.007  1.00  0.00     0.011 A 
HETATM   19  C3  UNL     1      24.279  -0.354  53.863  1.00  0.00     0.037 A 
HETATM   20  C2  UNL     1      25.616  -0.029  53.768  1.00  0.00     0.068 A 
HETATM   21  C17 UNL     1      26.076   0.892  52.822  1.00  0.00     0.037 A 
HETATM   22  C16 UNL     1      25.172   1.503  51.948  1.00  0.00     0.011 A 
BRANCH  20  23
HETATM   23  O1  UNL     1      26.642  -0.539  54.553  1.00  0.00    -0.356 OA
HETATM   24  C1  UNL     1      27.865   0.143  54.769  1.00  0.00     0.210 C 
ENDBRANCH  20  23
ENDBRANCH   1  17
TORSDOF 7
ENDMDL
MODEL 8
REMARK VINA RESULT:      -6.5      6.907      8.734
REMARK  7 active torsions:
REMARK  status: ('A' for Active; 'I' for Inactive)
REMARK    1  A    between atoms: O1_2  and  C2_3 
REMARK    2  A    between atoms: C5_6  and  C6_7 
REMARK    3  A    between atoms: C9_10  and  C10_11 
REMARK    4  A    between atoms: C11_12  and  C12_13 
REMARK    5  A    between atoms: C13_14  and  N1_15 
REMARK    6  A    between atoms: N1_15  and  C14_16 
REMARK    7  A    between atoms: C14_16  and  N2_17 
ROOT
HETATM    1  C6  UNL     1      23.657   0.519  53.765  1.00  0.00     0.064 A 
HETATM    2  C7  UNL     1      23.003  -0.801  53.869  1.00  0.00    -0.013 A 
HETATM    3  C8  UNL     1      22.116  -0.912  52.895  1.00  0.00     0.008 A 
HETATM    4  C9  UNL     1      22.102   0.294  52.076  1.00  0.00    -0.039 A 
HETATM    5  C15 UNL     1      23.007   1.132  52.589  1.00  0.00    -0.002 A 
ENDROOT
BRANCH   4   6
HETATM    6  C10 UNL     1      21.192   0.354  50.961  1.00  0.00     0.011 C 
HETATM    7  C11 UNL     1      19.889   0.459  50.846  1.00  0.00     0.002 C 
BRANCH   7   8
HETATM    8  C12 UNL     1      18.916   0.554  51.889  1.00  0.00     0.017 C 
HETATM    9  C13 UNL     1      17.644   0.389  51.640  1.00  0.00     0.090 C 
BRANCH   9  10
HETATM   10  N1  UNL     1      17.602   0.133  50.235  1.00  0.00    -0.344 N 
HETATM   11  H13 UNL     1      18.477  -0.042  49.684  1.00  0.00     0.167 HD
BRANCH  10  12
HETATM   12  C14 UNL     1      16.372   0.099  49.509  1.00  0.00     0.169 C 
HETATM   13  S1  UNL     1      15.192   1.172  49.754  1.00  0.00    -0.041 SA
BRANCH  12  14
HETATM   14  N2  UNL     1      16.279  -0.957  48.555  1.00  0.00    -0.376 N 
HETATM   15  H14 UNL     1      16.058  -1.473  47.670  1.00  0.00     0.158 HD
HETATM   16  H15 UNL     1      16.693  -1.866  48.916  1.00  0.00     0.158 HD
ENDBRANCH  12  14
ENDBRANCH  10  12
ENDBRANCH   9  10
ENDBRANCH   7   8
ENDBRANCH   4   6
BRANCH   1  17
HETATM   17  C5  UNL     1      25.124   0.375  53.589  1.00  0.00    -0.047 A 
HETATM   18  C4  UNL     1      25.640   0.431  52.303  1.00  0.00     0.011 A 
HETATM   19  C3  UNL     1      27.005   0.297  52.138  1.00  0.00     0.037 A 
HETATM   20  C2  UNL     1      27.809   0.113  53.243  1.00  0.00     0.068 A 
HETATM   21  C17 UNL     1      27.272   0.059  54.533  1.00  0.00     0.037 A 
HETATM   22  C16 UNL     1      25.893   0.193  54.719  1.00  0.00     0.011 A 
BRANCH  20  23
HETATM   23  O1  UNL     1      29.190  -0.037  53.238  1.00  0.00    -0.356 OA
HETATM   24  C1  UNL     1      29.838  -1.261  53.535  1.00  0.00     0.210 C 
ENDBRANCH  20  23
ENDBRANCH   1  17
TORSDOF 7
ENDMDL
MODEL 9
REMARK VINA RESULT:      -6.5      6.852      8.749
REMARK  7 active torsions:
REMARK  status: ('A' for Active; 'I' for Inactive)
REMARK    1  A    between atoms: O1_2  and  C2_3 
REMARK    2  A    between atoms: C5_6  and  C6_7 
REMARK    3  A    between atoms: C9_10  and  C10_11 
REMARK    4  A    between atoms: C11_12  and  C12_13 
REMARK    5  A    between atoms: C13_14  and  N1_15 
REMARK    6  A    between atoms: N1_15  and  C14_16 
REMARK    7  A    between atoms: C14_16  and  N2_17 
ROOT
HETATM    1  C6  UNL     1      23.192   1.299  52.459  1.00  0.00     0.064 A 
HETATM    2  C7  UNL     1      22.070   0.371  52.705  1.00  0.00    -0.013 A 
HETATM    3  C8  UNL     1      21.393   0.219  51.579  1.00  0.00     0.008 A 
HETATM    4  C9  UNL     1      21.990   1.013  50.512  1.00  0.00    -0.039 A 
HETATM    5  C15 UNL     1      23.045   1.645  51.031  1.00  0.00    -0.002 A 
ENDROOT
BRANCH   4   6
HETATM    6  C10 UNL     1      21.382   0.971  49.206  1.00  0.00     0.011 C 
HETATM    7  C11 UNL     1      20.797   1.861  48.439  1.00  0.00     0.002 C 
BRANCH   7   8
HETATM    8  C12 UNL     1      20.577   3.248  48.705  1.00  0.00     0.017 C 
HETATM    9  C13 UNL     1      19.436   3.815  48.420  1.00  0.00     0.090 C 
BRANCH   9  10
HETATM   10  N1  UNL     1      18.657   2.756  47.862  1.00  0.00    -0.344 N 
HETATM   11  H13 UNL     1      19.029   2.152  47.090  1.00  0.00     0.167 HD
BRANCH  10  12
HETATM   12  C14 UNL     1      17.337   2.461  48.324  1.00  0.00     0.169 C 
HETATM   13  S1  UNL     1      16.072   3.405  47.987  1.00  0.00    -0.041 SA
BRANCH  12  14
HETATM   14  N2  UNL     1      17.237   1.271  49.103  1.00  0.00    -0.376 N 
HETATM   15  H14 UNL     1      16.959   0.611  49.868  1.00  0.00     0.158 HD
HETATM   16  H15 UNL     1      17.800   0.470  48.692  1.00  0.00     0.158 HD
ENDBRANCH  12  14
ENDBRANCH  10  12
ENDBRANCH   9  10
ENDBRANCH   7   8
ENDBRANCH   4   6
BRANCH   1  17
HETATM   17  C5  UNL     1      24.495   0.649  52.752  1.00  0.00    -0.047 A 
HETATM   18  C4  UNL     1      25.581   0.964  51.950  1.00  0.00     0.011 A 
HETATM   19  C3  UNL     1      26.794   0.360  52.221  1.00  0.00     0.037 A 
HETATM   20  C2  UNL     1      26.891  -0.529  53.270  1.00  0.00     0.068 A 
HETATM   21  C17 UNL     1      25.785  -0.836  54.069  1.00  0.00     0.037 A 
HETATM   22  C16 UNL     1      24.549  -0.234  53.809  1.00  0.00     0.011 A 
BRANCH  20  23
HETATM   23  O1  UNL     1      28.034  -1.212  53.665  1.00  0.00    -0.356 OA
HETATM   24  C1  UNL     1      29.318  -0.615  53.706  1.00  0.00     0.210 C 
ENDBRANCH  20  23
ENDBRANCH   1  17
TORSDOF 7
ENDMDL
