MODEL 1
REMARK VINA RESULT:      -8.5      0.000      0.000
REMARK  4 active torsions:
REMARK  status: ('A' for Active; 'I' for Inactive)
REMARK    1  A    between atoms: P1_20  and  N4_21 
REMARK       I    between atoms: N4_21  and  C16_22 
REMARK    2  A    between atoms: C16_22  and  C17_24 
REMARK    3  A    between atoms: C18_25  and  C19_26 
REMARK    4  A    between atoms: C19_26  and  N5_27 
ROOT
HETATM    1  C1  UNL     1      19.476   3.275  50.734  1.00  0.00     0.051 C 
HETATM    2  C2  UNL     1      20.801   3.174  51.394  1.00  0.00    -0.033 C 
HETATM    3  C3  UNL     1      21.189   4.234  52.040  1.00  0.00     0.009 C 
HETATM    4  C4  UNL     1      22.465   4.815  52.332  1.00  0.00    -0.000 C 
HETATM    5  C5  UNL     1      23.697   4.400  52.272  1.00  0.00     0.025 C 
HETATM    6  C6  UNL     1      24.553   3.246  52.144  1.00  0.00     0.243 A 
HETATM    7  N1  UNL     1      25.368   2.970  53.362  1.00  0.00     0.112 NA
HETATM    8  C7  UNL     1      25.959   1.773  53.069  1.00  0.00     0.323 C 
HETATM    9  C8  UNL     1      26.755   0.882  53.862  1.00  0.00     0.068 C 
HETATM   10  C9  UNL     1      28.066   1.137  54.386  1.00  0.00     0.098 C 
HETATM   11  N2  UNL     1      29.124   1.356  54.822  1.00  0.00    -0.192 NA
HETATM   12  C10 UNL     1      26.175  -0.333  54.135  1.00  0.00     0.136 C 
HETATM   13  N3  UNL     1      24.993  -0.035  53.444  1.00  0.00    -0.272 NA
HETATM   14  C11 UNL     1      23.861  -0.536  53.382  1.00  0.00     0.117 C 
HETATM   15  C12 UNL     1      22.871   0.110  52.512  1.00  0.00     0.034 C 
HETATM   16  C13 UNL     1      22.995   1.153  51.764  1.00  0.00     0.005 C 
HETATM   17  C14 UNL     1      24.089   2.094  51.459  1.00  0.00     0.024 A 
HETATM   18  C15 UNL     1      25.151   2.775  50.915  1.00  0.00     0.069 A 
HETATM   19 CL1  UNL     1      26.343   2.928  49.648  1.00  0.00    -0.085 Cl
HETATM   20  P1  UNL     1      21.370   1.490  50.997  1.00  0.00     0.050 P 
HETATM   21  H7  UNL     1      24.800   3.067  54.208  1.00  0.00     0.318 HD
ENDROOT
BRANCH  20  22
HETATM   22  N4  UNL     1      20.152   0.253  51.391  1.00  0.00    -0.325 N 
HETATM   23  C16 UNL     1      19.668   0.205  52.724  1.00  0.00     0.244 C 
HETATM   24  O1  UNL     1      20.040   0.975  53.645  1.00  0.00    -0.268 OA
HETATM   25  H13 UNL     1      19.811  -0.413  50.652  1.00  0.00     0.168 HD
BRANCH  23  26
HETATM   26  C17 UNL     1      18.671  -0.813  53.030  1.00  0.00     0.072 C 
HETATM   27  C18 UNL     1      17.521  -0.871  52.376  1.00  0.00     0.008 C 
BRANCH  27  28
HETATM   28  C19 UNL     1      16.327  -1.716  52.404  1.00  0.00     0.299 C 
BRANCH  28  29
HETATM   29  N5  UNL     1      15.105  -1.028  52.082  1.00  0.00     0.083 N 
HETATM   30  C20 UNL     1      13.939  -1.856  52.343  1.00  0.00     0.309 C 
HETATM   31  C21 UNL     1      14.984   0.132  52.913  1.00  0.00     0.309 C 
ENDBRANCH  28  29
ENDBRANCH  27  28
ENDBRANCH  23  26
ENDBRANCH  20  22
TORSDOF 4
ENDMDL
MODEL 2
REMARK VINA RESULT:      -8.5      2.590      8.188
REMARK  4 active torsions:
REMARK  status: ('A' for Active; 'I' for Inactive)
REMARK    1  A    between atoms: P1_20  and  N4_21 
REMARK       I    between atoms: N4_21  and  C16_22 
REMARK    2  A    between atoms: C16_22  and  C17_24 
REMARK    3  A    between atoms: C18_25  and  C19_26 
REMARK    4  A    between atoms: C19_26  and  N5_27 
ROOT
HETATM    1  C1  UNL     1      24.260   3.240  49.455  1.00  0.00     0.051 C 
HETATM    2  C2  UNL     1      22.979   2.522  49.666  1.00  0.00    -0.033 C 
HETATM    3  C3  UNL     1      22.351   2.164  48.586  1.00  0.00     0.009 C 
HETATM    4  C4  UNL     1      20.971   1.982  48.244  1.00  0.00    -0.000 C 
HETATM    5  C5  UNL     1      19.865   1.879  48.923  1.00  0.00     0.025 C 
HETATM    6  C6  UNL     1      19.293   1.661  50.228  1.00  0.00     0.243 A 
HETATM    7  N1  UNL     1      18.537   0.381  50.343  1.00  0.00     0.112 NA
HETATM    8  C7  UNL     1      18.236   0.322  51.674  1.00  0.00     0.323 C 
HETATM    9  C8  UNL     1      17.645  -0.711  52.474  1.00  0.00     0.068 C 
HETATM   10  C9  UNL     1      16.301  -1.204  52.386  1.00  0.00     0.098 C 
HETATM   11  N2  UNL     1      15.212  -1.610  52.298  1.00  0.00    -0.192 NA
HETATM   12  C10 UNL     1      18.477  -1.271  53.413  1.00  0.00     0.136 C 
HETATM   13  N3  UNL     1      19.575  -0.477  53.056  1.00  0.00    -0.272 NA
HETATM   14  C11 UNL     1      20.792  -0.503  53.292  1.00  0.00     0.117 C 
HETATM   15  C12 UNL     1      21.629   0.548  52.700  1.00  0.00     0.034 C 
HETATM   16  C13 UNL     1      21.288   1.539  51.949  1.00  0.00     0.005 C 
HETATM   17  C14 UNL     1      20.016   2.036  51.390  1.00  0.00     0.024 A 
HETATM   18  C15 UNL     1      18.839   2.695  51.131  1.00  0.00     0.069 A 
HETATM   19 CL1  UNL     1      17.668   3.907  51.589  1.00  0.00    -0.085 Cl
HETATM   20  P1  UNL     1      22.810   2.435  51.478  1.00  0.00     0.050 P 
HETATM   21  H7  UNL     1      19.052  -0.385  49.900  1.00  0.00     0.318 HD
ENDROOT
BRANCH  20  22
HETATM   22  N4  UNL     1      24.267   1.780  52.263  1.00  0.00    -0.325 N 
HETATM   23  C16 UNL     1      24.884   2.567  53.270  1.00  0.00     0.244 C 
HETATM   24  O1  UNL     1      24.473   3.695  53.644  1.00  0.00    -0.268 OA
HETATM   25  H13 UNL     1      24.647   0.841  51.982  1.00  0.00     0.168 HD
BRANCH  23  26
HETATM   26  C17 UNL     1      26.075   2.017  53.903  1.00  0.00     0.072 C 
HETATM   27  C18 UNL     1      27.130   1.651  53.190  1.00  0.00     0.008 C 
BRANCH  27  28
HETATM   28  C19 UNL     1      28.449   1.083  53.464  1.00  0.00     0.299 C 
BRANCH  28  29
HETATM   29  N5  UNL     1      28.432  -0.309  53.831  1.00  0.00     0.083 N 
HETATM   30  C20 UNL     1      27.564  -1.083  52.959  1.00  0.00     0.309 C 
HETATM   31  C21 UNL     1      29.750  -0.850  53.690  1.00  0.00     0.309 C 
ENDBRANCH  28  29
ENDBRANCH  27  28
ENDBRANCH  23  26
ENDBRANCH  20  22
TORSDOF 4
ENDMDL
MODEL 3
REMARK VINA RESULT:      -8.4      4.023      7.534
REMARK  4 active torsions:
REMARK  status: ('A' for Active; 'I' for Inactive)
REMARK    1  A    between atoms: P1_20  and  N4_21 
REMARK       I    between atoms: N4_21  and  C16_22 
REMARK    2  A    between atoms: C16_22  and  C17_24 
REMARK    3  A    between atoms: C18_25  and  C19_26 
REMARK    4  A    between atoms: C19_26  and  N5_27 
ROOT
HETATM    1  C1  UNL     1      21.106   3.055  51.911  1.00  0.00     0.051 C 
HETATM    2  C2  UNL     1      22.051   4.052  51.350  1.00  0.00    -0.033 C 
HETATM    3  C3  UNL     1      21.908   5.268  51.786  1.00  0.00     0.009 C 
HETATM    4  C4  UNL     1      22.137   6.566  51.222  1.00  0.00    -0.000 C 
HETATM    5  C5  UNL     1      22.777   7.013  50.181  1.00  0.00     0.025 C 
HETATM    6  C6  UNL     1      23.739   6.694  49.156  1.00  0.00     0.243 A 
HETATM    7  N1  UNL     1      25.007   7.470  49.264  1.00  0.00     0.112 NA
HETATM    8  C7  UNL     1      25.800   6.895  48.311  1.00  0.00     0.323 C 
HETATM    9  C8  UNL     1      27.186   7.073  47.988  1.00  0.00     0.068 C 
HETATM   10  C9  UNL     1      27.799   8.254  47.454  1.00  0.00     0.098 C 
HETATM   11  N2  UNL     1      28.294   9.223  47.034  1.00  0.00    -0.192 NA
HETATM   12  C10 UNL     1      27.986   5.983  48.229  1.00  0.00     0.136 C 
HETATM   13  N3  UNL     1      26.936   5.197  48.724  1.00  0.00    -0.272 NA
HETATM   14  C11 UNL     1      26.856   4.133  49.353  1.00  0.00     0.117 C 
HETATM   15  C12 UNL     1      25.518   3.637  49.696  1.00  0.00     0.034 C 
HETATM   16  C13 UNL     1      24.363   4.147  49.431  1.00  0.00     0.005 C 
HETATM   17  C14 UNL     1      23.892   5.352  48.722  1.00  0.00     0.024 A 
HETATM   18  C15 UNL     1      23.424   6.266  47.811  1.00  0.00     0.069 A 
HETATM   19 CL1  UNL     1      22.862   6.619  46.195  1.00  0.00    -0.085 Cl
HETATM   20  P1  UNL     1      23.091   3.088  50.207  1.00  0.00     0.050 P 
HETATM   21  H7  UNL     1      25.325   7.511  50.237  1.00  0.00     0.318 HD
ENDROOT
BRANCH  20  22
HETATM   22  N4  UNL     1      23.777   1.636  50.976  1.00  0.00    -0.325 N 
HETATM   23  C16 UNL     1      24.418   1.796  52.232  1.00  0.00     0.244 C 
HETATM   24  O1  UNL     1      24.533   2.891  52.838  1.00  0.00    -0.268 OA
HETATM   25  H13 UNL     1      23.704   0.699  50.506  1.00  0.00     0.168 HD
BRANCH  23  26
HETATM   26  C17 UNL     1      24.974   0.599  52.849  1.00  0.00     0.072 C 
HETATM   27  C18 UNL     1      26.224   0.223  52.623  1.00  0.00     0.008 C 
BRANCH  27  28
HETATM   28  C19 UNL     1      27.095  -0.872  53.048  1.00  0.00     0.299 C 
BRANCH  28  29
HETATM   29  N5  UNL     1      28.433  -0.469  53.390  1.00  0.00     0.083 N 
HETATM   30  C20 UNL     1      28.498   0.086  54.733  1.00  0.00     0.309 C 
HETATM   31  C21 UNL     1      29.290  -1.616  53.375  1.00  0.00     0.309 C 
ENDBRANCH  28  29
ENDBRANCH  27  28
ENDBRANCH  23  26
ENDBRANCH  20  22
TORSDOF 4
ENDMDL
MODEL 4
REMARK VINA RESULT:      -8.0      6.825      9.395
REMARK  4 active torsions:
REMARK  status: ('A' for Active; 'I' for Inactive)
REMARK    1  A    between atoms: P1_20  and  N4_21 
REMARK       I    between atoms: N4_21  and  C16_22 
REMARK    2  A    between atoms: C16_22  and  C17_24 
REMARK    3  A    between atoms: C18_25  and  C19_26 
REMARK    4  A    between atoms: C19_26  and  N5_27 
ROOT
HETATM    1  C1  UNL     1      24.810   7.380  50.592  1.00  0.00     0.051 C 
HETATM    2  C2  UNL     1      26.083   7.727  49.915  1.00  0.00    -0.033 C 
HETATM    3  C3  UNL     1      26.543   8.919  50.158  1.00  0.00     0.009 C 
HETATM    4  C4  UNL     1      27.324   9.861  49.413  1.00  0.00    -0.000 C 
HETATM    5  C5  UNL     1      28.050   9.800  48.335  1.00  0.00     0.025 C 
HETATM    6  C6  UNL     1      28.705   8.923  47.396  1.00  0.00     0.243 A 
HETATM    7  N1  UNL     1      30.192   9.024  47.423  1.00  0.00     0.112 NA
HETATM    8  C7  UNL     1      30.581   8.013  46.589  1.00  0.00     0.323 C 
HETATM    9  C8  UNL     1      31.874   7.474  46.282  1.00  0.00     0.068 C 
HETATM   10  C9  UNL     1      32.942   8.140  45.594  1.00  0.00     0.098 C 
HETATM   11  N2  UNL     1      33.811   8.693  45.048  1.00  0.00    -0.192 NA
HETATM   12  C10 UNL     1      32.085   6.185  46.706  1.00  0.00     0.136 C 
HETATM   13  N3  UNL     1      30.814   6.062  47.284  1.00  0.00    -0.272 NA
HETATM   14  C11 UNL     1      30.276   5.263  48.064  1.00  0.00     0.117 C 
HETATM   15  C12 UNL     1      28.878   5.505  48.439  1.00  0.00     0.034 C 
HETATM   16  C13 UNL     1      28.083   6.450  48.069  1.00  0.00     0.005 C 
HETATM   17  C14 UNL     1      28.196   7.618  47.174  1.00  0.00     0.024 A 
HETATM   18  C15 UNL     1      28.166   8.501  46.123  1.00  0.00     0.069 A 
HETATM   19 CL1  UNL     1      27.760   8.836  44.457  1.00  0.00    -0.085 Cl
HETATM   20  P1  UNL     1      26.501   6.234  48.959  1.00  0.00     0.050 P 
HETATM   21  H7  UNL     1      30.536   9.053  48.387  1.00  0.00     0.318 HD
ENDROOT
BRANCH  20  22
HETATM   22  N4  UNL     1      26.467   4.759  49.956  1.00  0.00    -0.325 N 
HETATM   23  C16 UNL     1      25.339   3.907  49.835  1.00  0.00     0.244 C 
HETATM   24  O1  UNL     1      24.363   4.122  49.072  1.00  0.00    -0.268 OA
HETATM   25  H13 UNL     1      27.261   4.539  50.609  1.00  0.00     0.168 HD
BRANCH  23  26
HETATM   26  C17 UNL     1      25.326   2.705  50.657  1.00  0.00     0.072 C 
HETATM   27  C18 UNL     1      26.420   2.275  51.268  1.00  0.00     0.008 C 
BRANCH  27  28
HETATM   28  C19 UNL     1      26.776   1.156  52.141  1.00  0.00     0.299 C 
BRANCH  28  29
HETATM   29  N5  UNL     1      26.002   1.078  53.351  1.00  0.00     0.083 N 
HETATM   30  C20 UNL     1      24.909   0.128  53.228  1.00  0.00     0.309 C 
HETATM   31  C21 UNL     1      26.839   0.611  54.416  1.00  0.00     0.309 C 
ENDBRANCH  28  29
ENDBRANCH  27  28
ENDBRANCH  23  26
ENDBRANCH  20  22
TORSDOF 4
ENDMDL
MODEL 5
REMARK VINA RESULT:      -7.9      4.478      6.362
REMARK  4 active torsions:
REMARK  status: ('A' for Active; 'I' for Inactive)
REMARK    1  A    between atoms: P1_20  and  N4_21 
REMARK       I    between atoms: N4_21  and  C16_22 
REMARK    2  A    between atoms: C16_22  and  C17_24 
REMARK    3  A    between atoms: C18_25  and  C19_26 
REMARK    4  A    between atoms: C19_26  and  N5_27 
ROOT
HETATM    1  C1  UNL     1      20.838   4.461  51.131  1.00  0.00     0.051 C 
HETATM    2  C2  UNL     1      22.005   5.258  50.680  1.00  0.00    -0.033 C 
HETATM    3  C3  UNL     1      22.049   6.484  51.111  1.00  0.00     0.009 C 
HETATM    4  C4  UNL     1      22.573   7.710  50.588  1.00  0.00    -0.000 C 
HETATM    5  C5  UNL     1      23.388   8.020  49.621  1.00  0.00     0.025 C 
HETATM    6  C6  UNL     1      24.371   7.517  48.694  1.00  0.00     0.243 A 
HETATM    7  N1  UNL     1      25.745   8.042  48.938  1.00  0.00     0.112 NA
HETATM    8  C7  UNL     1      26.508   7.320  48.064  1.00  0.00     0.323 C 
HETATM    9  C8  UNL     1      27.928   7.232  47.884  1.00  0.00     0.068 C 
HETATM   10  C9  UNL     1      28.803   8.273  47.427  1.00  0.00     0.098 C 
HETATM   11  N2  UNL     1      29.510   9.127  47.069  1.00  0.00    -0.192 NA
HETATM   12  C10 UNL     1      28.481   6.013  48.193  1.00  0.00     0.136 C 
HETATM   13  N3  UNL     1      27.258   5.443  48.571  1.00  0.00    -0.272 NA
HETATM   14  C11 UNL     1      26.916   4.418  49.178  1.00  0.00     0.117 C 
HETATM   15  C12 UNL     1      25.480   4.185  49.379  1.00  0.00     0.034 C 
HETATM   16  C13 UNL     1      24.475   4.901  49.004  1.00  0.00     0.005 C 
HETATM   17  C14 UNL     1      24.313   6.167  48.265  1.00  0.00     0.024 A 
HETATM   18  C15 UNL     1      24.119   7.145  47.320  1.00  0.00     0.069 A 
HETATM   19 CL1  UNL     1      23.800   7.583  45.660  1.00  0.00    -0.085 Cl
HETATM   20  P1  UNL     1      22.955   4.106  49.637  1.00  0.00     0.050 P 
HETATM   21  H7  UNL     1      25.965   8.032  49.938  1.00  0.00     0.318 HD
ENDROOT
BRANCH  20  22
HETATM   22  N4  UNL     1      23.275   2.558  50.456  1.00  0.00    -0.325 N 
HETATM   23  C16 UNL     1      23.799   2.606  51.774  1.00  0.00     0.244 C 
HETATM   24  O1  UNL     1      24.052   3.665  52.401  1.00  0.00    -0.268 OA
HETATM   25  H13 UNL     1      23.079   1.647  49.969  1.00  0.00     0.168 HD
BRANCH  23  26
HETATM   26  C17 UNL     1      24.056   1.331  52.430  1.00  0.00     0.072 C 
HETATM   27  C18 UNL     1      23.090   0.663  53.043  1.00  0.00     0.008 C 
BRANCH  27  28
HETATM   28  C19 UNL     1      22.973  -0.595  53.780  1.00  0.00     0.299 C 
BRANCH  28  29
HETATM   29  N5  UNL     1      21.814  -0.681  54.628  1.00  0.00     0.083 N 
HETATM   30  C20 UNL     1      20.845   0.359  54.319  1.00  0.00     0.309 C 
HETATM   31  C21 UNL     1      21.159  -1.935  54.405  1.00  0.00     0.309 C 
ENDBRANCH  28  29
ENDBRANCH  27  28
ENDBRANCH  23  26
ENDBRANCH  20  22
TORSDOF 4
ENDMDL
MODEL 6
REMARK VINA RESULT:      -7.9      1.732      2.082
REMARK  4 active torsions:
REMARK  status: ('A' for Active; 'I' for Inactive)
REMARK    1  A    between atoms: P1_20  and  N4_21 
REMARK       I    between atoms: N4_21  and  C16_22 
REMARK    2  A    between atoms: C16_22  and  C17_24 
REMARK    3  A    between atoms: C18_25  and  C19_26 
REMARK    4  A    between atoms: C19_26  and  N5_27 
ROOT
HETATM    1  C1  UNL     1      19.857   5.214  49.513  1.00  0.00     0.051 C 
HETATM    2  C2  UNL     1      20.974   4.737  50.365  1.00  0.00    -0.033 C 
HETATM    3  C3  UNL     1      21.537   5.641  51.112  1.00  0.00     0.009 C 
HETATM    4  C4  UNL     1      22.860   5.832  51.625  1.00  0.00    -0.000 C 
HETATM    5  C5  UNL     1      23.917   5.080  51.738  1.00  0.00     0.025 C 
HETATM    6  C6  UNL     1      24.419   3.729  51.692  1.00  0.00     0.243 A 
HETATM    7  N1  UNL     1      24.915   3.231  53.007  1.00  0.00     0.112 NA
HETATM    8  C7  UNL     1      25.181   1.915  52.754  1.00  0.00     0.323 C 
HETATM    9  C8  UNL     1      25.553   0.834  53.620  1.00  0.00     0.068 C 
HETATM   10  C9  UNL     1      26.779   0.701  54.353  1.00  0.00     0.098 C 
HETATM   11  N2  UNL     1      27.771   0.607  54.957  1.00  0.00    -0.192 NA
HETATM   12  C10 UNL     1      24.616  -0.164  53.743  1.00  0.00     0.136 C 
HETATM   13  N3  UNL     1      23.695   0.461  52.892  1.00  0.00    -0.272 NA
HETATM   14  C11 UNL     1      22.493   0.306  52.632  1.00  0.00     0.117 C 
HETATM   15  C12 UNL     1      21.881   1.208  51.649  1.00  0.00     0.034 C 
HETATM   16  C13 UNL     1      22.415   2.171  50.978  1.00  0.00     0.005 C 
HETATM   17  C14 UNL     1      23.765   2.758  50.891  1.00  0.00     0.024 A 
HETATM   18  C15 UNL     1      25.050   3.105  50.550  1.00  0.00     0.069 A 
HETATM   19 CL1  UNL     1      26.426   2.909  49.491  1.00  0.00    -0.085 Cl
HETATM   20  P1  UNL     1      21.099   2.960  49.985  1.00  0.00     0.050 P 
HETATM   21  H7  UNL     1      24.268   3.487  53.758  1.00  0.00     0.318 HD
ENDROOT
BRANCH  20  22
HETATM   22  N4  UNL     1      19.533   2.125  50.127  1.00  0.00    -0.325 N 
HETATM   23  C16 UNL     1      18.756   2.375  51.288  1.00  0.00     0.244 C 
HETATM   24  O1  UNL     1      19.097   3.145  52.221  1.00  0.00    -0.268 OA
HETATM   25  H13 UNL     1      19.206   1.472  49.371  1.00  0.00     0.168 HD
BRANCH  23  26
HETATM   26  C17 UNL     1      17.477   1.685  51.390  1.00  0.00     0.072 C 
HETATM   27  C18 UNL     1      16.340   2.352  51.519  1.00  0.00     0.008 C 
BRANCH  27  28
HETATM   28  C19 UNL     1      14.922   2.017  51.644  1.00  0.00     0.299 C 
BRANCH  28  29
HETATM   29  N5  UNL     1      14.511   1.664  52.977  1.00  0.00     0.083 N 
HETATM   30  C20 UNL     1      13.191   2.189  53.288  1.00  0.00     0.309 C 
HETATM   31  C21 UNL     1      14.424   0.239  53.082  1.00  0.00     0.309 C 
ENDBRANCH  28  29
ENDBRANCH  27  28
ENDBRANCH  23  26
ENDBRANCH  20  22
TORSDOF 4
ENDMDL
MODEL 7
REMARK VINA RESULT:      -7.6      3.495      9.644
REMARK  4 active torsions:
REMARK  status: ('A' for Active; 'I' for Inactive)
REMARK    1  A    between atoms: P1_20  and  N4_21 
REMARK       I    between atoms: N4_21  and  C16_22 
REMARK    2  A    between atoms: C16_22  and  C17_24 
REMARK    3  A    between atoms: C18_25  and  C19_26 
REMARK    4  A    between atoms: C19_26  and  N5_27 
ROOT
HETATM    1  C1  UNL     1      20.159   1.225  51.358  1.00  0.00     0.051 C 
HETATM    2  C2  UNL     1      18.967   0.344  51.304  1.00  0.00    -0.033 C 
HETATM    3  C3  UNL     1      18.346   0.308  50.162  1.00  0.00     0.009 C 
HETATM    4  C4  UNL     1      16.983   0.106  49.770  1.00  0.00    -0.000 C 
HETATM    5  C5  UNL     1      15.915  -0.341  50.366  1.00  0.00     0.025 C 
HETATM    6  C6  UNL     1      15.409  -1.049  51.515  1.00  0.00     0.243 A 
HETATM    7  N1  UNL     1      14.794  -2.366  51.181  1.00  0.00     0.112 NA
HETATM    8  C7  UNL     1      14.541  -2.906  52.411  1.00  0.00     0.323 C 
HETATM    9  C8  UNL     1      14.085  -4.207  52.807  1.00  0.00     0.068 C 
HETATM   10  C9  UNL     1      12.797  -4.782  52.547  1.00  0.00     0.098 C 
HETATM   11  N2  UNL     1      11.754  -5.250  52.318  1.00  0.00    -0.192 NA
HETATM   12  C10 UNL     1      14.999  -4.959  53.503  1.00  0.00     0.136 C 
HETATM   13  N3  UNL     1      15.998  -3.977  53.446  1.00  0.00    -0.272 NA
HETATM   14  C11 UNL     1      17.217  -3.950  53.667  1.00  0.00     0.117 C 
HETATM   15  C12 UNL     1      17.922  -2.677  53.474  1.00  0.00     0.034 C 
HETATM   16  C13 UNL     1      17.458  -1.532  53.104  1.00  0.00     0.005 C 
HETATM   17  C14 UNL     1      16.125  -1.015  52.739  1.00  0.00     0.024 A 
HETATM   18  C15 UNL     1      14.878  -0.438  52.713  1.00  0.00     0.069 A 
HETATM   19 CL1  UNL     1      13.602   0.412  53.550  1.00  0.00    -0.085 Cl
HETATM   20  P1  UNL     1      18.864  -0.371  52.976  1.00  0.00     0.050 P 
HETATM   21  H7  UNL     1      15.372  -2.876  50.507  1.00  0.00     0.318 HD
ENDROOT
BRANCH  20  22
HETATM   22  N4  UNL     1      20.404  -1.093  53.501  1.00  0.00    -0.325 N 
HETATM   23  C16 UNL     1      21.137  -0.419  54.512  1.00  0.00     0.244 C 
HETATM   24  O1  UNL     1      20.773   0.650  55.063  1.00  0.00    -0.268 OA
HETATM   25  H13 UNL     1      20.748  -1.987  53.068  1.00  0.00     0.168 HD
BRANCH  23  26
HETATM   26  C17 UNL     1      22.395  -1.023  54.930  1.00  0.00     0.072 C 
HETATM   27  C18 UNL     1      23.551  -0.649  54.400  1.00  0.00     0.008 C 
BRANCH  27  28
HETATM   28  C19 UNL     1      24.958  -1.012  54.562  1.00  0.00     0.299 C 
BRANCH  28  29
HETATM   29  N5  UNL     1      25.852  -0.341  53.656  1.00  0.00     0.083 N 
HETATM   30  C20 UNL     1      26.607  -1.286  52.849  1.00  0.00     0.309 C 
HETATM   31  C21 UNL     1      25.088   0.460  52.748  1.00  0.00     0.309 C 
ENDBRANCH  28  29
ENDBRANCH  27  28
ENDBRANCH  23  26
ENDBRANCH  20  22
TORSDOF 4
ENDMDL
MODEL 8
REMARK VINA RESULT:      -7.6      3.516      7.486
REMARK  4 active torsions:
REMARK  status: ('A' for Active; 'I' for Inactive)
REMARK    1  A    between atoms: P1_20  and  N4_21 
REMARK       I    between atoms: N4_21  and  C16_22 
REMARK    2  A    between atoms: C16_22  and  C17_24 
REMARK    3  A    between atoms: C18_25  and  C19_26 
REMARK    4  A    between atoms: C19_26  and  N5_27 
ROOT
HETATM    1  C1  UNL     1      21.091   1.004  53.212  1.00  0.00     0.051 C 
HETATM    2  C2  UNL     1      21.423   2.161  52.346  1.00  0.00    -0.033 C 
HETATM    3  C3  UNL     1      20.549   3.123  52.334  1.00  0.00     0.009 C 
HETATM    4  C4  UNL     1      20.136   4.088  51.359  1.00  0.00    -0.000 C 
HETATM    5  C5  UNL     1      20.622   4.515  50.229  1.00  0.00     0.025 C 
HETATM    6  C6  UNL     1      21.786   4.552  49.380  1.00  0.00     0.243 A 
HETATM    7  N1  UNL     1      22.365   5.916  49.218  1.00  0.00     0.112 NA
HETATM    8  C7  UNL     1      23.518   5.679  48.524  1.00  0.00     0.323 C 
HETATM    9  C8  UNL     1      24.609   6.538  48.164  1.00  0.00     0.068 C 
HETATM   10  C9  UNL     1      24.565   7.648  47.257  1.00  0.00     0.098 C 
HETATM   11  N2  UNL     1      24.519   8.559  46.530  1.00  0.00    -0.192 NA
HETATM   12  C10 UNL     1      25.807   6.245  48.768  1.00  0.00     0.136 C 
HETATM   13  N3  UNL     1      25.287   5.169  49.501  1.00  0.00    -0.272 NA
HETATM   14  C11 UNL     1      25.678   4.487  50.458  1.00  0.00     0.117 C 
HETATM   15  C12 UNL     1      24.797   3.419  50.947  1.00  0.00     0.034 C 
HETATM   16  C13 UNL     1      23.636   3.057  50.519  1.00  0.00     0.005 C 
HETATM   17  C14 UNL     1      22.737   3.501  49.437  1.00  0.00     0.024 A 
HETATM   18  C15 UNL     1      22.042   3.668  48.264  1.00  0.00     0.069 A 
HETATM   19 CL1  UNL     1      21.724   3.159  46.624  1.00  0.00    -0.085 Cl
HETATM   20  P1  UNL     1      23.029   1.720  51.608  1.00  0.00     0.050 P 
HETATM   21  H7  UNL     1      22.400   6.404  50.117  1.00  0.00     0.318 HD
ENDROOT
BRANCH  20  22
HETATM   22  N4  UNL     1      24.225   1.232  52.833  1.00  0.00    -0.325 N 
HETATM   23  C16 UNL     1      24.280  -0.140  53.191  1.00  0.00     0.244 C 
HETATM   24  O1  UNL     1      23.542  -1.034  52.703  1.00  0.00    -0.268 OA
HETATM   25  H13 UNL     1      24.863   1.945  53.269  1.00  0.00     0.168 HD
BRANCH  23  26
HETATM   26  C17 UNL     1      25.264  -0.524  54.195  1.00  0.00     0.072 C 
HETATM   27  C18 UNL     1      26.385   0.163  54.360  1.00  0.00     0.008 C 
BRANCH  27  28
HETATM   28  C19 UNL     1      27.558   0.084  55.230  1.00  0.00     0.299 C 
BRANCH  28  29
HETATM   29  N5  UNL     1      28.815   0.076  54.530  1.00  0.00     0.083 N 
HETATM   30  C20 UNL     1      28.824  -0.901  53.453  1.00  0.00     0.309 C 
HETATM   31  C21 UNL     1      29.028   1.358  53.929  1.00  0.00     0.309 C 
ENDBRANCH  28  29
ENDBRANCH  27  28
ENDBRANCH  23  26
ENDBRANCH  20  22
TORSDOF 4
ENDMDL
MODEL 9
REMARK VINA RESULT:      -7.6      5.296      8.728
REMARK  4 active torsions:
REMARK  status: ('A' for Active; 'I' for Inactive)
REMARK    1  A    between atoms: P1_20  and  N4_21 
REMARK       I    between atoms: N4_21  and  C16_22 
REMARK    2  A    between atoms: C16_22  and  C17_24 
REMARK    3  A    between atoms: C18_25  and  C19_26 
REMARK    4  A    between atoms: C19_26  and  N5_27 
ROOT
HETATM    1  C1  UNL     1      21.844   4.987  51.878  1.00  0.00     0.051 C 
HETATM    2  C2  UNL     1      22.480   5.922  50.918  1.00  0.00    -0.033 C 
HETATM    3  C3  UNL     1      21.982   7.123  50.889  1.00  0.00     0.009 C 
HETATM    4  C4  UNL     1      21.846   8.125  49.875  1.00  0.00    -0.000 C 
HETATM    5  C5  UNL     1      22.361   8.310  48.694  1.00  0.00     0.025 C 
HETATM    6  C6  UNL     1      23.402   7.910  47.781  1.00  0.00     0.243 A 
HETATM    7  N1  UNL     1      24.392   8.988  47.495  1.00  0.00     0.112 NA
HETATM    8  C7  UNL     1      25.343   8.342  46.756  1.00  0.00     0.323 C 
HETATM    9  C8  UNL     1      26.628   8.762  46.279  1.00  0.00     0.068 C 
HETATM   10  C9  UNL     1      26.893   9.779  45.302  1.00  0.00     0.098 C 
HETATM   11  N2  UNL     1      27.101  10.617  44.519  1.00  0.00    -0.192 NA
HETATM   12  C10 UNL     1      27.700   8.107  46.835  1.00  0.00     0.136 C 
HETATM   13  N3  UNL     1      26.905   7.306  47.666  1.00  0.00    -0.272 NA
HETATM   14  C11 UNL     1      27.115   6.576  48.645  1.00  0.00     0.117 C 
HETATM   15  C12 UNL     1      25.966   5.894  49.253  1.00  0.00     0.034 C 
HETATM   16  C13 UNL     1      24.722   5.929  48.915  1.00  0.00     0.005 C 
HETATM   17  C14 UNL     1      23.946   6.602  47.856  1.00  0.00     0.024 A 
HETATM   18  C15 UNL     1      23.262   6.943  46.715  1.00  0.00     0.069 A 
HETATM   19 CL1  UNL     1      22.669   6.498  45.133  1.00  0.00    -0.085 Cl
HETATM   20  P1  UNL     1      23.784   4.929  50.124  1.00  0.00     0.050 P 
HETATM   21  H7  UNL     1      24.656   9.475  48.356  1.00  0.00     0.318 HD
ENDROOT
BRANCH  20  22
HETATM   22  N4  UNL     1      24.835   4.119  51.312  1.00  0.00    -0.325 N 
HETATM   23  C16 UNL     1      24.651   2.726  51.514  1.00  0.00     0.244 C 
HETATM   24  O1  UNL     1      23.798   2.026  50.912  1.00  0.00    -0.268 OA
HETATM   25  H13 UNL     1      25.563   4.664  51.839  1.00  0.00     0.168 HD
BRANCH  23  26
HETATM   26  C17 UNL     1      25.519   2.078  52.488  1.00  0.00     0.072 C 
HETATM   27  C18 UNL     1      26.829   2.007  52.306  1.00  0.00     0.008 C 
BRANCH  27  28
HETATM   28  C19 UNL     1      27.972   1.459  53.036  1.00  0.00     0.299 C 
BRANCH  28  29
HETATM   29  N5  UNL     1      27.674   0.284  53.810  1.00  0.00     0.083 N 
HETATM   30  C20 UNL     1      27.753  -0.924  53.004  1.00  0.00     0.309 C 
HETATM   31  C21 UNL     1      28.644   0.149  54.854  1.00  0.00     0.309 C 
ENDBRANCH  28  29
ENDBRANCH  27  28
ENDBRANCH  23  26
ENDBRANCH  20  22
TORSDOF 4
ENDMDL
