MODEL 1
REMARK VINA RESULT:      -6.8      0.000      0.000
REMARK  5 active torsions:
REMARK  status: ('A' for Active; 'I' for Inactive)
REMARK    1  A    between atoms: O1_2  and  C2_3 
REMARK    2  A    between atoms: C11_14  and  C12_15 
REMARK    3  A    between atoms: C11_14  and  C13_17 
REMARK    4  A    between atoms: C12_15  and  N1_16 
REMARK    5  A    between atoms: C13_17  and  C14_18 
ROOT
HETATM    1  C2  UNL     1      27.791  -1.205  53.164  1.00  0.00     0.103 A 
HETATM    2  C3  UNL     1      26.691  -1.855  52.810  1.00  0.00     0.050 A 
HETATM    3  C4  UNL     1      25.769  -0.887  53.400  1.00  0.00    -0.015 A 
HETATM    4  C5  UNL     1      26.889  -0.220  53.764  1.00  0.00     0.114 A 
HETATM    5  O2  UNL     1      26.916   1.019  54.486  1.00  0.00    -0.320 OA
HETATM    6  C6  UNL     1      27.541   2.109  53.871  1.00  0.00     0.140 C 
HETATM    7  C7  UNL     1      27.414   2.489  52.588  1.00  0.00     0.024 C 
HETATM    8  C8  UNL     1      26.708   2.099  51.342  1.00  0.00     0.197 C 
HETATM    9  O3  UNL     1      25.882   0.971  51.616  1.00  0.00    -0.383 OA
HETATM   10  C9  UNL     1      24.779   1.551  52.271  1.00  0.00     0.203 C 
HETATM   11  C10 UNL     1      23.814   0.567  52.804  1.00  0.00    -0.048 C 
HETATM   12  C11 UNL     1      22.520   0.416  52.479  1.00  0.00    -0.047 C 
HETATM   13  C15 UNL     1      24.539  -0.201  53.841  1.00  0.00     0.078 C 
ENDROOT
BRANCH  12  14
HETATM   14  C12 UNL     1      21.834   1.274  51.475  1.00  0.00     0.301 C 
BRANCH  14  15
HETATM   15  N1  UNL     1      21.441   0.525  50.316  1.00  0.00     0.082 N 
HETATM   16  H13 UNL     1      22.131  -0.187  50.005  1.00  0.00     0.313 HD
HETATM   17  H14 UNL     1      20.501   0.095  50.393  1.00  0.00     0.313 HD
ENDBRANCH  14  15
ENDBRANCH  12  14
BRANCH  12  18
HETATM   18  C13 UNL     1      21.606  -0.574  53.101  1.00  0.00     0.047 C 
BRANCH  18  19
HETATM   19  C14 UNL     1      20.417   0.008  53.815  1.00  0.00     0.089 C 
HETATM   20 BR1  UNL     1      18.809  -0.607  52.861  1.00  0.00    -0.096 Br
ENDBRANCH  18  19
ENDBRANCH  12  18
BRANCH   1  21
HETATM   21  O1  UNL     1      29.133  -1.501  52.959  1.00  0.00    -0.353 OA
HETATM   22  C1  UNL     1      30.129  -0.674  53.539  1.00  0.00     0.210 C 
ENDBRANCH   1  21
TORSDOF 5
ENDMDL
MODEL 2
REMARK VINA RESULT:      -6.6      3.676      6.696
REMARK  5 active torsions:
REMARK  status: ('A' for Active; 'I' for Inactive)
REMARK    1  A    between atoms: O1_2  and  C2_3 
REMARK    2  A    between atoms: C11_14  and  C12_15 
REMARK    3  A    between atoms: C11_14  and  C13_17 
REMARK    4  A    between atoms: C12_15  and  N1_16 
REMARK    5  A    between atoms: C13_17  and  C14_18 
ROOT
HETATM    1  C2  UNL     1      20.441   0.595  51.120  1.00  0.00     0.103 A 
HETATM    2  C3  UNL     1      21.563   0.511  50.419  1.00  0.00     0.050 A 
HETATM    3  C4  UNL     1      22.433   0.953  51.507  1.00  0.00    -0.015 A 
HETATM    4  C5  UNL     1      21.291   1.039  52.227  1.00  0.00     0.114 A 
HETATM    5  O2  UNL     1      21.207   1.450  53.599  1.00  0.00    -0.320 OA
HETATM    6  C6  UNL     1      20.660   0.542  54.511  1.00  0.00     0.140 C 
HETATM    7  C7  UNL     1      20.918  -0.774  54.587  1.00  0.00     0.024 C 
HETATM    8  C8  UNL     1      21.741  -1.821  53.928  1.00  0.00     0.197 C 
HETATM    9  O3  UNL     1      22.521  -1.214  52.903  1.00  0.00    -0.383 OA
HETATM   10  C9  UNL     1      23.560  -0.603  53.630  1.00  0.00     0.203 C 
HETATM   11  C10 UNL     1      24.455   0.236  52.806  1.00  0.00    -0.048 C 
HETATM   12  C11 UNL     1      25.773   0.086  52.599  1.00  0.00    -0.047 C 
HETATM   13  C15 UNL     1      23.621   1.344  52.289  1.00  0.00     0.078 C 
ENDROOT
BRANCH  12  14
HETATM   14  C12 UNL     1      26.567  -1.015  53.210  1.00  0.00     0.301 C 
BRANCH  14  15
HETATM   15  N1  UNL     1      27.014  -0.678  54.531  1.00  0.00     0.082 N 
HETATM   16  H13 UNL     1      27.064  -1.480  55.190  1.00  0.00     0.313 HD
HETATM   17  H14 UNL     1      27.907  -0.151  54.550  1.00  0.00     0.313 HD
ENDBRANCH  14  15
ENDBRANCH  12  14
BRANCH  12  18
HETATM   18  C13 UNL     1      26.609   1.007  51.789  1.00  0.00     0.047 C 
BRANCH  18  19
HETATM   19  C14 UNL     1      26.814   2.375  52.378  1.00  0.00     0.089 C 
HETATM   20 BR1  UNL     1      28.479   2.311  53.427  1.00  0.00    -0.096 Br
ENDBRANCH  18  19
ENDBRANCH  12  18
BRANCH   1  21
HETATM   21  O1  UNL     1      19.123   0.330  50.770  1.00  0.00    -0.353 OA
HETATM   22  C1  UNL     1      18.238  -0.217  51.736  1.00  0.00     0.210 C 
ENDBRANCH   1  21
TORSDOF 5
ENDMDL
MODEL 3
REMARK VINA RESULT:      -6.4      3.715      6.372
REMARK  5 active torsions:
REMARK  status: ('A' for Active; 'I' for Inactive)
REMARK    1  A    between atoms: O1_2  and  C2_3 
REMARK    2  A    between atoms: C11_14  and  C12_15 
REMARK    3  A    between atoms: C11_14  and  C13_17 
REMARK    4  A    between atoms: C12_15  and  N1_16 
REMARK    5  A    between atoms: C13_17  and  C14_18 
ROOT
HETATM    1  C2  UNL     1      20.575  -0.468  53.588  1.00  0.00     0.103 A 
HETATM    2  C3  UNL     1      21.507  -0.566  54.524  1.00  0.00     0.050 A 
HETATM    3  C4  UNL     1      22.634  -0.525  53.595  1.00  0.00    -0.015 A 
HETATM    4  C5  UNL     1      21.685  -0.424  52.635  1.00  0.00     0.114 A 
HETATM    5  O2  UNL     1      21.941  -0.319  51.227  1.00  0.00    -0.320 OA
HETATM    6  C6  UNL     1      21.459   0.817  50.568  1.00  0.00     0.140 C 
HETATM    7  C7  UNL     1      21.528   2.087  51.002  1.00  0.00     0.024 C 
HETATM    8  C8  UNL     1      22.036   2.880  52.150  1.00  0.00     0.197 C 
HETATM    9  O3  UNL     1      22.676   2.000  53.069  1.00  0.00    -0.383 OA
HETATM   10  C9  UNL     1      23.920   1.765  52.452  1.00  0.00     0.203 C 
HETATM   11  C10 UNL     1      24.745   0.749  53.137  1.00  0.00    -0.048 C 
HETATM   12  C11 UNL     1      25.958   0.905  53.693  1.00  0.00    -0.047 C 
HETATM   13  C15 UNL     1      23.999  -0.526  53.036  1.00  0.00     0.078 C 
ENDROOT
BRANCH  12  14
HETATM   14  C12 UNL     1      26.684   2.203  53.696  1.00  0.00     0.301 C 
BRANCH  14  15
HETATM   15  N1  UNL     1      27.278   2.483  52.420  1.00  0.00     0.082 N 
HETATM   16  H13 UNL     1      26.688   3.053  51.782  1.00  0.00     0.313 HD
HETATM   17  H14 UNL     1      28.228   2.894  52.480  1.00  0.00     0.313 HD
ENDBRANCH  14  15
ENDBRANCH  12  14
BRANCH  12  18
HETATM   18  C13 UNL     1      26.742  -0.186  54.324  1.00  0.00     0.047 C 
BRANCH  18  19
HETATM   19  C14 UNL     1      28.097   0.211  54.841  1.00  0.00     0.089 C 
HETATM   20 BR1  UNL     1      29.435  -0.648  53.681  1.00  0.00    -0.096 Br
ENDBRANCH  18  19
ENDBRANCH  12  18
BRANCH   1  21
HETATM   21  O1  UNL     1      19.188  -0.438  53.678  1.00  0.00    -0.353 OA
HETATM   22  C1  UNL     1      18.408  -0.481  52.493  1.00  0.00     0.210 C 
ENDBRANCH   1  21
TORSDOF 5
ENDMDL
MODEL 4
REMARK VINA RESULT:      -6.4      3.122      5.221
REMARK  5 active torsions:
REMARK  status: ('A' for Active; 'I' for Inactive)
REMARK    1  A    between atoms: O1_2  and  C2_3 
REMARK    2  A    between atoms: C11_14  and  C12_15 
REMARK    3  A    between atoms: C11_14  and  C13_17 
REMARK    4  A    between atoms: C12_15  and  N1_16 
REMARK    5  A    between atoms: C13_17  and  C14_18 
ROOT
HETATM    1  C2  UNL     1      23.579   5.306  51.763  1.00  0.00     0.103 A 
HETATM    2  C3  UNL     1      23.379   4.714  52.931  1.00  0.00     0.050 A 
HETATM    3  C4  UNL     1      23.230   3.370  52.375  1.00  0.00    -0.015 A 
HETATM    4  C5  UNL     1      23.435   3.971  51.180  1.00  0.00     0.114 A 
HETATM    5  O2  UNL     1      23.458   3.301  49.911  1.00  0.00    -0.320 OA
HETATM    6  C6  UNL     1      24.629   3.399  49.153  1.00  0.00     0.140 C 
HETATM    7  C7  UNL     1      25.890   3.276  49.604  1.00  0.00     0.024 C 
HETATM    8  C8  UNL     1      26.638   3.017  50.860  1.00  0.00     0.197 C 
HETATM    9  O3  UNL     1      25.705   2.809  51.916  1.00  0.00    -0.383 OA
HETATM   10  C9  UNL     1      25.276   1.488  51.690  1.00  0.00     0.203 C 
HETATM   11  C10 UNL     1      24.175   1.056  52.576  1.00  0.00    -0.048 C 
HETATM   12  C11 UNL     1      24.174   0.051  53.466  1.00  0.00    -0.047 C 
HETATM   13  C15 UNL     1      23.017   1.917  52.244  1.00  0.00     0.078 C 
ENDROOT
BRANCH  12  14
HETATM   14  C12 UNL     1      25.355  -0.824  53.698  1.00  0.00     0.301 C 
BRANCH  14  15
HETATM   15  N1  UNL     1      25.933  -0.606  54.993  1.00  0.00     0.082 N 
HETATM   16  H13 UNL     1      26.208  -1.472  55.497  1.00  0.00     0.313 HD
HETATM   17  H14 UNL     1      26.722   0.066  54.993  1.00  0.00     0.313 HD
ENDBRANCH  14  15
ENDBRANCH  12  14
BRANCH  12  18
HETATM   18  C13 UNL     1      23.003  -0.347  54.286  1.00  0.00     0.047 C 
BRANCH  18  19
HETATM   19  C14 UNL     1      22.061  -1.321  53.634  1.00  0.00     0.089 C 
HETATM   20 BR1  UNL     1      20.285  -0.474  53.595  1.00  0.00    -0.096 Br
ENDBRANCH  18  19
ENDBRANCH  12  18
BRANCH   1  21
HETATM   21  O1  UNL     1      23.809   6.638  51.441  1.00  0.00    -0.353 OA
HETATM   22  C1  UNL     1      24.963   6.989  50.693  1.00  0.00     0.210 C 
ENDBRANCH   1  21
TORSDOF 5
ENDMDL
MODEL 5
REMARK VINA RESULT:      -6.3      4.754      6.933
REMARK  5 active torsions:
REMARK  status: ('A' for Active; 'I' for Inactive)
REMARK    1  A    between atoms: O1_2  and  C2_3 
REMARK    2  A    between atoms: C11_14  and  C12_15 
REMARK    3  A    between atoms: C11_14  and  C13_17 
REMARK    4  A    between atoms: C12_15  and  N1_16 
REMARK    5  A    between atoms: C13_17  and  C14_18 
ROOT
HETATM    1  C2  UNL     1      24.363   1.297  52.467  1.00  0.00     0.103 A 
HETATM    2  C3  UNL     1      25.560   1.816  52.233  1.00  0.00     0.050 A 
HETATM    3  C4  UNL     1      25.177   2.472  50.984  1.00  0.00    -0.015 A 
HETATM    4  C5  UNL     1      23.953   1.945  51.220  1.00  0.00     0.114 A 
HETATM    5  O2  UNL     1      22.804   2.114  50.378  1.00  0.00    -0.320 OA
HETATM    6  C6  UNL     1      21.673   2.710  50.946  1.00  0.00     0.140 C 
HETATM    7  C7  UNL     1      21.649   3.792  51.741  1.00  0.00     0.024 C 
HETATM    8  C8  UNL     1      22.568   4.786  52.353  1.00  0.00     0.197 C 
HETATM    9  O3  UNL     1      23.898   4.502  51.931  1.00  0.00    -0.383 OA
HETATM   10  C9  UNL     1      23.922   5.020  50.622  1.00  0.00     0.203 C 
HETATM   11  C10 UNL     1      25.168   4.725  49.884  1.00  0.00    -0.048 C 
HETATM   12  C11 UNL     1      26.059   5.596  49.383  1.00  0.00    -0.047 C 
HETATM   13  C15 UNL     1      25.220   3.254  49.734  1.00  0.00     0.078 C 
ENDROOT
BRANCH  12  14
HETATM   14  C12 UNL     1      25.907   7.071  49.509  1.00  0.00     0.301 C 
BRANCH  14  15
HETATM   15  N1  UNL     1      26.201   7.525  50.837  1.00  0.00     0.082 N 
HETATM   16  H13 UNL     1      25.451   7.345  51.534  1.00  0.00     0.313 HD
HETATM   17  H14 UNL     1      27.110   7.187  51.205  1.00  0.00     0.313 HD
ENDBRANCH  14  15
ENDBRANCH  12  14
BRANCH  12  18
HETATM   18  C13 UNL     1      27.267   5.214  48.610  1.00  0.00     0.047 C 
BRANCH  18  19
HETATM   19  C14 UNL     1      28.108   6.360  48.121  1.00  0.00     0.089 C 
HETATM   20 BR1  UNL     1      29.981   5.754  48.137  1.00  0.00    -0.096 Br
ENDBRANCH  18  19
ENDBRANCH  12  18
BRANCH   1  21
HETATM   21  O1  UNL     1      23.899   0.503  53.510  1.00  0.00    -0.353 OA
HETATM   22  C1  UNL     1      23.033  -0.585  53.230  1.00  0.00     0.210 C 
ENDBRANCH   1  21
TORSDOF 5
ENDMDL
MODEL 6
REMARK VINA RESULT:      -6.2      1.992      3.354
REMARK  5 active torsions:
REMARK  status: ('A' for Active; 'I' for Inactive)
REMARK    1  A    between atoms: O1_2  and  C2_3 
REMARK    2  A    between atoms: C11_14  and  C12_15 
REMARK    3  A    between atoms: C11_14  and  C13_17 
REMARK    4  A    between atoms: C12_15  and  N1_16 
REMARK    5  A    between atoms: C13_17  and  C14_18 
ROOT
HETATM    1  C2  UNL     1      26.932   2.405  53.546  1.00  0.00     0.103 A 
HETATM    2  C3  UNL     1      25.778   2.996  53.818  1.00  0.00     0.050 A 
HETATM    3  C4  UNL     1      25.000   2.215  52.858  1.00  0.00    -0.015 A 
HETATM    4  C5  UNL     1      26.176   1.609  52.578  1.00  0.00     0.114 A 
HETATM    5  O2  UNL     1      26.357   0.561  51.614  1.00  0.00    -0.320 OA
HETATM    6  C6  UNL     1      26.861  -0.659  52.076  1.00  0.00     0.140 C 
HETATM    7  C7  UNL     1      26.490  -1.310  53.191  1.00  0.00     0.024 C 
HETATM    8  C8  UNL     1      25.549  -1.184  54.333  1.00  0.00     0.197 C 
HETATM    9  O3  UNL     1      24.781   0.004  54.166  1.00  0.00    -0.383 OA
HETATM   10  C9  UNL     1      23.834  -0.378  53.197  1.00  0.00     0.203 C 
HETATM   11  C10 UNL     1      22.982   0.733  52.723  1.00  0.00    -0.048 C 
HETATM   12  C11 UNL     1      21.647   0.851  52.817  1.00  0.00    -0.047 C 
HETATM   13  C15 UNL     1      23.888   1.687  52.046  1.00  0.00     0.078 C 
ENDROOT
BRANCH  12  14
HETATM   14  C12 UNL     1      20.787  -0.185  53.450  1.00  0.00     0.301 C 
BRANCH  14  15
HETATM   15  N1  UNL     1      20.607   0.058  54.853  1.00  0.00     0.082 N 
HETATM   16  H13 UNL     1      21.295  -0.419  55.468  1.00  0.00     0.313 HD
HETATM   17  H14 UNL     1      20.550   1.063  55.101  1.00  0.00     0.313 HD
ENDBRANCH  14  15
ENDBRANCH  12  14
BRANCH  12  18
HETATM   18  C13 UNL     1      20.862   1.985  52.270  1.00  0.00     0.047 C 
BRANCH  18  19
HETATM   19  C14 UNL     1      19.889   1.628  51.180  1.00  0.00     0.089 C 
HETATM   20 BR1  UNL     1      20.946   1.193  49.578  1.00  0.00    -0.096 Br
ENDBRANCH  18  19
ENDBRANCH  12  18
BRANCH   1  21
HETATM   21  O1  UNL     1      28.205   2.601  54.068  1.00  0.00    -0.353 OA
HETATM   22  C1  UNL     1      29.080   1.494  54.217  1.00  0.00     0.210 C 
ENDBRANCH   1  21
TORSDOF 5
ENDMDL
MODEL 7
REMARK VINA RESULT:      -6.2      3.478      5.212
REMARK  5 active torsions:
REMARK  status: ('A' for Active; 'I' for Inactive)
REMARK    1  A    between atoms: O1_2  and  C2_3 
REMARK    2  A    between atoms: C11_14  and  C12_15 
REMARK    3  A    between atoms: C11_14  and  C13_17 
REMARK    4  A    between atoms: C12_15  and  N1_16 
REMARK    5  A    between atoms: C13_17  and  C14_18 
ROOT
HETATM    1  C2  UNL     1      25.804   4.032  50.028  1.00  0.00     0.103 A 
HETATM    2  C3  UNL     1      26.286   2.876  50.462  1.00  0.00     0.050 A 
HETATM    3  C4  UNL     1      25.365   2.762  51.591  1.00  0.00    -0.015 A 
HETATM    4  C5  UNL     1      24.868   3.942  51.151  1.00  0.00     0.114 A 
HETATM    5  O2  UNL     1      23.783   4.659  51.757  1.00  0.00    -0.320 OA
HETATM    6  C6  UNL     1      22.657   4.911  50.965  1.00  0.00     0.140 C 
HETATM    7  C7  UNL     1      22.047   4.045  50.138  1.00  0.00     0.024 C 
HETATM    8  C8  UNL     1      22.150   2.639  49.671  1.00  0.00     0.197 C 
HETATM    9  O3  UNL     1      23.236   2.010  50.344  1.00  0.00    -0.383 OA
HETATM   10  C9  UNL     1      22.692   1.736  51.613  1.00  0.00     0.203 C 
HETATM   11  C10 UNL     1      23.672   1.201  52.582  1.00  0.00    -0.048 C 
HETATM   12  C11 UNL     1      23.655   0.012  53.206  1.00  0.00    -0.047 C 
HETATM   13  C15 UNL     1      24.668   2.274  52.795  1.00  0.00     0.078 C 
ENDROOT
BRANCH  12  14
HETATM   14  C12 UNL     1      22.579  -0.995  52.997  1.00  0.00     0.301 C 
BRANCH  14  15
HETATM   15  N1  UNL     1      21.851  -1.254  54.205  1.00  0.00     0.082 N 
HETATM   16  H13 UNL     1      20.852  -1.506  54.065  1.00  0.00     0.313 HD
HETATM   17  H14 UNL     1      22.304  -1.949  54.827  1.00  0.00     0.313 HD
ENDBRANCH  14  15
ENDBRANCH  12  14
BRANCH  12  18
HETATM   18  C13 UNL     1      24.659  -0.429  54.205  1.00  0.00     0.047 C 
BRANCH  18  19
HETATM   19  C14 UNL     1      25.968  -0.903  53.636  1.00  0.00     0.089 C 
HETATM   20 BR1  UNL     1      27.383   0.208  54.433  1.00  0.00    -0.096 Br
ENDBRANCH  18  19
ENDBRANCH  12  18
BRANCH   1  21
HETATM   21  O1  UNL     1      26.168   4.828  48.949  1.00  0.00    -0.353 OA
HETATM   22  C1  UNL     1      27.541   4.985  48.627  1.00  0.00     0.210 C 
ENDBRANCH   1  21
TORSDOF 5
ENDMDL
MODEL 8
REMARK VINA RESULT:      -6.1      3.784      6.519
REMARK  5 active torsions:
REMARK  status: ('A' for Active; 'I' for Inactive)
REMARK    1  A    between atoms: O1_2  and  C2_3 
REMARK    2  A    between atoms: C11_14  and  C12_15 
REMARK    3  A    between atoms: C11_14  and  C13_17 
REMARK    4  A    between atoms: C12_15  and  N1_16 
REMARK    5  A    between atoms: C13_17  and  C14_18 
ROOT
HETATM    1  C2  UNL     1      22.718   3.550  49.764  1.00  0.00     0.103 A 
HETATM    2  C3  UNL     1      23.966   3.116  49.861  1.00  0.00     0.050 A 
HETATM    3  C4  UNL     1      23.955   3.004  51.318  1.00  0.00    -0.015 A 
HETATM    4  C5  UNL     1      22.679   3.445  51.224  1.00  0.00     0.114 A 
HETATM    5  O2  UNL     1      21.792   3.655  52.332  1.00  0.00    -0.320 OA
HETATM    6  C6  UNL     1      20.596   2.930  52.345  1.00  0.00     0.140 C 
HETATM    7  C7  UNL     1      20.444   1.626  52.056  1.00  0.00     0.024 C 
HETATM    8  C8  UNL     1      21.243   0.441  51.653  1.00  0.00     0.197 C 
HETATM    9  O3  UNL     1      22.615   0.815  51.577  1.00  0.00    -0.383 OA
HETATM   10  C9  UNL     1      23.001   0.838  52.931  1.00  0.00     0.203 C 
HETATM   11  C10 UNL     1      24.371   1.347  53.154  1.00  0.00    -0.048 C 
HETATM   12  C11 UNL     1      25.415   0.703  53.700  1.00  0.00    -0.047 C 
HETATM   13  C15 UNL     1      24.362   2.760  52.715  1.00  0.00     0.078 C 
ENDROOT
BRANCH  12  14
HETATM   14  C12 UNL     1      25.333  -0.701  54.188  1.00  0.00     0.301 C 
BRANCH  14  15
HETATM   15  N1  UNL     1      25.712  -0.808  55.567  1.00  0.00     0.082 N 
HETATM   16  H13 UNL     1      25.855  -1.781  55.904  1.00  0.00     0.313 HD
HETATM   17  H14 UNL     1      26.529  -0.223  55.824  1.00  0.00     0.313 HD
ENDBRANCH  14  15
ENDBRANCH  12  14
BRANCH  12  18
HETATM   18  C13 UNL     1      26.750   1.307  53.931  1.00  0.00     0.047 C 
BRANCH  18  19
HETATM   19  C14 UNL     1      27.796   0.968  52.905  1.00  0.00     0.089 C 
HETATM   20 BR1  UNL     1      29.115  -0.199  53.785  1.00  0.00    -0.096 Br
ENDBRANCH  18  19
ENDBRANCH  12  18
BRANCH   1  21
HETATM   21  O1  UNL     1      21.955   3.899  48.656  1.00  0.00    -0.353 OA
HETATM   22  C1  UNL     1      21.933   3.044  47.523  1.00  0.00     0.210 C 
ENDBRANCH   1  21
TORSDOF 5
ENDMDL
MODEL 9
REMARK VINA RESULT:      -6.0      4.664      6.623
REMARK  5 active torsions:
REMARK  status: ('A' for Active; 'I' for Inactive)
REMARK    1  A    between atoms: O1_2  and  C2_3 
REMARK    2  A    between atoms: C11_14  and  C12_15 
REMARK    3  A    between atoms: C11_14  and  C13_17 
REMARK    4  A    between atoms: C12_15  and  N1_16 
REMARK    5  A    between atoms: C13_17  and  C14_18 
ROOT
HETATM    1  C2  UNL     1      22.670   0.085  52.742  1.00  0.00     0.103 A 
HETATM    2  C3  UNL     1      23.799   0.773  52.839  1.00  0.00     0.050 A 
HETATM    3  C4  UNL     1      23.621   1.498  51.583  1.00  0.00    -0.015 A 
HETATM    4  C5  UNL     1      22.467   0.798  51.480  1.00  0.00     0.114 A 
HETATM    5  O2  UNL     1      21.530   0.904  50.399  1.00  0.00    -0.320 OA
HETATM    6  C6  UNL     1      20.224   1.291  50.715  1.00  0.00     0.140 C 
HETATM    7  C7  UNL     1      19.858   2.276  51.553  1.00  0.00     0.024 C 
HETATM    8  C8  UNL     1      20.456   3.312  52.434  1.00  0.00     0.197 C 
HETATM    9  O3  UNL     1      21.874   3.243  52.328  1.00  0.00    -0.383 OA
HETATM   10  C9  UNL     1      22.121   3.889  51.102  1.00  0.00     0.203 C 
HETATM   11  C10 UNL     1      23.533   3.831  50.668  1.00  0.00    -0.048 C 
HETATM   12  C11 UNL     1      24.377   4.854  50.458  1.00  0.00    -0.047 C 
HETATM   13  C15 UNL     1      23.834   2.401  50.436  1.00  0.00     0.078 C 
ENDROOT
BRANCH  12  14
HETATM   14  C12 UNL     1      23.984   6.277  50.642  1.00  0.00     0.301 C 
BRANCH  14  15
HETATM   15  N1  UNL     1      24.338   6.762  51.945  1.00  0.00     0.082 N 
HETATM   16  H13 UNL     1      25.191   6.330  52.353  1.00  0.00     0.313 HD
HETATM   17  H14 UNL     1      24.404   7.795  52.005  1.00  0.00     0.313 HD
ENDBRANCH  14  15
ENDBRANCH  12  14
BRANCH  12  18
HETATM   18  C13 UNL     1      25.773   4.708  49.975  1.00  0.00     0.047 C 
BRANCH  18  19
HETATM   19  C14 UNL     1      26.274   5.828  49.106  1.00  0.00     0.089 C 
HETATM   20 BR1  UNL     1      28.066   5.315  48.474  1.00  0.00    -0.096 Br
ENDBRANCH  18  19
ENDBRANCH  12  18
BRANCH   1  21
HETATM   21  O1  UNL     1      22.102  -0.862  53.586  1.00  0.00    -0.353 OA
HETATM   22  C1  UNL     1      21.781  -0.507  54.922  1.00  0.00     0.210 C 
ENDBRANCH   1  21
TORSDOF 5
ENDMDL
