MODEL 1
REMARK VINA RESULT:      -7.5      0.000      0.000
REMARK  8 active torsions:
REMARK  status: ('A' for Active; 'I' for Inactive)
REMARK    1  A    between atoms: O1_2  and  C2_3 
REMARK    2  A    between atoms: C2_3  and  C3_4 
REMARK    3  A    between atoms: C6_8  and  C7_9 
REMARK    4  A    between atoms: C7_9  and  O2_10 
REMARK    5  A    between atoms: O2_10  and  C8_11 
REMARK    6  A    between atoms: C11_16  and  C12_17 
REMARK    7  A    between atoms: C13_19  and  N4_20 
REMARK    8  A    between atoms: N4_20  and  C14_21 
ROOT
HETATM    1  C8  UNL     1      23.886  -0.363  53.512  1.00  0.00     0.179 A 
HETATM    2  N2  UNL     1      23.922  -1.081  54.630  1.00  0.00    -0.217 NA
HETATM    3  C9  UNL     1      22.871  -1.448  55.348  1.00  0.00     0.235 A 
HETATM    4  N3  UNL     1      21.662  -1.087  54.952  1.00  0.00    -0.253 NA
HETATM    5  C10 UNL     1      21.453  -0.354  53.830  1.00  0.00     0.135 A 
HETATM    6  C11 UNL     1      22.593   0.013  53.101  1.00  0.00     0.057 A 
ENDROOT
BRANCH   6   7
HETATM    7  C12 UNL     1      22.244   0.839  51.954  1.00  0.00     0.065 C 
HETATM    8 CL1  UNL     1      20.824   0.266  51.078  1.00  0.00    -0.082 Cl
HETATM    9  C13 UNL     1      22.744   1.920  51.401  1.00  0.00     0.113 C 
BRANCH   9  10
HETATM   10  N4  UNL     1      23.781   2.831  51.550  1.00  0.00    -0.361 N 
HETATM   11  H16 UNL     1      24.532   2.358  52.140  1.00  0.00     0.165 HD
BRANCH  10  12
HETATM   12  C14 UNL     1      24.116   4.148  51.174  1.00  0.00     0.075 A 
HETATM   13  C15 UNL     1      23.718   5.469  51.236  1.00  0.00     0.143 A 
HETATM   14  N5  UNL     1      24.657   6.194  50.579  1.00  0.00    -0.283 N 
HETATM   15  C16 UNL     1      24.498   7.613  50.472  1.00  0.00     0.179 C 
HETATM   16  N6  UNL     1      25.609   5.401  50.117  1.00  0.00    -0.176 NA
HETATM   17  C17 UNL     1      25.312   4.123  50.463  1.00  0.00     0.079 A 
HETATM   18  C18 UNL     1      26.296   3.086  50.018  1.00  0.00     0.075 C 
ENDBRANCH  10  12
ENDBRANCH   9  10
ENDBRANCH   6   7
BRANCH   1  19
HETATM   19  O2  UNL     1      24.756   0.127  52.630  1.00  0.00    -0.333 OA
BRANCH  19  20
HETATM   20  C7  UNL     1      26.099   0.089  52.363  1.00  0.00     0.188 C 
BRANCH  20  21
HETATM   21  C6  UNL     1      26.883   0.422  53.625  1.00  0.00     0.058 C 
HETATM   22  C3  UNL     1      28.371   0.572  53.354  1.00  0.00     0.040 C 
HETATM   23  C4  UNL     1      28.600   2.034  53.363  1.00  0.00     0.155 C 
HETATM   24  N1  UNL     1      27.448   2.651  53.949  1.00  0.00    -0.305 NA
HETATM   25  C5  UNL     1      26.481   1.794  54.111  1.00  0.00     0.090 C 
BRANCH  22  26
HETATM   26  C2  UNL     1      29.065  -0.189  54.470  1.00  0.00     0.174 C 
BRANCH  26  27
HETATM   27  O1  UNL     1      29.939  -1.154  54.056  1.00  0.00    -0.395 OA
HETATM   28  C1  UNL     1      29.386  -2.104  53.231  1.00  0.00     0.201 C 
ENDBRANCH  26  27
ENDBRANCH  22  26
ENDBRANCH  20  21
ENDBRANCH  19  20
ENDBRANCH   1  19
TORSDOF 8
ENDMDL
MODEL 2
REMARK VINA RESULT:      -7.5      2.336      6.282
REMARK  8 active torsions:
REMARK  status: ('A' for Active; 'I' for Inactive)
REMARK    1  A    between atoms: O1_2  and  C2_3 
REMARK    2  A    between atoms: C2_3  and  C3_4 
REMARK    3  A    between atoms: C6_8  and  C7_9 
REMARK    4  A    between atoms: C7_9  and  O2_10 
REMARK    5  A    between atoms: O2_10  and  C8_11 
REMARK    6  A    between atoms: C11_16  and  C12_17 
REMARK    7  A    between atoms: C13_19  and  N4_20 
REMARK    8  A    between atoms: N4_20  and  C14_21 
ROOT
HETATM    1  C8  UNL     1      27.334   1.767  52.775  1.00  0.00     0.179 A 
HETATM    2  N2  UNL     1      28.351   2.480  53.250  1.00  0.00    -0.217 NA
HETATM    3  C9  UNL     1      29.192   2.090  54.197  1.00  0.00     0.235 A 
HETATM    4  N3  UNL     1      29.040   0.896  54.743  1.00  0.00    -0.253 NA
HETATM    5  C10 UNL     1      28.052   0.045  54.368  1.00  0.00     0.135 A 
HETATM    6  C11 UNL     1      27.185   0.497  53.365  1.00  0.00     0.057 A 
ENDROOT
BRANCH   6   7
HETATM    7  C12 UNL     1      26.140  -0.478  53.089  1.00  0.00     0.065 C 
HETATM    8 CL1  UNL     1      26.740  -1.964  52.351  1.00  0.00    -0.082 Cl
HETATM    9  C13 UNL     1      24.838  -0.517  53.253  1.00  0.00     0.113 C 
BRANCH   9  10
HETATM   10  N4  UNL     1      23.785   0.251  53.731  1.00  0.00    -0.361 N 
HETATM   11  H16 UNL     1      24.034   0.541  54.726  1.00  0.00     0.165 HD
BRANCH  10  12
HETATM   12  C14 UNL     1      22.528   0.733  53.309  1.00  0.00     0.075 A 
HETATM   13  C15 UNL     1      21.890   1.724  52.589  1.00  0.00     0.143 A 
HETATM   14  N5  UNL     1      20.561   1.467  52.660  1.00  0.00    -0.283 N 
HETATM   15  C16 UNL     1      19.642   2.349  52.005  1.00  0.00     0.179 C 
HETATM   16  N6  UNL     1      20.341   0.380  53.378  1.00  0.00    -0.176 NA
HETATM   17  C17 UNL     1      21.535  -0.107  53.801  1.00  0.00     0.079 A 
HETATM   18  C18 UNL     1      21.469  -1.351  54.633  1.00  0.00     0.075 C 
ENDBRANCH  10  12
ENDBRANCH   9  10
ENDBRANCH   6   7
BRANCH   1  19
HETATM   19  O2  UNL     1      26.373   1.914  51.865  1.00  0.00    -0.333 OA
BRANCH  19  20
HETATM   20  C7  UNL     1      25.314   2.740  51.593  1.00  0.00     0.188 C 
BRANCH  20  21
HETATM   21  C6  UNL     1      25.167   2.907  50.088  1.00  0.00     0.058 C 
HETATM   22  C3  UNL     1      24.094   3.922  49.725  1.00  0.00     0.040 C 
HETATM   23  C4  UNL     1      24.852   5.131  49.334  1.00  0.00     0.155 C 
HETATM   24  N1  UNL     1      26.215   4.743  49.129  1.00  0.00    -0.305 NA
HETATM   25  C5  UNL     1      26.427   3.522  49.530  1.00  0.00     0.090 C 
BRANCH  22  26
HETATM   26  C2  UNL     1      23.293   3.282  48.605  1.00  0.00     0.174 C 
BRANCH  26  27
HETATM   27  O1  UNL     1      22.656   2.120  48.941  1.00  0.00    -0.395 OA
HETATM   28  C1  UNL     1      21.317   2.097  48.632  1.00  0.00     0.201 C 
ENDBRANCH  26  27
ENDBRANCH  22  26
ENDBRANCH  20  21
ENDBRANCH  19  20
ENDBRANCH   1  19
TORSDOF 8
ENDMDL
MODEL 3
REMARK VINA RESULT:      -7.4      2.350      6.684
REMARK  8 active torsions:
REMARK  status: ('A' for Active; 'I' for Inactive)
REMARK    1  A    between atoms: O1_2  and  C2_3 
REMARK    2  A    between atoms: C2_3  and  C3_4 
REMARK    3  A    between atoms: C6_8  and  C7_9 
REMARK    4  A    between atoms: C7_9  and  O2_10 
REMARK    5  A    between atoms: O2_10  and  C8_11 
REMARK    6  A    between atoms: C11_16  and  C12_17 
REMARK    7  A    between atoms: C13_19  and  N4_20 
REMARK    8  A    between atoms: N4_20  and  C14_21 
ROOT
HETATM    1  C8  UNL     1      27.445   1.741  53.016  1.00  0.00     0.179 A 
HETATM    2  N2  UNL     1      28.340   2.516  53.621  1.00  0.00    -0.217 NA
HETATM    3  C9  UNL     1      29.164   2.137  54.587  1.00  0.00     0.235 A 
HETATM    4  N3  UNL     1      29.122   0.887  55.016  1.00  0.00    -0.253 NA
HETATM    5  C10 UNL     1      28.267  -0.030  54.501  1.00  0.00     0.135 A 
HETATM    6  C11 UNL     1      27.413   0.413  53.482  1.00  0.00     0.057 A 
ENDROOT
BRANCH   6   7
HETATM    7  C12 UNL     1      26.510  -0.644  53.051  1.00  0.00     0.065 C 
HETATM    8 CL1  UNL     1      27.341  -2.095  52.488  1.00  0.00    -0.082 Cl
HETATM    9  C13 UNL     1      25.207  -0.778  52.972  1.00  0.00     0.113 C 
BRANCH   9  10
HETATM   10  N4  UNL     1      24.031  -0.083  53.221  1.00  0.00    -0.361 N 
HETATM   11  H16 UNL     1      24.290   0.946  53.326  1.00  0.00     0.165 HD
BRANCH  10  12
HETATM   12  C14 UNL     1      22.650  -0.328  53.379  1.00  0.00     0.075 A 
HETATM   13  C15 UNL     1      21.408  -0.166  52.798  1.00  0.00     0.143 A 
HETATM   14  N5  UNL     1      20.504  -0.721  53.643  1.00  0.00    -0.283 N 
HETATM   15  C16 UNL     1      19.114  -0.689  53.300  1.00  0.00     0.179 C 
HETATM   16  N6  UNL     1      21.113  -1.214  54.707  1.00  0.00    -0.176 NA
HETATM   17  C17 UNL     1      22.446  -0.991  54.585  1.00  0.00     0.079 A 
HETATM   18  C18 UNL     1      23.294  -1.494  55.712  1.00  0.00     0.075 C 
ENDBRANCH  10  12
ENDBRANCH   9  10
ENDBRANCH   6   7
BRANCH   1  19
HETATM   19  O2  UNL     1      26.529   1.863  52.057  1.00  0.00    -0.333 OA
BRANCH  19  20
HETATM   20  C7  UNL     1      26.402   2.398  50.802  1.00  0.00     0.188 C 
BRANCH  20  21
HETATM   21  C6  UNL     1      25.263   3.408  50.789  1.00  0.00     0.058 C 
HETATM   22  C3  UNL     1      24.248   3.114  49.695  1.00  0.00     0.040 C 
HETATM   23  C4  UNL     1      23.105   2.506  50.409  1.00  0.00     0.155 C 
HETATM   24  N1  UNL     1      23.278   2.764  51.807  1.00  0.00    -0.305 NA
HETATM   25  C5  UNL     1      24.455   3.263  52.055  1.00  0.00     0.090 C 
BRANCH  22  26
HETATM   26  C2  UNL     1      23.954   4.455  49.045  1.00  0.00     0.174 C 
BRANCH  26  27
HETATM   27  O1  UNL     1      24.966   5.369  49.123  1.00  0.00    -0.395 OA
HETATM   28  C1  UNL     1      24.547   6.677  49.191  1.00  0.00     0.201 C 
ENDBRANCH  26  27
ENDBRANCH  22  26
ENDBRANCH  20  21
ENDBRANCH  19  20
ENDBRANCH   1  19
TORSDOF 8
ENDMDL
MODEL 4
REMARK VINA RESULT:      -7.2      2.576      6.312
REMARK  8 active torsions:
REMARK  status: ('A' for Active; 'I' for Inactive)
REMARK    1  A    between atoms: O1_2  and  C2_3 
REMARK    2  A    between atoms: C2_3  and  C3_4 
REMARK    3  A    between atoms: C6_8  and  C7_9 
REMARK    4  A    between atoms: C7_9  and  O2_10 
REMARK    5  A    between atoms: O2_10  and  C8_11 
REMARK    6  A    between atoms: C11_16  and  C12_17 
REMARK    7  A    between atoms: C13_19  and  N4_20 
REMARK    8  A    between atoms: N4_20  and  C14_21 
ROOT
HETATM    1  C8  UNL     1      26.319   0.701  52.059  1.00  0.00     0.179 A 
HETATM    2  N2  UNL     1      27.246  -0.213  52.327  1.00  0.00    -0.217 NA
HETATM    3  C9  UNL     1      27.185  -1.115  53.296  1.00  0.00     0.235 A 
HETATM    4  N3  UNL     1      26.126  -1.141  54.087  1.00  0.00    -0.253 NA
HETATM    5  C10 UNL     1      25.090  -0.277  53.944  1.00  0.00     0.135 A 
HETATM    6  C11 UNL     1      25.196   0.661  52.908  1.00  0.00     0.057 A 
ENDROOT
BRANCH   6   7
HETATM    7  C12 UNL     1      24.053   1.562  52.891  1.00  0.00     0.065 C 
HETATM    8 CL1  UNL     1      24.422   3.180  53.491  1.00  0.00    -0.082 Cl
HETATM    9  C13 UNL     1      22.793   1.458  52.539  1.00  0.00     0.113 C 
BRANCH   9  10
HETATM   10  N4  UNL     1      21.884   0.541  52.028  1.00  0.00    -0.361 N 
HETATM   11  H16 UNL     1      22.395  -0.025  51.283  1.00  0.00     0.165 HD
BRANCH  10  12
HETATM   12  C14 UNL     1      20.536   0.159  52.191  1.00  0.00     0.075 A 
HETATM   13  C15 UNL     1      19.276   0.221  51.630  1.00  0.00     0.143 A 
HETATM   14  N5  UNL     1      18.441  -0.447  52.463  1.00  0.00    -0.283 N 
HETATM   15  C16 UNL     1      17.050  -0.537  52.135  1.00  0.00     0.179 C 
HETATM   16  N6  UNL     1      19.109  -0.918  53.502  1.00  0.00    -0.176 NA
HETATM   17  C17 UNL     1      20.413  -0.563  53.373  1.00  0.00     0.079 A 
HETATM   18  C18 UNL     1      21.320  -1.023  54.473  1.00  0.00     0.075 C 
ENDBRANCH  10  12
ENDBRANCH   9  10
ENDBRANCH   6   7
BRANCH   1  19
HETATM   19  O2  UNL     1      26.137   1.687  51.182  1.00  0.00    -0.333 OA
BRANCH  19  20
HETATM   20  C7  UNL     1      26.701   2.885  50.832  1.00  0.00     0.188 C 
BRANCH  20  21
HETATM   21  C6  UNL     1      25.991   3.449  49.610  1.00  0.00     0.058 C 
HETATM   22  C3  UNL     1      24.661   4.095  49.966  1.00  0.00     0.040 C 
HETATM   23  C4  UNL     1      24.936   5.548  49.921  1.00  0.00     0.155 C 
HETATM   24  N1  UNL     1      26.184   5.734  49.246  1.00  0.00    -0.305 NA
HETATM   25  C5  UNL     1      26.795   4.600  49.054  1.00  0.00     0.090 C 
BRANCH  22  26
HETATM   26  C2  UNL     1      23.678   3.599  48.919  1.00  0.00     0.174 C 
BRANCH  26  27
HETATM   27  O1  UNL     1      22.506   3.103  49.417  1.00  0.00    -0.395 OA
HETATM   28  C1  UNL     1      22.028   1.999  48.750  1.00  0.00     0.201 C 
ENDBRANCH  26  27
ENDBRANCH  22  26
ENDBRANCH  20  21
ENDBRANCH  19  20
ENDBRANCH   1  19
TORSDOF 8
ENDMDL
MODEL 5
REMARK VINA RESULT:      -7.0      2.532      5.806
REMARK  8 active torsions:
REMARK  status: ('A' for Active; 'I' for Inactive)
REMARK    1  A    between atoms: O1_2  and  C2_3 
REMARK    2  A    between atoms: C2_3  and  C3_4 
REMARK    3  A    between atoms: C6_8  and  C7_9 
REMARK    4  A    between atoms: C7_9  and  O2_10 
REMARK    5  A    between atoms: O2_10  and  C8_11 
REMARK    6  A    between atoms: C11_16  and  C12_17 
REMARK    7  A    between atoms: C13_19  and  N4_20 
REMARK    8  A    between atoms: N4_20  and  C14_21 
ROOT
HETATM    1  C8  UNL     1      22.084   2.014  52.126  1.00  0.00     0.179 A 
HETATM    2  N2  UNL     1      21.271   2.494  51.190  1.00  0.00    -0.217 NA
HETATM    3  C9  UNL     1      20.172   1.904  50.745  1.00  0.00     0.235 A 
HETATM    4  N3  UNL     1      19.818   0.734  51.249  1.00  0.00    -0.253 NA
HETATM    5  C10 UNL     1      20.539   0.110  52.214  1.00  0.00     0.135 A 
HETATM    6  C11 UNL     1      21.694   0.769  52.655  1.00  0.00     0.057 A 
ENDROOT
BRANCH   6   7
HETATM    7  C12 UNL     1      22.408  -0.022  53.648  1.00  0.00     0.065 C 
HETATM    8 CL1  UNL     1      21.387  -0.570  54.979  1.00  0.00    -0.082 Cl
HETATM    9  C13 UNL     1      23.648  -0.426  53.798  1.00  0.00     0.113 C 
BRANCH   9  10
HETATM   10  N4  UNL     1      24.889  -0.360  53.180  1.00  0.00    -0.361 N 
HETATM   11  H16 UNL     1      24.758  -0.689  52.174  1.00  0.00     0.165 HD
BRANCH  10  12
HETATM   12  C14 UNL     1      26.222  -0.009  53.481  1.00  0.00     0.075 A 
HETATM   13  C15 UNL     1      27.025   0.946  54.074  1.00  0.00     0.143 A 
HETATM   14  N5  UNL     1      28.305   0.520  53.942  1.00  0.00    -0.283 N 
HETATM   15  C16 UNL     1      29.368   1.327  54.461  1.00  0.00     0.179 C 
HETATM   16  N6  UNL     1      28.340  -0.639  53.306  1.00  0.00    -0.176 NA
HETATM   17  C17 UNL     1      27.069  -1.003  53.000  1.00  0.00     0.079 A 
HETATM   18  C18 UNL     1      26.924  -2.304  52.274  1.00  0.00     0.075 C 
ENDBRANCH  10  12
ENDBRANCH   9  10
ENDBRANCH   6   7
BRANCH   1  19
HETATM   19  O2  UNL     1      23.210   2.385  52.734  1.00  0.00    -0.333 OA
BRANCH  19  20
HETATM   20  C7  UNL     1      24.399   2.998  52.437  1.00  0.00     0.188 C 
BRANCH  20  21
HETATM   21  C6  UNL     1      24.751   2.754  50.977  1.00  0.00     0.058 C 
HETATM   22  C3  UNL     1      24.545   3.994  50.122  1.00  0.00     0.040 C 
HETATM   23  C4  UNL     1      25.912   4.516  49.899  1.00  0.00     0.155 C 
HETATM   24  N1  UNL     1      26.836   3.485  50.264  1.00  0.00    -0.305 NA
HETATM   25  C5  UNL     1      26.233   2.496  50.859  1.00  0.00     0.090 C 
BRANCH  22  26
HETATM   26  C2  UNL     1      23.836   3.510  48.869  1.00  0.00     0.174 C 
BRANCH  26  27
HETATM   27  O1  UNL     1      23.050   4.442  48.253  1.00  0.00    -0.395 OA
HETATM   28  C1  UNL     1      22.316   5.224  49.113  1.00  0.00     0.201 C 
ENDBRANCH  26  27
ENDBRANCH  22  26
ENDBRANCH  20  21
ENDBRANCH  19  20
ENDBRANCH   1  19
TORSDOF 8
ENDMDL
MODEL 6
REMARK VINA RESULT:      -7.0      1.805      5.570
REMARK  8 active torsions:
REMARK  status: ('A' for Active; 'I' for Inactive)
REMARK    1  A    between atoms: O1_2  and  C2_3 
REMARK    2  A    between atoms: C2_3  and  C3_4 
REMARK    3  A    between atoms: C6_8  and  C7_9 
REMARK    4  A    between atoms: C7_9  and  O2_10 
REMARK    5  A    between atoms: O2_10  and  C8_11 
REMARK    6  A    between atoms: C11_16  and  C12_17 
REMARK    7  A    between atoms: C13_19  and  N4_20 
REMARK    8  A    between atoms: N4_20  and  C14_21 
ROOT
HETATM    1  C8  UNL     1      24.375   4.116  50.480  1.00  0.00     0.179 A 
HETATM    2  N2  UNL     1      24.605   5.400  50.736  1.00  0.00    -0.217 NA
HETATM    3  C9  UNL     1      23.703   6.370  50.694  1.00  0.00     0.235 A 
HETATM    4  N3  UNL     1      22.455   6.077  50.374  1.00  0.00    -0.253 NA
HETATM    5  C10 UNL     1      22.055   4.813  50.087  1.00  0.00     0.135 A 
HETATM    6  C11 UNL     1      23.041   3.818  50.142  1.00  0.00     0.057 A 
ENDROOT
BRANCH   6   7
HETATM    7  C12 UNL     1      22.503   2.519  49.764  1.00  0.00     0.065 C 
HETATM    8 CL1  UNL     1      22.737   2.129  48.059  1.00  0.00    -0.082 Cl
HETATM    9  C13 UNL     1      21.869   1.557  50.392  1.00  0.00     0.113 C 
BRANCH   9  10
HETATM   10  N4  UNL     1      21.383   1.222  51.649  1.00  0.00    -0.361 N 
HETATM   11  H16 UNL     1      20.484   1.777  51.797  1.00  0.00     0.165 HD
BRANCH  10  12
HETATM   12  C14 UNL     1      21.719   0.404  52.748  1.00  0.00     0.075 A 
HETATM   13  C15 UNL     1      22.746   0.014  53.585  1.00  0.00     0.143 A 
HETATM   14  N5  UNL     1      22.221  -0.876  54.462  1.00  0.00    -0.283 N 
HETATM   15  C16 UNL     1      23.070  -1.464  55.455  1.00  0.00     0.179 C 
HETATM   16  N6  UNL     1      20.935  -1.058  54.218  1.00  0.00    -0.176 NA
HETATM   17  C17 UNL     1      20.582  -0.284  53.161  1.00  0.00     0.079 A 
HETATM   18  C18 UNL     1      19.145  -0.366  52.749  1.00  0.00     0.075 C 
ENDBRANCH  10  12
ENDBRANCH   9  10
ENDBRANCH   6   7
BRANCH   1  19
HETATM   19  O2  UNL     1      25.071   2.981  50.449  1.00  0.00    -0.333 OA
BRANCH  19  20
HETATM   20  C7  UNL     1      26.207   2.442  50.993  1.00  0.00     0.188 C 
BRANCH  20  21
HETATM   21  C6  UNL     1      25.834   1.508  52.136  1.00  0.00     0.058 C 
HETATM   22  C3  UNL     1      26.949   0.527  52.462  1.00  0.00     0.040 C 
HETATM   23  C4  UNL     1      27.562   1.066  53.696  1.00  0.00     0.155 C 
HETATM   24  N1  UNL     1      26.665   2.040  54.238  1.00  0.00    -0.305 NA
HETATM   25  C5  UNL     1      25.697   2.309  53.408  1.00  0.00     0.090 C 
BRANCH  22  26
HETATM   26  C2  UNL     1      26.267  -0.821  52.625  1.00  0.00     0.174 C 
BRANCH  26  27
HETATM   27  O1  UNL     1      26.928  -1.710  53.424  1.00  0.00    -0.395 OA
HETATM   28  C1  UNL     1      27.751  -2.580  52.748  1.00  0.00     0.201 C 
ENDBRANCH  26  27
ENDBRANCH  22  26
ENDBRANCH  20  21
ENDBRANCH  19  20
ENDBRANCH   1  19
TORSDOF 8
ENDMDL
MODEL 7
REMARK VINA RESULT:      -7.0      1.691      2.199
REMARK  8 active torsions:
REMARK  status: ('A' for Active; 'I' for Inactive)
REMARK    1  A    between atoms: O1_2  and  C2_3 
REMARK    2  A    between atoms: C2_3  and  C3_4 
REMARK    3  A    between atoms: C6_8  and  C7_9 
REMARK    4  A    between atoms: C7_9  and  O2_10 
REMARK    5  A    between atoms: O2_10  and  C8_11 
REMARK    6  A    between atoms: C11_16  and  C12_17 
REMARK    7  A    between atoms: C13_19  and  N4_20 
REMARK    8  A    between atoms: N4_20  and  C14_21 
ROOT
HETATM    1  C8  UNL     1      22.636   0.889  52.511  1.00  0.00     0.179 A 
HETATM    2  N2  UNL     1      22.008   0.486  53.611  1.00  0.00    -0.217 NA
HETATM    3  C9  UNL     1      20.700   0.322  53.739  1.00  0.00     0.235 A 
HETATM    4  N3  UNL     1      19.914   0.571  52.705  1.00  0.00    -0.253 NA
HETATM    5  C10 UNL     1      20.398   0.988  51.509  1.00  0.00     0.135 A 
HETATM    6  C11 UNL     1      21.787   1.148  51.417  1.00  0.00     0.057 A 
ENDROOT
BRANCH   6   7
HETATM    7  C12 UNL     1      22.176   1.648  50.106  1.00  0.00     0.065 C 
HETATM    8 CL1  UNL     1      21.513   0.709  48.768  1.00  0.00    -0.082 Cl
HETATM    9  C13 UNL     1      22.920   2.639  49.673  1.00  0.00     0.113 C 
BRANCH   9  10
HETATM   10  N4  UNL     1      23.696   3.693  50.138  1.00  0.00    -0.361 N 
HETATM   11  H16 UNL     1      23.780   3.580  51.195  1.00  0.00     0.165 HD
BRANCH  10  12
HETATM   12  C14 UNL     1      24.371   4.830  49.645  1.00  0.00     0.075 A 
HETATM   13  C15 UNL     1      24.223   6.154  49.283  1.00  0.00     0.143 A 
HETATM   14  N5  UNL     1      25.441   6.589  48.877  1.00  0.00    -0.283 N 
HETATM   15  C16 UNL     1      25.587   7.941  48.428  1.00  0.00     0.179 C 
HETATM   16  N6  UNL     1      26.330   5.614  48.966  1.00  0.00    -0.176 NA
HETATM   17  C17 UNL     1      25.707   4.504  49.438  1.00  0.00     0.079 A 
HETATM   18  C18 UNL     1      26.577   3.296  49.605  1.00  0.00     0.075 C 
ENDBRANCH  10  12
ENDBRANCH   9  10
ENDBRANCH   6   7
BRANCH   1  19
HETATM   19  O2  UNL     1      23.888   1.129  52.126  1.00  0.00    -0.333 OA
BRANCH  19  20
HETATM   20  C7  UNL     1      25.019   1.745  52.592  1.00  0.00     0.188 C 
BRANCH  20  21
HETATM   21  C6  UNL     1      26.123   0.715  52.781  1.00  0.00     0.058 C 
HETATM   22  C3  UNL     1      27.042   1.064  53.941  1.00  0.00     0.040 C 
HETATM   23  C4  UNL     1      26.621   0.153  55.028  1.00  0.00     0.155 C 
HETATM   24  N1  UNL     1      25.805  -0.870  54.447  1.00  0.00    -0.305 NA
HETATM   25  C5  UNL     1      25.512  -0.597  53.208  1.00  0.00     0.090 C 
BRANCH  22  26
HETATM   26  C2  UNL     1      28.452   0.832  53.425  1.00  0.00     0.174 C 
BRANCH  26  27
HETATM   27  O1  UNL     1      29.232   0.035  54.214  1.00  0.00    -0.395 OA
HETATM   28  C1  UNL     1      29.695  -1.101  53.592  1.00  0.00     0.201 C 
ENDBRANCH  26  27
ENDBRANCH  22  26
ENDBRANCH  20  21
ENDBRANCH  19  20
ENDBRANCH   1  19
TORSDOF 8
ENDMDL
MODEL 8
REMARK VINA RESULT:      -6.9      2.406      5.441
REMARK  8 active torsions:
REMARK  status: ('A' for Active; 'I' for Inactive)
REMARK    1  A    between atoms: O1_2  and  C2_3 
REMARK    2  A    between atoms: C2_3  and  C3_4 
REMARK    3  A    between atoms: C6_8  and  C7_9 
REMARK    4  A    between atoms: C7_9  and  O2_10 
REMARK    5  A    between atoms: O2_10  and  C8_11 
REMARK    6  A    between atoms: C11_16  and  C12_17 
REMARK    7  A    between atoms: C13_19  and  N4_20 
REMARK    8  A    between atoms: N4_20  and  C14_21 
ROOT
HETATM    1  C8  UNL     1      25.715   3.365  50.725  1.00  0.00     0.179 A 
HETATM    2  N2  UNL     1      26.795   3.177  49.973  1.00  0.00    -0.217 NA
HETATM    3  C9  UNL     1      27.241   4.005  49.040  1.00  0.00     0.235 A 
HETATM    4  N3  UNL     1      26.582   5.127  48.805  1.00  0.00    -0.253 NA
HETATM    5  C10 UNL     1      25.462   5.469  49.489  1.00  0.00     0.135 A 
HETATM    6  C11 UNL     1      25.025   4.565  50.466  1.00  0.00     0.057 A 
ENDROOT
BRANCH   6   7
HETATM    7  C12 UNL     1      23.789   5.016  51.089  1.00  0.00     0.065 C 
HETATM    8 CL1  UNL     1      23.927   6.592  51.869  1.00  0.00    -0.082 Cl
HETATM    9  C13 UNL     1      22.580   4.521  51.221  1.00  0.00     0.113 C 
BRANCH   9  10
HETATM   10  N4  UNL     1      21.826   3.404  50.886  1.00  0.00    -0.361 N 
HETATM   11  H16 UNL     1      21.595   3.480  49.848  1.00  0.00     0.165 HD
BRANCH  10  12
HETATM   12  C14 UNL     1      21.288   2.250  51.493  1.00  0.00     0.075 A 
HETATM   13  C15 UNL     1      20.817   1.720  52.678  1.00  0.00     0.143 A 
HETATM   14  N5  UNL     1      20.451   0.441  52.419  1.00  0.00    -0.283 N 
HETATM   15  C16 UNL     1      19.930  -0.367  53.480  1.00  0.00     0.179 C 
HETATM   16  N6  UNL     1      20.667   0.150  51.147  1.00  0.00    -0.176 NA
HETATM   17  C17 UNL     1      21.187   1.245  50.536  1.00  0.00     0.079 A 
HETATM   18  C18 UNL     1      21.490   1.089  49.078  1.00  0.00     0.075 C 
ENDBRANCH  10  12
ENDBRANCH   9  10
ENDBRANCH   6   7
BRANCH   1  19
HETATM   19  O2  UNL     1      25.068   2.719  51.694  1.00  0.00    -0.333 OA
BRANCH  19  20
HETATM   20  C7  UNL     1      24.807   1.435  52.094  1.00  0.00     0.188 C 
BRANCH  20  21
HETATM   21  C6  UNL     1      26.106   0.748  52.492  1.00  0.00     0.058 C 
HETATM   22  C3  UNL     1      26.731   1.374  53.728  1.00  0.00     0.040 C 
HETATM   23  C4  UNL     1      26.417   0.424  54.818  1.00  0.00     0.155 C 
HETATM   24  N1  UNL     1      25.987  -0.802  54.215  1.00  0.00    -0.305 NA
HETATM   25  C5  UNL     1      25.807  -0.664  52.933  1.00  0.00     0.090 C 
BRANCH  22  26
HETATM   26  C2  UNL     1      28.210   1.513  53.409  1.00  0.00     0.174 C 
BRANCH  26  27
HETATM   27  O1  UNL     1      29.043   0.768  54.195  1.00  0.00    -0.395 OA
HETATM   28  C1  UNL     1      29.900  -0.050  53.499  1.00  0.00     0.201 C 
ENDBRANCH  26  27
ENDBRANCH  22  26
ENDBRANCH  20  21
ENDBRANCH  19  20
ENDBRANCH   1  19
TORSDOF 8
ENDMDL
MODEL 9
REMARK VINA RESULT:      -6.9      2.967      5.063
REMARK  8 active torsions:
REMARK  status: ('A' for Active; 'I' for Inactive)
REMARK    1  A    between atoms: O1_2  and  C2_3 
REMARK    2  A    between atoms: C2_3  and  C3_4 
REMARK    3  A    between atoms: C6_8  and  C7_9 
REMARK    4  A    between atoms: C7_9  and  O2_10 
REMARK    5  A    between atoms: O2_10  and  C8_11 
REMARK    6  A    between atoms: C11_16  and  C12_17 
REMARK    7  A    between atoms: C13_19  and  N4_20 
REMARK    8  A    between atoms: N4_20  and  C14_21 
ROOT
HETATM    1  C8  UNL     1      25.809   3.105  50.884  1.00  0.00     0.179 A 
HETATM    2  N2  UNL     1      26.804   3.329  50.032  1.00  0.00    -0.217 NA
HETATM    3  C9  UNL     1      26.855   4.309  49.142  1.00  0.00     0.235 A 
HETATM    4  N3  UNL     1      25.847   5.161  49.063  1.00  0.00    -0.253 NA
HETATM    5  C10 UNL     1      24.756   5.073  49.864  1.00  0.00     0.135 A 
HETATM    6  C11 UNL     1      24.743   4.021  50.790  1.00  0.00     0.057 A 
ENDROOT
BRANCH   6   7
HETATM    7  C12 UNL     1      23.502   4.001  51.550  1.00  0.00     0.065 C 
HETATM    8 CL1  UNL     1      23.591   4.894  53.069  1.00  0.00    -0.082 Cl
HETATM    9  C13 UNL     1      22.316   3.463  51.380  1.00  0.00     0.113 C 
BRANCH   9  10
HETATM   10  N4  UNL     1      21.601   2.682  50.481  1.00  0.00    -0.361 N 
HETATM   11  H16 UNL     1      21.928   1.675  50.611  1.00  0.00     0.165 HD
BRANCH  10  12
HETATM   12  C14 UNL     1      20.616   2.824  49.481  1.00  0.00     0.075 A 
HETATM   13  C15 UNL     1      19.279   3.078  49.251  1.00  0.00     0.143 A 
HETATM   14  N5  UNL     1      19.097   3.041  47.908  1.00  0.00    -0.283 N 
HETATM   15  C16 UNL     1      17.788   3.262  47.373  1.00  0.00     0.179 C 
HETATM   16  N6  UNL     1      20.241   2.782  47.297  1.00  0.00    -0.176 NA
HETATM   17  C17 UNL     1      21.210   2.638  48.236  1.00  0.00     0.079 A 
HETATM   18  C18 UNL     1      22.581   2.341  47.712  1.00  0.00     0.075 C 
ENDBRANCH  10  12
ENDBRANCH   9  10
ENDBRANCH   6   7
BRANCH   1  19
HETATM   19  O2  UNL     1      25.514   2.228  51.842  1.00  0.00    -0.333 OA
BRANCH  19  20
HETATM   20  C7  UNL     1      25.263   0.889  51.985  1.00  0.00     0.188 C 
BRANCH  20  21
HETATM   21  C6  UNL     1      26.476   0.203  52.599  1.00  0.00     0.058 C 
HETATM   22  C3  UNL     1      27.061   1.000  53.754  1.00  0.00     0.040 C 
HETATM   23  C4  UNL     1      26.603   0.283  54.964  1.00  0.00     0.155 C 
HETATM   24  N1  UNL     1      26.121  -1.001  54.552  1.00  0.00    -0.305 NA
HETATM   25  C5  UNL     1      26.040  -1.084  53.255  1.00  0.00     0.090 C 
BRANCH  22  26
HETATM   26  C2  UNL     1      28.565   0.985  53.535  1.00  0.00     0.174 C 
BRANCH  26  27
HETATM   27  O1  UNL     1      29.255   0.108  54.323  1.00  0.00    -0.395 OA
HETATM   28  C1  UNL     1      29.927  -0.871  53.631  1.00  0.00     0.201 C 
ENDBRANCH  26  27
ENDBRANCH  22  26
ENDBRANCH  20  21
ENDBRANCH  19  20
ENDBRANCH   1  19
TORSDOF 8
ENDMDL
