MODEL 1
REMARK VINA RESULT:      -9.3      0.000      0.000
REMARK  1 active torsions:
REMARK  status: ('A' for Active; 'I' for Inactive)
REMARK    1  A    between atoms: C4_6  and  C5_7 
ROOT
HETATM    1  O1  UNL     1      17.440  -1.462  53.329  1.00  0.00    -0.267 OA
HETATM    2  C1  UNL     1      18.283  -0.654  52.843  1.00  0.00     0.255 A 
HETATM    3  C2  UNL     1      17.911   0.282  51.828  1.00  0.00     0.083 A 
HETATM    4  C3  UNL     1      18.795   1.121  51.325  1.00  0.00     0.066 A 
HETATM    5  S1  UNL     1      20.315   0.698  52.232  1.00  0.00    -0.063 SA
HETATM    6  C4  UNL     1      21.910   0.912  51.872  1.00  0.00     0.013 C 
HETATM    7  C11 UNL     1      23.270   0.746  52.156  1.00  0.00     0.095 C 
HETATM    8  C12 UNL     1      24.328   0.350  52.824  1.00  0.00     0.057 A 
HETATM    9  N1  UNL     1      25.147   0.897  51.912  1.00  0.00    -0.245 NA
HETATM   10  C13 UNL     1      26.502   0.808  51.991  1.00  0.00     0.232 A 
HETATM   11  N2  UNL     1      27.035   0.151  53.015  1.00  0.00    -0.253 NA
HETATM   12  C14 UNL     1      26.227  -0.392  53.923  1.00  0.00     0.131 A 
HETATM   13  C15 UNL     1      24.863  -0.330  53.891  1.00  0.00     0.004 A 
HETATM   14  C16 UNL     1      24.257  -0.890  54.894  1.00  0.00     0.004 C 
HETATM   15  C17 UNL     1      22.949  -1.147  55.490  1.00  0.00     0.145 C 
HETATM   16  N3  UNL     1      22.288  -2.261  54.856  1.00  0.00    -0.201 NA
HETATM   17  O2  UNL     1      21.660  -1.725  53.754  1.00  0.00    -0.285 OA
HETATM   18  C18 UNL     1      20.423  -1.310  54.245  1.00  0.00     0.334 C 
HETATM   19  N4  UNL     1      19.643  -0.608  53.253  1.00  0.00    -0.266 N 
HETATM   20  H13 UNL     1      21.594  -2.719  55.455  1.00  0.00     0.154 HD
ENDROOT
BRANCH   6  21
HETATM   21  C5  UNL     1      22.212   1.573  50.581  1.00  0.00    -0.020 A 
HETATM   22  C6  UNL     1      21.756   1.038  49.383  1.00  0.00     0.012 A 
HETATM   23  C7  UNL     1      21.949   1.557  48.103  1.00  0.00     0.002 A 
HETATM   24  C8  UNL     1      22.678   2.728  48.086  1.00  0.00     0.019 A 
HETATM   25  C9  UNL     1      23.178   3.348  49.205  1.00  0.00     0.011 A 
HETATM   26 BR1  UNL     1      24.179   4.966  49.138  1.00  0.00    -0.051 Br
HETATM   27  C10 UNL     1      22.928   2.743  50.442  1.00  0.00     0.031 A 
ENDBRANCH   6  21
TORSDOF 1
ENDMDL
MODEL 2
REMARK VINA RESULT:      -9.1      2.972      5.735
REMARK  1 active torsions:
REMARK  status: ('A' for Active; 'I' for Inactive)
REMARK    1  A    between atoms: C4_6  and  C5_7 
ROOT
HETATM    1  O1  UNL     1      26.603  -0.179  55.522  1.00  0.00    -0.267 OA
HETATM    2  C1  UNL     1      26.531   0.412  54.407  1.00  0.00     0.255 A 
HETATM    3  C2  UNL     1      27.656   1.107  53.864  1.00  0.00     0.083 A 
HETATM    4  C3  UNL     1      27.574   1.723  52.701  1.00  0.00     0.066 A 
HETATM    5  S1  UNL     1      25.856   1.402  52.194  1.00  0.00    -0.063 SA
HETATM    6  C4  UNL     1      24.843   2.196  51.164  1.00  0.00     0.013 C 
HETATM    7  C11 UNL     1      23.596   2.373  50.554  1.00  0.00     0.095 C 
HETATM    8  C12 UNL     1      22.335   2.129  50.285  1.00  0.00     0.057 A 
HETATM    9  N1  UNL     1      22.290   3.154  49.418  1.00  0.00    -0.245 NA
HETATM   10  C13 UNL     1      21.157   3.509  48.755  1.00  0.00     0.232 A 
HETATM   11  N2  UNL     1      20.049   2.811  48.975  1.00  0.00    -0.253 NA
HETATM   12  C14 UNL     1      20.089   1.793  49.832  1.00  0.00     0.131 A 
HETATM   13  C15 UNL     1      21.199   1.396  50.522  1.00  0.00     0.004 A 
HETATM   14  C16 UNL     1      21.038   0.353  51.280  1.00  0.00     0.004 C 
HETATM   15  C17 UNL     1      21.724  -0.569  52.181  1.00  0.00     0.145 C 
HETATM   16  N3  UNL     1      21.875  -0.005  53.500  1.00  0.00    -0.201 NA
HETATM   17  O2  UNL     1      23.021   0.755  53.436  1.00  0.00    -0.285 OA
HETATM   18  C18 UNL     1      24.038  -0.149  53.739  1.00  0.00     0.334 C 
HETATM   19  N4  UNL     1      25.352   0.436  53.613  1.00  0.00    -0.266 N 
HETATM   20  H13 UNL     1      21.975  -0.711  54.236  1.00  0.00     0.154 HD
ENDROOT
BRANCH   6  21
HETATM   21  C5  UNL     1      25.392   3.401  50.497  1.00  0.00    -0.020 A 
HETATM   22  C6  UNL     1      26.457   3.301  49.612  1.00  0.00     0.012 A 
HETATM   23  C7  UNL     1      27.062   4.341  48.905  1.00  0.00     0.002 A 
HETATM   24  C8  UNL     1      26.501   5.576  49.151  1.00  0.00     0.019 A 
HETATM   25  C9  UNL     1      25.447   5.794  50.004  1.00  0.00     0.011 A 
HETATM   26 BR1  UNL     1      24.700   7.518  50.315  1.00  0.00    -0.051 Br
HETATM   27  C10 UNL     1      24.913   4.682  50.665  1.00  0.00     0.031 A 
ENDBRANCH   6  21
TORSDOF 1
ENDMDL
MODEL 3
REMARK VINA RESULT:      -9.1      3.218      5.841
REMARK  1 active torsions:
REMARK  status: ('A' for Active; 'I' for Inactive)
REMARK    1  A    between atoms: C4_6  and  C5_7 
ROOT
HETATM    1  O1  UNL     1      20.404   0.013  54.685  1.00  0.00    -0.267 OA
HETATM    2  C1  UNL     1      21.581   0.007  54.224  1.00  0.00     0.255 A 
HETATM    3  C2  UNL     1      22.585  -0.851  54.772  1.00  0.00     0.083 A 
HETATM    4  C3  UNL     1      23.812  -0.853  54.287  1.00  0.00     0.066 A 
HETATM    5  S1  UNL     1      23.722   0.387  52.958  1.00  0.00    -0.063 SA
HETATM    6  C4  UNL     1      24.879   1.309  52.229  1.00  0.00     0.013 C 
HETATM    7  C11 UNL     1      25.275   2.305  51.330  1.00  0.00     0.095 C 
HETATM    8  C12 UNL     1      25.133   3.240  50.420  1.00  0.00     0.057 A 
HETATM    9  N1  UNL     1      26.459   3.450  50.385  1.00  0.00    -0.245 NA
HETATM   10  C13 UNL     1      27.035   4.402  49.603  1.00  0.00     0.232 A 
HETATM   11  N2  UNL     1      26.250   5.156  48.842  1.00  0.00    -0.253 NA
HETATM   12  C14 UNL     1      24.934   4.951  48.872  1.00  0.00     0.131 A 
HETATM   13  C15 UNL     1      24.308   4.009  49.637  1.00  0.00     0.004 A 
HETATM   14  C16 UNL     1      23.019   3.942  49.491  1.00  0.00     0.004 C 
HETATM   15  C17 UNL     1      21.819   3.222  49.907  1.00  0.00     0.145 C 
HETATM   16  N3  UNL     1      21.350   3.673  51.194  1.00  0.00    -0.201 NA
HETATM   17  O2  UNL     1      22.078   2.953  52.114  1.00  0.00    -0.285 OA
HETATM   18  C18 UNL     1      21.336   1.786  52.287  1.00  0.00     0.334 C 
HETATM   19  N4  UNL     1      21.999   0.832  53.146  1.00  0.00    -0.266 N 
HETATM   20  H13 UNL     1      20.350   3.506  51.345  1.00  0.00     0.154 HD
ENDROOT
BRANCH   6  21
HETATM   21  C5  UNL     1      26.269   1.125  52.710  1.00  0.00    -0.020 A 
HETATM   22  C6  UNL     1      26.987   2.190  53.237  1.00  0.00     0.012 A 
HETATM   23  C7  UNL     1      28.288   2.160  53.738  1.00  0.00     0.002 A 
HETATM   24  C8  UNL     1      28.875   0.914  53.678  1.00  0.00     0.019 A 
HETATM   25  C9  UNL     1      28.261  -0.210  53.179  1.00  0.00     0.011 A 
HETATM   26 BR1  UNL     1      29.107  -1.915  53.116  1.00  0.00    -0.051 Br
HETATM   27  C10 UNL     1      26.954  -0.071  52.700  1.00  0.00     0.031 A 
ENDBRANCH   6  21
TORSDOF 1
ENDMDL
MODEL 4
REMARK VINA RESULT:      -9.0      3.206      5.620
REMARK  1 active torsions:
REMARK  status: ('A' for Active; 'I' for Inactive)
REMARK    1  A    between atoms: C4_6  and  C5_7 
ROOT
HETATM    1  O1  UNL     1      26.778   4.913  49.456  1.00  0.00    -0.267 OA
HETATM    2  C1  UNL     1      25.706   4.270  49.642  1.00  0.00     0.255 A 
HETATM    3  C2  UNL     1      24.507   4.612  48.942  1.00  0.00     0.083 A 
HETATM    4  C3  UNL     1      23.391   3.938  49.140  1.00  0.00     0.066 A 
HETATM    5  S1  UNL     1      23.885   2.695  50.374  1.00  0.00    -0.063 SA
HETATM    6  C4  UNL     1      23.017   1.831  51.478  1.00  0.00     0.013 C 
HETATM    7  C11 UNL     1      22.930   0.923  52.539  1.00  0.00     0.095 C 
HETATM    8  C12 UNL     1      23.359   0.089  53.457  1.00  0.00     0.057 A 
HETATM    9  N1  UNL     1      22.104  -0.149  53.872  1.00  0.00    -0.245 NA
HETATM   10  C13 UNL     1      21.816  -0.971  54.916  1.00  0.00     0.232 A 
HETATM   11  N2  UNL     1      22.820  -1.564  55.551  1.00  0.00    -0.253 NA
HETATM   12  C14 UNL     1      24.066  -1.333  55.143  1.00  0.00     0.131 A 
HETATM   13  C15 UNL     1      24.409  -0.518  54.101  1.00  0.00     0.004 A 
HETATM   14  C16 UNL     1      25.679  -0.459  53.837  1.00  0.00     0.004 C 
HETATM   15  C17 UNL     1      26.671   0.113  52.930  1.00  0.00     0.145 C 
HETATM   16  N3  UNL     1      26.984   1.477  53.280  1.00  0.00    -0.201 NA
HETATM   17  O2  UNL     1      26.014   2.236  52.667  1.00  0.00    -0.285 OA
HETATM   18  C18 UNL     1      26.532   2.475  51.395  1.00  0.00     0.334 C 
HETATM   19  N4  UNL     1      25.600   3.175  50.542  1.00  0.00    -0.266 N 
HETATM   20  H13 UNL     1      27.909   1.778  52.956  1.00  0.00     0.154 HD
ENDROOT
BRANCH   6  21
HETATM   21  C5  UNL     1      21.555   2.074  51.505  1.00  0.00    -0.020 A 
HETATM   22  C6  UNL     1      21.047   3.314  51.872  1.00  0.00     0.012 A 
HETATM   23  C7  UNL     1      19.704   3.688  51.927  1.00  0.00     0.002 A 
HETATM   24  C8  UNL     1      18.834   2.680  51.567  1.00  0.00     0.019 A 
HETATM   25  C9  UNL     1      19.223   1.419  51.186  1.00  0.00     0.011 A 
HETATM   26 BR1  UNL     1      17.988   0.054  50.696  1.00  0.00    -0.051 Br
HETATM   27  C10 UNL     1      20.595   1.146  51.166  1.00  0.00     0.031 A 
ENDBRANCH   6  21
TORSDOF 1
ENDMDL
MODEL 5
REMARK VINA RESULT:      -9.0      2.079      5.243
REMARK  1 active torsions:
REMARK  status: ('A' for Active; 'I' for Inactive)
REMARK    1  A    between atoms: C4_6  and  C5_7 
ROOT
HETATM    1  O1  UNL     1      27.476  -0.215  55.063  1.00  0.00    -0.267 OA
HETATM    2  C1  UNL     1      26.811   0.208  54.074  1.00  0.00     0.255 A 
HETATM    3  C2  UNL     1      27.415   1.029  53.072  1.00  0.00     0.083 A 
HETATM    4  C3  UNL     1      26.716   1.467  52.044  1.00  0.00     0.066 A 
HETATM    5  S1  UNL     1      25.065   0.767  52.351  1.00  0.00    -0.063 SA
HETATM    6  C4  UNL     1      23.562   1.220  51.845  1.00  0.00     0.013 C 
HETATM    7  C11 UNL     1      22.170   1.080  51.838  1.00  0.00     0.095 C 
HETATM    8  C12 UNL     1      21.003   0.572  52.156  1.00  0.00     0.057 A 
HETATM    9  N1  UNL     1      20.368   1.452  51.365  1.00  0.00    -0.245 NA
HETATM   10  C13 UNL     1      19.014   1.501  51.254  1.00  0.00     0.232 A 
HETATM   11  N2  UNL     1      18.289   0.640  51.959  1.00  0.00    -0.253 NA
HETATM   12  C14 UNL     1      18.913  -0.236  52.744  1.00  0.00     0.131 A 
HETATM   13  C15 UNL     1      20.268  -0.327  52.889  1.00  0.00     0.004 A 
HETATM   14  C16 UNL     1      20.680  -1.278  53.673  1.00  0.00     0.004 C 
HETATM   15  C17 UNL     1      21.869  -1.933  54.211  1.00  0.00     0.145 C 
HETATM   16  N3  UNL     1      22.430  -1.190  55.312  1.00  0.00    -0.201 NA
HETATM   17  O2  UNL     1      23.240  -0.242  54.729  1.00  0.00    -0.285 OA
HETATM   18  C18 UNL     1      24.464  -0.893  54.584  1.00  0.00     0.334 C 
HETATM   19  N4  UNL     1      25.435  -0.091  53.877  1.00  0.00    -0.266 N 
HETATM   20  H13 UNL     1      22.986  -1.766  55.952  1.00  0.00     0.154 HD
ENDROOT
BRANCH   6  21
HETATM   21  C5  UNL     1      23.494   2.413  50.968  1.00  0.00    -0.020 A 
HETATM   22  C6  UNL     1      23.159   2.291  49.626  1.00  0.00     0.012 A 
HETATM   23  C7  UNL     1      23.042   3.322  48.692  1.00  0.00     0.002 A 
HETATM   24  C8  UNL     1      23.297   4.572  49.215  1.00  0.00     0.019 A 
HETATM   25  C9  UNL     1      23.635   4.812  50.524  1.00  0.00     0.011 A 
HETATM   26 BR1  UNL     1      23.978   6.557  51.207  1.00  0.00    -0.051 Br
HETATM   27  C10 UNL     1      23.726   3.708  51.379  1.00  0.00     0.031 A 
ENDBRANCH   6  21
TORSDOF 1
ENDMDL
MODEL 6
REMARK VINA RESULT:      -8.5      2.029      2.473
REMARK  1 active torsions:
REMARK  status: ('A' for Active; 'I' for Inactive)
REMARK    1  A    between atoms: C4_6  and  C5_7 
ROOT
HETATM    1  O1  UNL     1      17.577   1.793  51.594  1.00  0.00    -0.267 OA
HETATM    2  C1  UNL     1      18.717   2.339  51.634  1.00  0.00     0.255 A 
HETATM    3  C2  UNL     1      18.945   3.622  51.046  1.00  0.00     0.083 A 
HETATM    4  C3  UNL     1      20.136   4.185  51.090  1.00  0.00     0.066 A 
HETATM    5  S1  UNL     1      21.131   2.954  51.987  1.00  0.00    -0.063 SA
HETATM    6  C4  UNL     1      22.754   2.661  52.024  1.00  0.00     0.013 C 
HETATM    7  C11 UNL     1      23.862   1.916  52.441  1.00  0.00     0.095 C 
HETATM    8  C12 UNL     1      24.515   0.959  53.058  1.00  0.00     0.057 A 
HETATM    9  N1  UNL     1      25.690   1.426  52.605  1.00  0.00    -0.245 NA
HETATM   10  C13 UNL     1      26.877   0.817  52.869  1.00  0.00     0.232 A 
HETATM   11  N2  UNL     1      26.871  -0.287  53.608  1.00  0.00    -0.253 NA
HETATM   12  C14 UNL     1      25.709  -0.753  54.061  1.00  0.00     0.131 A 
HETATM   13  C15 UNL     1      24.492  -0.180  53.825  1.00  0.00     0.004 A 
HETATM   14  C16 UNL     1      23.482  -0.768  54.391  1.00  0.00     0.004 C 
HETATM   15  C17 UNL     1      22.038  -0.698  54.597  1.00  0.00     0.145 C 
HETATM   16  N3  UNL     1      21.315  -1.210  53.459  1.00  0.00    -0.201 NA
HETATM   17  O2  UNL     1      21.224  -0.150  52.585  1.00  0.00    -0.285 OA
HETATM   18  C18 UNL     1      20.064   0.511  52.985  1.00  0.00     0.334 C 
HETATM   19  N4  UNL     1      19.847   1.737  52.252  1.00  0.00    -0.266 N 
HETATM   20  H13 UNL     1      20.374  -1.544  53.690  1.00  0.00     0.154 HD
ENDROOT
BRANCH   6  21
HETATM   21  C5  UNL     1      23.602   3.545  51.190  1.00  0.00    -0.020 A 
HETATM   22  C6  UNL     1      24.375   3.024  50.160  1.00  0.00     0.012 A 
HETATM   23  C7  UNL     1      25.203   3.734  49.290  1.00  0.00     0.002 A 
HETATM   24  C8  UNL     1      25.217   5.092  49.525  1.00  0.00     0.019 A 
HETATM   25  C9  UNL     1      24.495   5.717  50.513  1.00  0.00     0.011 A 
HETATM   26 BR1  UNL     1      24.541   7.598  50.804  1.00  0.00    -0.051 Br
HETATM   27  C10 UNL     1      23.695   4.913  51.332  1.00  0.00     0.031 A 
ENDBRANCH   6  21
TORSDOF 1
ENDMDL
MODEL 7
REMARK VINA RESULT:      -8.5      2.035      5.286
REMARK  1 active torsions:
REMARK  status: ('A' for Active; 'I' for Inactive)
REMARK    1  A    between atoms: C4_6  and  C5_7 
ROOT
HETATM    1  O1  UNL     1      26.128  -0.552  55.260  1.00  0.00    -0.267 OA
HETATM    2  C1  UNL     1      25.618  -0.118  54.187  1.00  0.00     0.255 A 
HETATM    3  C2  UNL     1      26.413   0.561  53.211  1.00  0.00     0.083 A 
HETATM    4  C3  UNL     1      25.875   1.011  52.095  1.00  0.00     0.066 A 
HETATM    5  S1  UNL     1      24.129   0.530  52.265  1.00  0.00    -0.063 SA
HETATM    6  C4  UNL     1      22.749   1.123  51.583  1.00  0.00     0.013 C 
HETATM    7  C11 UNL     1      21.358   1.147  51.438  1.00  0.00     0.095 C 
HETATM    8  C12 UNL     1      20.112   0.800  51.660  1.00  0.00     0.057 A 
HETATM    9  N1  UNL     1      19.670   1.697  50.763  1.00  0.00    -0.245 NA
HETATM   10  C13 UNL     1      18.349   1.897  50.510  1.00  0.00     0.232 A 
HETATM   11  N2  UNL     1      17.459   1.173  51.179  1.00  0.00    -0.253 NA
HETATM   12  C14 UNL     1      17.892   0.282  52.069  1.00  0.00     0.131 A 
HETATM   13  C15 UNL     1      19.205   0.042  52.359  1.00  0.00     0.004 A 
HETATM   14  C16 UNL     1      19.419  -0.899  53.229  1.00  0.00     0.004 C 
HETATM   15  C17 UNL     1      20.460  -1.652  53.921  1.00  0.00     0.145 C 
HETATM   16  N3  UNL     1      21.000  -0.911  55.034  1.00  0.00    -0.201 NA
HETATM   17  O2  UNL     1      21.973  -0.104  54.490  1.00  0.00    -0.285 OA
HETATM   18  C18 UNL     1      23.115  -0.901  54.507  1.00  0.00     0.334 C 
HETATM   19  N4  UNL     1      24.242  -0.266  53.864  1.00  0.00    -0.266 N 
HETATM   20  H13 UNL     1      21.416  -1.506  55.757  1.00  0.00     0.154 HD
ENDROOT
BRANCH   6  21
HETATM   21  C5  UNL     1      22.913   2.257  50.643  1.00  0.00    -0.020 A 
HETATM   22  C6  UNL     1      23.522   3.437  51.051  1.00  0.00     0.012 A 
HETATM   23  C7  UNL     1      23.756   4.573  50.276  1.00  0.00     0.002 A 
HETATM   24  C8  UNL     1      23.316   4.455  48.974  1.00  0.00     0.019 A 
HETATM   25  C9  UNL     1      22.703   3.338  48.461  1.00  0.00     0.011 A 
HETATM   26 BR1  UNL     1      22.110   3.214  46.655  1.00  0.00    -0.051 Br
HETATM   27  C10 UNL     1      22.515   2.252  49.324  1.00  0.00     0.031 A 
ENDBRANCH   6  21
TORSDOF 1
ENDMDL
MODEL 8
REMARK VINA RESULT:      -8.4      1.988      5.441
REMARK  1 active torsions:
REMARK  status: ('A' for Active; 'I' for Inactive)
REMARK    1  A    between atoms: C4_6  and  C5_7 
ROOT
HETATM    1  O1  UNL     1      22.888  -1.619  55.768  1.00  0.00    -0.267 OA
HETATM    2  C1  UNL     1      22.826  -1.096  54.619  1.00  0.00     0.255 A 
HETATM    3  C2  UNL     1      23.993  -0.575  53.979  1.00  0.00     0.083 A 
HETATM    4  C3  UNL     1      23.922  -0.030  52.780  1.00  0.00     0.066 A 
HETATM    5  S1  UNL     1      22.154  -0.178  52.375  1.00  0.00    -0.063 SA
HETATM    6  C4  UNL     1      21.186   0.663  51.338  1.00  0.00     0.013 C 
HETATM    7  C11 UNL     1      19.937   0.945  50.773  1.00  0.00     0.095 C 
HETATM    8  C12 UNL     1      18.644   0.835  50.579  1.00  0.00     0.057 A 
HETATM    9  N1  UNL     1      18.671   1.800  49.645  1.00  0.00    -0.245 NA
HETATM   10  C13 UNL     1      17.553   2.243  49.010  1.00  0.00     0.232 A 
HETATM   11  N2  UNL     1      16.385   1.696  49.327  1.00  0.00    -0.253 NA
HETATM   12  C14 UNL     1      16.353   0.738  50.251  1.00  0.00     0.131 A 
HETATM   13  C15 UNL     1      17.445   0.257  50.917  1.00  0.00     0.004 A 
HETATM   14  C16 UNL     1      17.206  -0.708  51.752  1.00  0.00     0.004 C 
HETATM   15  C17 UNL     1      17.828  -1.644  52.684  1.00  0.00     0.145 C 
HETATM   16  N3  UNL     1      18.112  -1.019  53.952  1.00  0.00    -0.201 NA
HETATM   17  O2  UNL     1      19.332  -0.405  53.784  1.00  0.00    -0.285 OA
HETATM   18  C18 UNL     1      20.253  -1.401  54.104  1.00  0.00     0.334 C 
HETATM   19  N4  UNL     1      21.618  -0.984  53.879  1.00  0.00    -0.266 N 
HETATM   20  H13 UNL     1      18.169  -1.683  54.731  1.00  0.00     0.154 HD
ENDROOT
BRANCH   6  21
HETATM   21  C5  UNL     1      21.833   1.749  50.565  1.00  0.00    -0.020 A 
HETATM   22  C6  UNL     1      22.104   1.595  49.211  1.00  0.00     0.012 A 
HETATM   23  C7  UNL     1      22.691   2.531  48.360  1.00  0.00     0.002 A 
HETATM   24  C8  UNL     1      23.016   3.718  48.984  1.00  0.00     0.019 A 
HETATM   25  C9  UNL     1      22.794   3.981  50.314  1.00  0.00     0.011 A 
HETATM   26 BR1  UNL     1      23.257   5.635  51.137  1.00  0.00    -0.051 Br
HETATM   27  C10 UNL     1      22.200   2.973  51.080  1.00  0.00     0.031 A 
ENDBRANCH   6  21
TORSDOF 1
ENDMDL
MODEL 9
REMARK VINA RESULT:      -8.2      3.108      5.467
REMARK  1 active torsions:
REMARK  status: ('A' for Active; 'I' for Inactive)
REMARK    1  A    between atoms: C4_6  and  C5_7 
ROOT
HETATM    1  O1  UNL     1      24.244   5.833  49.404  1.00  0.00    -0.267 OA
HETATM    2  C1  UNL     1      23.351   4.941  49.481  1.00  0.00     0.255 A 
HETATM    3  C2  UNL     1      22.156   5.022  48.699  1.00  0.00     0.083 A 
HETATM    4  C3  UNL     1      21.228   4.089  48.783  1.00  0.00     0.066 A 
HETATM    5  S1  UNL     1      21.923   2.938  50.009  1.00  0.00    -0.063 SA
HETATM    6  C4  UNL     1      21.218   1.833  51.010  1.00  0.00     0.013 C 
HETATM    7  C11 UNL     1      21.281   0.876  52.028  1.00  0.00     0.095 C 
HETATM    8  C12 UNL     1      21.836   0.122  52.948  1.00  0.00     0.057 A 
HETATM    9  N1  UNL     1      20.651  -0.433  53.252  1.00  0.00    -0.245 NA
HETATM   10  C13 UNL     1      20.500  -1.355  54.240  1.00  0.00     0.232 A 
HETATM   11  N2  UNL     1      21.572  -1.721  54.934  1.00  0.00    -0.253 NA
HETATM   12  C14 UNL     1      22.750  -1.175  54.635  1.00  0.00     0.131 A 
HETATM   13  C15 UNL     1      22.954  -0.248  53.653  1.00  0.00     0.004 A 
HETATM   14  C16 UNL     1      24.187   0.130  53.494  1.00  0.00     0.004 C 
HETATM   15  C17 UNL     1      25.070   0.971  52.691  1.00  0.00     0.145 C 
HETATM   16  N3  UNL     1      25.016   2.349  53.111  1.00  0.00    -0.201 NA
HETATM   17  O2  UNL     1      23.935   2.884  52.448  1.00  0.00    -0.285 OA
HETATM   18  C18 UNL     1      24.466   3.308  51.232  1.00  0.00     0.334 C 
HETATM   19  N4  UNL     1      23.453   3.807  50.331  1.00  0.00    -0.266 N 
HETATM   20  H13 UNL     1      25.859   2.881  52.874  1.00  0.00     0.154 HD
ENDROOT
BRANCH   6  21
HETATM   21  C5  UNL     1      19.742   1.715  50.927  1.00  0.00    -0.020 A 
HETATM   22  C6  UNL     1      19.148   0.586  50.379  1.00  0.00     0.012 A 
HETATM   23  C7  UNL     1      17.782   0.334  50.251  1.00  0.00     0.002 A 
HETATM   24  C8  UNL     1      16.985   1.348  50.737  1.00  0.00     0.019 A 
HETATM   25  C9  UNL     1      17.461   2.508  51.299  1.00  0.00     0.011 A 
HETATM   26 BR1  UNL     1      16.325   3.885  51.961  1.00  0.00    -0.051 Br
HETATM   27  C10 UNL     1      18.849   2.662  51.379  1.00  0.00     0.031 A 
ENDBRANCH   6  21
TORSDOF 1
ENDMDL
