MODEL 1
REMARK VINA RESULT:      -7.2      0.000      0.000
REMARK  7 active torsions:
REMARK  status: ('A' for Active; 'I' for Inactive)
REMARK    1  A    between atoms: O1_2  and  C2_3 
REMARK    2  A    between atoms: C4_5  and  N1_6 
REMARK    3  A    between atoms: N1_6  and  C5_7 
REMARK    4  A    between atoms: N2_8  and  C6_9 
REMARK    5  A    between atoms: C6_9  and  N3_10 
REMARK    6  A    between atoms: N3_10  and  C8_12 
REMARK    7  A    between atoms: C16_23  and  O2_24 
ROOT
HETATM    1  C5  UNL     1      23.012   1.564  51.505  1.00  0.00     0.230 C 
HETATM    2  N2  UNL     1      23.707   2.625  51.267  1.00  0.00    -0.263 NA
ENDROOT
BRANCH   1   3
HETATM    3  N1  UNL     1      22.742   0.483  52.359  1.00  0.00    -0.225 NA
BRANCH   3   4
HETATM    4  C4  UNL     1      21.530   0.092  52.559  1.00  0.00     0.133 A 
HETATM    5  C3  UNL     1      20.392   0.380  51.845  1.00  0.00     0.090 A 
HETATM    6  C2  UNL     1      19.175  -0.142  52.226  1.00  0.00     0.106 A 
HETATM    7  C16 UNL     1      19.034  -0.966  53.320  1.00  0.00     0.117 A 
HETATM    8  C15 UNL     1      20.211  -1.229  54.011  1.00  0.00     0.131 A 
HETATM    9  N4  UNL     1      21.412  -0.719  53.644  1.00  0.00    -0.343 N 
HETATM   10  C14 UNL     1      22.531  -1.102  54.483  1.00  0.00     0.157 C 
BRANCH   6  11
HETATM   11  O1  UNL     1      18.057   0.167  51.488  1.00  0.00    -0.353 OA
HETATM   12  C1  UNL     1      18.105   0.605  50.149  1.00  0.00     0.210 C 
ENDBRANCH   6  11
BRANCH   7  13
HETATM   13  O2  UNL     1      17.809  -1.486  53.696  1.00  0.00    -0.352 OA
HETATM   14  C17 UNL     1      17.578  -2.871  53.578  1.00  0.00     0.210 C 
ENDBRANCH   7  13
ENDBRANCH   3   4
ENDBRANCH   1   3
BRANCH   2  15
HETATM   15  C6  UNL     1      24.726   3.034  52.219  1.00  0.00     0.274 C 
BRANCH  15  16
HETATM   16  N3  UNL     1      26.001   2.610  51.691  1.00  0.00    -0.367 N 
HETATM   17  C7  UNL     1      26.457   3.203  50.441  1.00  0.00     0.151 C 
BRANCH  16  18
HETATM   18  C8  UNL     1      26.868   1.655  52.286  1.00  0.00     0.033 A 
HETATM   19  C9  UNL     1      28.003   1.952  53.006  1.00  0.00     0.032 A 
HETATM   20  C10 UNL     1      28.844   1.026  53.584  1.00  0.00     0.046 A 
HETATM   21  C11 UNL     1      28.563  -0.298  53.453  1.00  0.00     0.138 A 
HETATM   22  F1  UNL     1      29.338  -1.269  53.989  1.00  0.00    -0.204 F 
HETATM   23  C12 UNL     1      27.438  -0.658  52.743  1.00  0.00     0.074 A 
HETATM   24 CL1  UNL     1      27.065  -2.354  52.568  1.00  0.00    -0.081 Cl
HETATM   25  C13 UNL     1      26.629   0.302  52.185  1.00  0.00     0.056 A 
ENDBRANCH  16  18
ENDBRANCH  15  16
ENDBRANCH   2  15
TORSDOF 7
ENDMDL
MODEL 2
REMARK VINA RESULT:      -7.1      4.508      6.988
REMARK  7 active torsions:
REMARK  status: ('A' for Active; 'I' for Inactive)
REMARK    1  A    between atoms: O1_2  and  C2_3 
REMARK    2  A    between atoms: C4_5  and  N1_6 
REMARK    3  A    between atoms: N1_6  and  C5_7 
REMARK    4  A    between atoms: N2_8  and  C6_9 
REMARK    5  A    between atoms: C6_9  and  N3_10 
REMARK    6  A    between atoms: N3_10  and  C8_12 
REMARK    7  A    between atoms: C16_23  and  O2_24 
ROOT
HETATM    1  C5  UNL     1      22.888   2.375  51.829  1.00  0.00     0.230 C 
HETATM    2  N2  UNL     1      22.300   3.413  52.319  1.00  0.00    -0.263 NA
ENDROOT
BRANCH   1   3
HETATM    3  N1  UNL     1      24.081   1.777  51.390  1.00  0.00    -0.225 NA
BRANCH   3   4
HETATM    4  C4  UNL     1      24.854   1.168  52.222  1.00  0.00     0.133 A 
HETATM    5  C3  UNL     1      24.531   0.298  53.236  1.00  0.00     0.090 A 
HETATM    6  C2  UNL     1      25.516  -0.254  54.026  1.00  0.00     0.106 A 
HETATM    7  C16 UNL     1      26.852   0.029  53.846  1.00  0.00     0.117 A 
HETATM    8  C15 UNL     1      27.130   0.912  52.809  1.00  0.00     0.131 A 
HETATM    9  N4  UNL     1      26.168   1.460  52.029  1.00  0.00    -0.343 N 
HETATM   10  C14 UNL     1      26.644   2.360  50.996  1.00  0.00     0.157 C 
BRANCH   6  11
HETATM   11  O1  UNL     1      25.158  -1.119  55.032  1.00  0.00    -0.353 OA
HETATM   12  C1  UNL     1      23.830  -1.287  55.476  1.00  0.00     0.210 C 
ENDBRANCH   6  11
BRANCH   7  13
HETATM   13  O2  UNL     1      27.835  -0.529  54.643  1.00  0.00    -0.352 OA
HETATM   14  C17 UNL     1      29.186  -0.411  54.263  1.00  0.00     0.210 C 
ENDBRANCH   7  13
ENDBRANCH   3   4
ENDBRANCH   1   3
BRANCH   2  15
HETATM   15  C6  UNL     1      23.085   4.601  52.612  1.00  0.00     0.274 C 
BRANCH  15  16
HETATM   16  N3  UNL     1      22.927   5.505  51.498  1.00  0.00    -0.367 N 
HETATM   17  C7  UNL     1      21.578   5.768  51.013  1.00  0.00     0.151 C 
BRANCH  16  18
HETATM   18  C8  UNL     1      23.980   6.174  50.818  1.00  0.00     0.033 A 
HETATM   19  C9  UNL     1      24.140   7.539  50.749  1.00  0.00     0.032 A 
HETATM   20  C10 UNL     1      25.161   8.189  50.092  1.00  0.00     0.046 A 
HETATM   21  C11 UNL     1      26.106   7.455  49.444  1.00  0.00     0.138 A 
HETATM   22  F1  UNL     1      27.140   8.016  48.774  1.00  0.00    -0.204 F 
HETATM   23  C12 UNL     1      25.999   6.082  49.477  1.00  0.00     0.074 A 
HETATM   24 CL1  UNL     1      27.205   5.128  48.651  1.00  0.00    -0.081 Cl
HETATM   25  C13 UNL     1      24.963   5.478  50.148  1.00  0.00     0.056 A 
ENDBRANCH  16  18
ENDBRANCH  15  16
ENDBRANCH   2  15
TORSDOF 7
ENDMDL
MODEL 3
REMARK VINA RESULT:      -7.1      4.693      6.672
REMARK  7 active torsions:
REMARK  status: ('A' for Active; 'I' for Inactive)
REMARK    1  A    between atoms: O1_2  and  C2_3 
REMARK    2  A    between atoms: C4_5  and  N1_6 
REMARK    3  A    between atoms: N1_6  and  C5_7 
REMARK    4  A    between atoms: N2_8  and  C6_9 
REMARK    5  A    between atoms: C6_9  and  N3_10 
REMARK    6  A    between atoms: N3_10  and  C8_12 
REMARK    7  A    between atoms: C16_23  and  O2_24 
ROOT
HETATM    1  C5  UNL     1      22.717   1.967  51.575  1.00  0.00     0.230 C 
HETATM    2  N2  UNL     1      22.548   2.953  50.760  1.00  0.00    -0.263 NA
ENDROOT
BRANCH   1   3
HETATM    3  N1  UNL     1      23.130   1.526  52.842  1.00  0.00    -0.225 NA
BRANCH   3   4
HETATM    4  C4  UNL     1      24.329   1.091  53.026  1.00  0.00     0.133 A 
HETATM    5  C3  UNL     1      25.529   1.681  52.708  1.00  0.00     0.090 A 
HETATM    6  C2  UNL     1      26.719   1.045  52.990  1.00  0.00     0.106 A 
HETATM    7  C16 UNL     1      26.771  -0.191  53.595  1.00  0.00     0.117 A 
HETATM    8  C15 UNL     1      25.534  -0.747  53.899  1.00  0.00     0.131 A 
HETATM    9  N4  UNL     1      24.360  -0.130  53.624  1.00  0.00    -0.343 N 
HETATM   10  C14 UNL     1      23.168  -0.861  54.012  1.00  0.00     0.157 C 
BRANCH   6  11
HETATM   11  O1  UNL     1      27.900   1.664  52.658  1.00  0.00    -0.353 OA
HETATM   12  C1  UNL     1      28.629   2.479  53.548  1.00  0.00     0.210 C 
ENDBRANCH   6  11
BRANCH   7  13
HETATM   13  O2  UNL     1      27.969  -0.822  53.876  1.00  0.00    -0.352 OA
HETATM   14  C17 UNL     1      28.357  -1.942  53.115  1.00  0.00     0.210 C 
ENDBRANCH   7  13
ENDBRANCH   3   4
ENDBRANCH   1   3
BRANCH   2  15
HETATM   15  C6  UNL     1      22.893   4.297  51.191  1.00  0.00     0.274 C 
BRANCH  15  16
HETATM   16  N3  UNL     1      23.426   4.992  50.043  1.00  0.00    -0.367 N 
HETATM   17  C7  UNL     1      22.520   5.826  49.264  1.00  0.00     0.151 C 
BRANCH  16  18
HETATM   18  C8  UNL     1      24.773   4.940  49.594  1.00  0.00     0.033 A 
HETATM   19  C9  UNL     1      25.614   3.857  49.729  1.00  0.00     0.032 A 
HETATM   20  C10 UNL     1      26.919   3.805  49.293  1.00  0.00     0.046 A 
HETATM   21  C11 UNL     1      27.457   4.892  48.677  1.00  0.00     0.138 A 
HETATM   22  F1  UNL     1      28.731   4.921  48.221  1.00  0.00    -0.204 F 
HETATM   23  C12 UNL     1      26.664   6.006  48.513  1.00  0.00     0.074 A 
HETATM   24 CL1  UNL     1      27.341   7.408  47.723  1.00  0.00    -0.081 Cl
HETATM   25  C13 UNL     1      25.365   6.011  48.964  1.00  0.00     0.056 A 
ENDBRANCH  16  18
ENDBRANCH  15  16
ENDBRANCH   2  15
TORSDOF 7
ENDMDL
MODEL 4
REMARK VINA RESULT:      -6.9      5.386      8.461
REMARK  7 active torsions:
REMARK  status: ('A' for Active; 'I' for Inactive)
REMARK    1  A    between atoms: O1_2  and  C2_3 
REMARK    2  A    between atoms: C4_5  and  N1_6 
REMARK    3  A    between atoms: N1_6  and  C5_7 
REMARK    4  A    between atoms: N2_8  and  C6_9 
REMARK    5  A    between atoms: C6_9  and  N3_10 
REMARK    6  A    between atoms: N3_10  and  C8_12 
REMARK    7  A    between atoms: C16_23  and  O2_24 
ROOT
HETATM    1  C5  UNL     1      26.317   3.483  49.849  1.00  0.00     0.230 C 
HETATM    2  N2  UNL     1      26.474   2.566  50.743  1.00  0.00    -0.263 NA
ENDROOT
BRANCH   1   3
HETATM    3  N1  UNL     1      25.623   4.628  49.426  1.00  0.00    -0.225 NA
BRANCH   3   4
HETATM    4  C4  UNL     1      26.230   5.759  49.317  1.00  0.00     0.133 A 
HETATM    5  C3  UNL     1      27.334   6.088  48.566  1.00  0.00     0.090 A 
HETATM    6  C2  UNL     1      27.838   7.371  48.585  1.00  0.00     0.106 A 
HETATM    7  C16 UNL     1      27.274   8.374  49.342  1.00  0.00     0.117 A 
HETATM    8  C15 UNL     1      26.161   7.995  50.083  1.00  0.00     0.131 A 
HETATM    9  N4  UNL     1      25.660   6.737  50.071  1.00  0.00    -0.343 N 
HETATM   10  C14 UNL     1      24.494   6.525  50.906  1.00  0.00     0.157 C 
BRANCH   6  11
HETATM   11  O1  UNL     1      28.943   7.664  47.823  1.00  0.00    -0.353 OA
HETATM   12  C1  UNL     1      30.254   7.283  48.175  1.00  0.00     0.210 C 
ENDBRANCH   6  11
BRANCH   7  13
HETATM   13  O2  UNL     1      27.786   9.660  49.356  1.00  0.00    -0.352 OA
HETATM   14  C17 UNL     1      27.310  10.605  48.427  1.00  0.00     0.210 C 
ENDBRANCH   7  13
ENDBRANCH   3   4
ENDBRANCH   1   3
BRANCH   2  15
HETATM   15  C6  UNL     1      25.622   2.569  51.920  1.00  0.00     0.274 C 
BRANCH  15  16
HETATM   16  N3  UNL     1      25.789   1.293  52.574  1.00  0.00    -0.367 N 
HETATM   17  C7  UNL     1      24.596   0.506  52.860  1.00  0.00     0.151 C 
BRANCH  16  18
HETATM   18  C8  UNL     1      27.028   0.721  52.971  1.00  0.00     0.033 A 
HETATM   19  C9  UNL     1      28.084   1.414  53.519  1.00  0.00     0.032 A 
HETATM   20  C10 UNL     1      29.285   0.861  53.905  1.00  0.00     0.046 A 
HETATM   21  C11 UNL     1      29.481  -0.476  53.746  1.00  0.00     0.138 A 
HETATM   22  F1  UNL     1      30.631  -1.096  54.099  1.00  0.00    -0.204 F 
HETATM   23  C12 UNL     1      28.459  -1.223  53.203  1.00  0.00     0.074 A 
HETATM   24 CL1  UNL     1      28.697  -2.940  52.994  1.00  0.00    -0.081 Cl
HETATM   25  C13 UNL     1      27.277  -0.627  52.833  1.00  0.00     0.056 A 
ENDBRANCH  16  18
ENDBRANCH  15  16
ENDBRANCH   2  15
TORSDOF 7
ENDMDL
MODEL 5
REMARK VINA RESULT:      -6.9      4.641      7.765
REMARK  7 active torsions:
REMARK  status: ('A' for Active; 'I' for Inactive)
REMARK    1  A    between atoms: O1_2  and  C2_3 
REMARK    2  A    between atoms: C4_5  and  N1_6 
REMARK    3  A    between atoms: N1_6  and  C5_7 
REMARK    4  A    between atoms: N2_8  and  C6_9 
REMARK    5  A    between atoms: C6_9  and  N3_10 
REMARK    6  A    between atoms: N3_10  and  C8_12 
REMARK    7  A    between atoms: C16_23  and  O2_24 
ROOT
HETATM    1  C5  UNL     1      26.751   2.110  51.721  1.00  0.00     0.230 C 
HETATM    2  N2  UNL     1      27.289   1.170  52.421  1.00  0.00    -0.263 NA
ENDROOT
BRANCH   1   3
HETATM    3  N1  UNL     1      25.685   2.532  50.911  1.00  0.00    -0.225 NA
BRANCH   3   4
HETATM    4  C4  UNL     1      25.738   3.661  50.293  1.00  0.00     0.133 A 
HETATM    5  C3  UNL     1      26.738   4.176  49.501  1.00  0.00     0.090 A 
HETATM    6  C2  UNL     1      26.602   5.420  48.922  1.00  0.00     0.106 A 
HETATM    7  C16 UNL     1      25.482   6.200  49.101  1.00  0.00     0.117 A 
HETATM    8  C15 UNL     1      24.499   5.638  49.908  1.00  0.00     0.131 A 
HETATM    9  N4  UNL     1      24.624   4.418  50.482  1.00  0.00    -0.343 N 
HETATM   10  C14 UNL     1      23.498   3.994  51.292  1.00  0.00     0.157 C 
BRANCH   6  11
HETATM   11  O1  UNL     1      27.621   5.903  48.136  1.00  0.00    -0.353 OA
HETATM   12  C1  UNL     1      28.955   5.456  48.231  1.00  0.00     0.210 C 
ENDBRANCH   6  11
BRANCH   7  13
HETATM   13  O2  UNL     1      25.353   7.447  48.516  1.00  0.00    -0.352 OA
HETATM   14  C17 UNL     1      24.556   7.595  47.365  1.00  0.00     0.210 C 
ENDBRANCH   7  13
ENDBRANCH   3   4
ENDBRANCH   1   3
BRANCH   2  15
HETATM   15  C6  UNL     1      26.612  -0.112  52.527  1.00  0.00     0.274 C 
BRANCH  15  16
HETATM   16  N3  UNL     1      25.872  -0.106  53.766  1.00  0.00    -0.367 N 
HETATM   17  C7  UNL     1      26.582   0.247  54.988  1.00  0.00     0.151 C 
BRANCH  16  18
HETATM   18  C8  UNL     1      24.492  -0.415  53.908  1.00  0.00     0.033 A 
HETATM   19  C9  UNL     1      23.931  -1.069  54.982  1.00  0.00     0.032 A 
HETATM   20  C10 UNL     1      22.594  -1.368  55.123  1.00  0.00     0.046 A 
HETATM   21  C11 UNL     1      21.727  -1.006  54.139  1.00  0.00     0.138 A 
HETATM   22  F1  UNL     1      20.400  -1.263  54.200  1.00  0.00    -0.204 F 
HETATM   23  C12 UNL     1      22.230  -0.348  53.038  1.00  0.00     0.074 A 
HETATM   24 CL1  UNL     1      21.127   0.124  51.769  1.00  0.00    -0.081 Cl
HETATM   25  C13 UNL     1      23.572  -0.070  52.943  1.00  0.00     0.056 A 
ENDBRANCH  16  18
ENDBRANCH  15  16
ENDBRANCH   2  15
TORSDOF 7
ENDMDL
MODEL 6
REMARK VINA RESULT:      -6.9      5.590      9.398
REMARK  7 active torsions:
REMARK  status: ('A' for Active; 'I' for Inactive)
REMARK    1  A    between atoms: O1_2  and  C2_3 
REMARK    2  A    between atoms: C4_5  and  N1_6 
REMARK    3  A    between atoms: N1_6  and  C5_7 
REMARK    4  A    between atoms: N2_8  and  C6_9 
REMARK    5  A    between atoms: C6_9  and  N3_10 
REMARK    6  A    between atoms: N3_10  and  C8_12 
REMARK    7  A    between atoms: C16_23  and  O2_24 
ROOT
HETATM    1  C5  UNL     1      26.620   3.793  49.265  1.00  0.00     0.230 C 
HETATM    2  N2  UNL     1      26.323   2.817  50.055  1.00  0.00    -0.263 NA
ENDROOT
BRANCH   1   3
HETATM    3  N1  UNL     1      26.421   5.134  48.901  1.00  0.00    -0.225 NA
BRANCH   3   4
HETATM    4  C4  UNL     1      27.427   5.916  48.704  1.00  0.00     0.133 A 
HETATM    5  C3  UNL     1      28.695   5.612  48.268  1.00  0.00     0.090 A 
HETATM    6  C2  UNL     1      29.641   6.604  48.120  1.00  0.00     0.106 A 
HETATM    7  C16 UNL     1      29.374   7.926  48.393  1.00  0.00     0.117 A 
HETATM    8  C15 UNL     1      28.079   8.185  48.829  1.00  0.00     0.131 A 
HETATM    9  N4  UNL     1      27.144   7.217  48.979  1.00  0.00    -0.343 N 
HETATM   10  C14 UNL     1      25.848   7.673  49.444  1.00  0.00     0.157 C 
BRANCH   6  11
HETATM   11  O1  UNL     1      30.899   6.264  47.683  1.00  0.00    -0.353 OA
HETATM   12  C1  UNL     1      31.877   5.674  48.511  1.00  0.00     0.210 C 
ENDBRANCH   6  11
BRANCH   7  13
HETATM   13  O2  UNL     1      30.328   8.916  48.241  1.00  0.00    -0.352 OA
HETATM   14  C17 UNL     1      30.700   9.697  49.352  1.00  0.00     0.210 C 
ENDBRANCH   7  13
ENDBRANCH   3   4
ENDBRANCH   1   3
BRANCH   2  15
HETATM   15  C6  UNL     1      25.352   3.032  51.114  1.00  0.00     0.274 C 
BRANCH  15  16
HETATM   16  N3  UNL     1      25.279   1.813  51.884  1.00  0.00    -0.367 N 
HETATM   17  C7  UNL     1      23.969   1.209  52.092  1.00  0.00     0.151 C 
BRANCH  16  18
HETATM   18  C8  UNL     1      26.383   1.134  52.466  1.00  0.00     0.033 A 
HETATM   19  C9  UNL     1      26.600  -0.225  52.409  1.00  0.00     0.032 A 
HETATM   20  C10 UNL     1      27.670  -0.884  52.972  1.00  0.00     0.046 A 
HETATM   21  C11 UNL     1      28.608  -0.169  53.651  1.00  0.00     0.138 A 
HETATM   22  F1  UNL     1      29.687  -0.740  54.233  1.00  0.00    -0.204 F 
HETATM   23  C12 UNL     1      28.444   1.196  53.742  1.00  0.00     0.074 A 
HETATM   24 CL1  UNL     1      29.641   2.127  54.609  1.00  0.00    -0.081 Cl
HETATM   25  C13 UNL     1      27.360   1.810  53.162  1.00  0.00     0.056 A 
ENDBRANCH  16  18
ENDBRANCH  15  16
ENDBRANCH   2  15
TORSDOF 7
ENDMDL
MODEL 7
REMARK VINA RESULT:      -6.9      1.472      2.493
REMARK  7 active torsions:
REMARK  status: ('A' for Active; 'I' for Inactive)
REMARK    1  A    between atoms: O1_2  and  C2_3 
REMARK    2  A    between atoms: C4_5  and  N1_6 
REMARK    3  A    between atoms: N1_6  and  C5_7 
REMARK    4  A    between atoms: N2_8  and  C6_9 
REMARK    5  A    between atoms: C6_9  and  N3_10 
REMARK    6  A    between atoms: N3_10  and  C8_12 
REMARK    7  A    between atoms: C16_23  and  O2_24 
ROOT
HETATM    1  C5  UNL     1      22.606   3.528  52.193  1.00  0.00     0.230 C 
HETATM    2  N2  UNL     1      23.871   3.274  52.170  1.00  0.00    -0.263 NA
ENDROOT
BRANCH   1   3
HETATM    3  N1  UNL     1      21.310   3.168  51.789  1.00  0.00    -0.225 NA
BRANCH   3   4
HETATM    4  C4  UNL     1      20.771   2.078  52.214  1.00  0.00     0.133 A 
HETATM    5  C3  UNL     1      21.154   1.262  53.253  1.00  0.00     0.090 A 
HETATM    6  C2  UNL     1      20.434   0.125  53.553  1.00  0.00     0.106 A 
HETATM    7  C16 UNL     1      19.314  -0.248  52.844  1.00  0.00     0.117 A 
HETATM    8  C15 UNL     1      18.965   0.606  51.805  1.00  0.00     0.131 A 
HETATM    9  N4  UNL     1      19.667   1.725  51.502  1.00  0.00    -0.343 N 
HETATM   10  C14 UNL     1      19.155   2.496  50.385  1.00  0.00     0.157 C 
BRANCH   6  11
HETATM   11  O1  UNL     1      20.846  -0.668  54.597  1.00  0.00    -0.353 OA
HETATM   12  C1  UNL     1      22.024  -1.442  54.568  1.00  0.00     0.210 C 
ENDBRANCH   6  11
BRANCH   7  13
HETATM   13  O2  UNL     1      18.597  -1.391  53.152  1.00  0.00    -0.352 OA
HETATM   14  C17 UNL     1      17.190  -1.342  53.172  1.00  0.00     0.210 C 
ENDBRANCH   7  13
ENDBRANCH   3   4
ENDBRANCH   1   3
BRANCH   2  15
HETATM   15  C6  UNL     1      24.349   2.119  51.427  1.00  0.00     0.274 C 
BRANCH  15  16
HETATM   16  N3  UNL     1      25.786   2.226  51.348  1.00  0.00    -0.367 N 
HETATM   17  C7  UNL     1      26.352   3.219  50.443  1.00  0.00     0.151 C 
BRANCH  16  18
HETATM   18  C8  UNL     1      26.717   1.442  52.080  1.00  0.00     0.033 A 
HETATM   19  C9  UNL     1      27.745   1.941  52.850  1.00  0.00     0.032 A 
HETATM   20  C10 UNL     1      28.647   1.182  53.562  1.00  0.00     0.046 A 
HETATM   21  C11 UNL     1      28.548  -0.174  53.525  1.00  0.00     0.138 A 
HETATM   22  F1  UNL     1      29.395  -0.990  54.194  1.00  0.00    -0.204 F 
HETATM   23  C12 UNL     1      27.539  -0.733  52.771  1.00  0.00     0.074 A 
HETATM   24 CL1  UNL     1      27.400  -2.473  52.716  1.00  0.00    -0.081 Cl
HETATM   25  C13 UNL     1      26.661   0.065  52.078  1.00  0.00     0.056 A 
ENDBRANCH  16  18
ENDBRANCH  15  16
ENDBRANCH   2  15
TORSDOF 7
ENDMDL
MODEL 8
REMARK VINA RESULT:      -6.9      3.415      5.900
REMARK  7 active torsions:
REMARK  status: ('A' for Active; 'I' for Inactive)
REMARK    1  A    between atoms: O1_2  and  C2_3 
REMARK    2  A    between atoms: C4_5  and  N1_6 
REMARK    3  A    between atoms: N1_6  and  C5_7 
REMARK    4  A    between atoms: N2_8  and  C6_9 
REMARK    5  A    between atoms: C6_9  and  N3_10 
REMARK    6  A    between atoms: N3_10  and  C8_12 
REMARK    7  A    between atoms: C16_23  and  O2_24 
ROOT
HETATM    1  C5  UNL     1      20.352   2.343  52.431  1.00  0.00     0.230 C 
HETATM    2  N2  UNL     1      20.487   1.355  53.250  1.00  0.00    -0.263 NA
ENDROOT
BRANCH   1   3
HETATM    3  N1  UNL     1      20.545   2.854  51.137  1.00  0.00    -0.225 NA
BRANCH   3   4
HETATM    4  C4  UNL     1      21.685   3.345  50.790  1.00  0.00     0.133 A 
HETATM    5  C3  UNL     1      22.330   4.466  51.255  1.00  0.00     0.090 A 
HETATM    6  C2  UNL     1      23.560   4.828  50.749  1.00  0.00     0.106 A 
HETATM    7  C16 UNL     1      24.198   4.101  49.770  1.00  0.00     0.117 A 
HETATM    8  C15 UNL     1      23.509   2.976  49.331  1.00  0.00     0.131 A 
HETATM    9  N4  UNL     1      22.300   2.614  49.822  1.00  0.00    -0.343 N 
HETATM   10  C14 UNL     1      21.731   1.410  49.245  1.00  0.00     0.157 C 
BRANCH   6  11
HETATM   11  O1  UNL     1      24.175   5.956  51.237  1.00  0.00    -0.353 OA
HETATM   12  C1  UNL     1      23.781   7.266  50.896  1.00  0.00     0.210 C 
ENDBRANCH   6  11
BRANCH   7  13
HETATM   13  O2  UNL     1      25.433   4.471  49.267  1.00  0.00    -0.352 OA
HETATM   14  C17 UNL     1      26.573   3.717  49.605  1.00  0.00     0.210 C 
ENDBRANCH   7  13
ENDBRANCH   3   4
ENDBRANCH   1   3
BRANCH   2  15
HETATM   15  C6  UNL     1      21.105   0.126  52.782  1.00  0.00     0.274 C 
BRANCH  15  16
HETATM   16  N3  UNL     1      22.281  -0.097  53.590  1.00  0.00    -0.367 N 
HETATM   17  C7  UNL     1      22.120  -0.801  54.856  1.00  0.00     0.151 C 
BRANCH  16  18
HETATM   18  C8  UNL     1      23.602   0.311  53.262  1.00  0.00     0.033 A 
HETATM   19  C9  UNL     1      23.988   1.602  52.980  1.00  0.00     0.032 A 
HETATM   20  C10 UNL     1      25.268   1.999  52.663  1.00  0.00     0.046 A 
HETATM   21  C11 UNL     1      26.258   1.067  52.613  1.00  0.00     0.138 A 
HETATM   22  F1  UNL     1      27.540   1.374  52.309  1.00  0.00    -0.204 F 
HETATM   23  C12 UNL     1      25.933  -0.244  52.886  1.00  0.00     0.074 A 
HETATM   24 CL1  UNL     1      27.194  -1.450  52.826  1.00  0.00    -0.081 Cl
HETATM   25  C13 UNL     1      24.640  -0.592  53.199  1.00  0.00     0.056 A 
ENDBRANCH  16  18
ENDBRANCH  15  16
ENDBRANCH   2  15
TORSDOF 7
ENDMDL
MODEL 9
REMARK VINA RESULT:      -6.8      4.976      7.099
REMARK  7 active torsions:
REMARK  status: ('A' for Active; 'I' for Inactive)
REMARK    1  A    between atoms: O1_2  and  C2_3 
REMARK    2  A    between atoms: C4_5  and  N1_6 
REMARK    3  A    between atoms: N1_6  and  C5_7 
REMARK    4  A    between atoms: N2_8  and  C6_9 
REMARK    5  A    between atoms: C6_9  and  N3_10 
REMARK    6  A    between atoms: N3_10  and  C8_12 
REMARK    7  A    between atoms: C16_23  and  O2_24 
ROOT
HETATM    1  C5  UNL     1      23.829   3.376  52.212  1.00  0.00     0.230 C 
HETATM    2  N2  UNL     1      23.572   4.602  51.905  1.00  0.00    -0.263 NA
ENDROOT
BRANCH   1   3
HETATM    3  N1  UNL     1      24.137   2.077  51.775  1.00  0.00    -0.225 NA
BRANCH   3   4
HETATM    4  C4  UNL     1      24.930   1.327  52.459  1.00  0.00     0.133 A 
HETATM    5  C3  UNL     1      24.647   0.490  53.513  1.00  0.00     0.090 A 
HETATM    6  C2  UNL     1      25.649  -0.238  54.118  1.00  0.00     0.106 A 
HETATM    7  C16 UNL     1      26.962  -0.170  53.709  1.00  0.00     0.117 A 
HETATM    8  C15 UNL     1      27.200   0.688  52.642  1.00  0.00     0.131 A 
HETATM    9  N4  UNL     1      26.222   1.408  52.041  1.00  0.00    -0.343 N 
HETATM   10  C14 UNL     1      26.656   2.250  50.943  1.00  0.00     0.157 C 
BRANCH   6  11
HETATM   11  O1  UNL     1      25.330  -1.064  55.169  1.00  0.00    -0.353 OA
HETATM   12  C1  UNL     1      24.005  -1.344  55.563  1.00  0.00     0.210 C 
ENDBRANCH   6  11
BRANCH   7  13
HETATM   13  O2  UNL     1      27.962  -0.904  54.322  1.00  0.00    -0.352 OA
HETATM   14  C17 UNL     1      29.267  -0.874  53.793  1.00  0.00     0.210 C 
ENDBRANCH   7  13
ENDBRANCH   3   4
ENDBRANCH   1   3
BRANCH   2  15
HETATM   15  C6  UNL     1      23.549   4.993  50.505  1.00  0.00     0.274 C 
BRANCH  15  16
HETATM   16  N3  UNL     1      24.422   6.134  50.364  1.00  0.00    -0.367 N 
HETATM   17  C7  UNL     1      24.013   7.392  50.975  1.00  0.00     0.151 C 
BRANCH  16  18
HETATM   18  C8  UNL     1      25.665   6.146  49.676  1.00  0.00     0.033 A 
HETATM   19  C9  UNL     1      26.328   5.031  49.213  1.00  0.00     0.032 A 
HETATM   20  C10 UNL     1      27.532   5.041  48.544  1.00  0.00     0.046 A 
HETATM   21  C11 UNL     1      28.148   6.230  48.305  1.00  0.00     0.138 A 
HETATM   22  F1  UNL     1      29.331   6.326  47.656  1.00  0.00    -0.204 F 
HETATM   23  C12 UNL     1      27.532   7.382  48.744  1.00  0.00     0.074 A 
HETATM   24 CL1  UNL     1      28.311   8.915  48.443  1.00  0.00    -0.081 Cl
HETATM   25  C13 UNL     1      26.330   7.322  49.407  1.00  0.00     0.056 A 
ENDBRANCH  16  18
ENDBRANCH  15  16
ENDBRANCH   2  15
TORSDOF 7
ENDMDL
