MODEL 1
REMARK VINA RESULT:      -6.8      0.000      0.000
REMARK  9 active torsions:
REMARK  status: ('A' for Active; 'I' for Inactive)
REMARK    1  A    between atoms: C7_7  and  N1_8 
REMARK    2  A    between atoms: N1_8  and  C8_9 
REMARK    3  A    between atoms: C12_15  and  C13_16 
REMARK    4  A    between atoms: C13_16  and  O1_17 
REMARK    5  A    between atoms: C13_16  and  C14_18 
REMARK    6  A    between atoms: C14_18  and  C15_19 
REMARK    7  A    between atoms: C15_19  and  O2_20 
REMARK    8  A    between atoms: O2_20  and  C16_21 
REMARK    9  A    between atoms: C16_21  and  C17_22 
ROOT
HETATM    1  C1  UNL     1      19.807  -0.386  53.126  1.00  0.00     0.018 C 
HETATM    2  C2  UNL     1      20.955  -0.541  53.518  1.00  0.00    -0.078 C 
HETATM    3  C3  UNL     1      22.312  -0.716  53.987  1.00  0.00     0.019 A 
HETATM    4  C4  UNL     1      22.527  -1.041  55.309  1.00  0.00     0.021 A 
HETATM    5  C5  UNL     1      23.860  -1.197  55.694  1.00  0.00     0.004 A 
HETATM    6  C6  UNL     1      24.872  -1.028  54.793  1.00  0.00     0.029 A 
HETATM    7  C7  UNL     1      24.654  -0.700  53.459  1.00  0.00     0.035 A 
HETATM    8  C19 UNL     1      23.343  -0.550  53.086  1.00  0.00     0.050 A 
ENDROOT
BRANCH   7   9
HETATM    9  N1  UNL     1      25.796  -0.551  52.632  1.00  0.00    -0.340 N 
HETATM   10  H5  UNL     1      25.769  -0.752  51.606  1.00  0.00     0.167 HD
BRANCH   9  11
HETATM   11  C8  UNL     1      27.082  -0.126  53.055  1.00  0.00     0.137 A 
HETATM   12  N2  UNL     1      27.907  -1.096  53.375  1.00  0.00    -0.224 NA
HETATM   13  C9  UNL     1      29.212  -0.777  53.818  1.00  0.00     0.229 A 
HETATM   14  N3  UNL     1      29.501   0.441  53.885  1.00  0.00    -0.278 NA
HETATM   15  C10 UNL     1      28.769   1.615  53.605  1.00  0.00     0.192 A 
HETATM   16  C11 UNL     1      27.424   1.297  53.067  1.00  0.00     0.006 A 
HETATM   17  C12 UNL     1      26.614   2.226  52.596  1.00  0.00     0.017 C 
BRANCH  17  18
HETATM   18  C13 UNL     1      25.414   2.785  51.981  1.00  0.00     0.143 C 
BRANCH  18  19
HETATM   19  O1  UNL     1      24.864   1.923  51.011  1.00  0.00    -0.392 OA
HETATM   20  H11 UNL     1      25.386   1.936  50.171  1.00  0.00     0.210 HD
ENDBRANCH  18  19
BRANCH  18  21
HETATM   21  C14 UNL     1      24.329   2.998  53.034  1.00  0.00     0.062 C 
BRANCH  21  22
HETATM   22  C15 UNL     1      23.392   4.104  52.566  1.00  0.00     0.170 C 
BRANCH  22  23
HETATM   23  O2  UNL     1      22.542   3.694  51.607  1.00  0.00    -0.391 OA
BRANCH  23  24
HETATM   24  C16 UNL     1      21.529   2.832  51.863  1.00  0.00     0.167 C 
BRANCH  24  25
HETATM   25  C17 UNL     1      20.877   2.139  50.704  1.00  0.00     0.022 C 
HETATM   26  C18 UNL     1      21.619   1.012  50.105  1.00  0.00     0.007 C 
ENDBRANCH  24  25
ENDBRANCH  23  24
ENDBRANCH  22  23
ENDBRANCH  21  22
ENDBRANCH  18  21
ENDBRANCH  17  18
ENDBRANCH   9  11
ENDBRANCH   7   9
TORSDOF 9
ENDMDL
MODEL 2
REMARK VINA RESULT:      -6.5      3.321      6.430
REMARK  9 active torsions:
REMARK  status: ('A' for Active; 'I' for Inactive)
REMARK    1  A    between atoms: C7_7  and  N1_8 
REMARK    2  A    between atoms: N1_8  and  C8_9 
REMARK    3  A    between atoms: C12_15  and  C13_16 
REMARK    4  A    between atoms: C13_16  and  O1_17 
REMARK    5  A    between atoms: C13_16  and  C14_18 
REMARK    6  A    between atoms: C14_18  and  C15_19 
REMARK    7  A    between atoms: C15_19  and  O2_20 
REMARK    8  A    between atoms: O2_20  and  C16_21 
REMARK    9  A    between atoms: C16_21  and  C17_22 
ROOT
HETATM    1  C1  UNL     1      29.672   6.689  47.618  1.00  0.00     0.018 C 
HETATM    2  C2  UNL     1      28.601   6.254  48.017  1.00  0.00    -0.078 C 
HETATM    3  C3  UNL     1      27.334   5.748  48.494  1.00  0.00     0.019 A 
HETATM    4  C4  UNL     1      26.194   6.496  48.292  1.00  0.00     0.021 A 
HETATM    5  C5  UNL     1      25.005   5.948  48.777  1.00  0.00     0.004 A 
HETATM    6  C6  UNL     1      25.001   4.739  49.413  1.00  0.00     0.029 A 
HETATM    7  C7  UNL     1      26.151   3.985  49.617  1.00  0.00     0.035 A 
HETATM    8  C19 UNL     1      27.316   4.528  49.137  1.00  0.00     0.050 A 
ENDROOT
BRANCH   7   9
HETATM    9  N1  UNL     1      26.006   2.749  50.295  1.00  0.00    -0.340 N 
HETATM   10  H5  UNL     1      25.632   1.895  49.820  1.00  0.00     0.167 HD
BRANCH   9  11
HETATM   11  C8  UNL     1      26.332   2.501  51.654  1.00  0.00     0.137 A 
HETATM   12  N2  UNL     1      27.616   2.522  51.927  1.00  0.00    -0.224 NA
HETATM   13  C9  UNL     1      28.046   2.278  53.252  1.00  0.00     0.229 A 
HETATM   14  N3  UNL     1      27.152   2.043  54.099  1.00  0.00    -0.278 NA
HETATM   15  C10 UNL     1      25.745   1.964  54.010  1.00  0.00     0.192 A 
HETATM   16  C11 UNL     1      25.272   2.292  52.642  1.00  0.00     0.006 A 
HETATM   17  C12 UNL     1      23.992   2.427  52.351  1.00  0.00     0.017 C 
BRANCH  17  18
HETATM   18  C13 UNL     1      22.817   2.696  51.531  1.00  0.00     0.143 C 
BRANCH  18  19
HETATM   19  O1  UNL     1      22.847   1.990  50.311  1.00  0.00    -0.392 OA
HETATM   20  H11 UNL     1      23.354   2.478  49.617  1.00  0.00     0.210 HD
ENDBRANCH  18  19
BRANCH  18  21
HETATM   21  C14 UNL     1      21.550   2.249  52.257  1.00  0.00     0.062 C 
BRANCH  21  22
HETATM   22  C15 UNL     1      20.972   1.032  51.546  1.00  0.00     0.170 C 
BRANCH  22  23
HETATM   23  O2  UNL     1      21.493  -0.127  51.992  1.00  0.00    -0.391 OA
BRANCH  23  24
HETATM   24  C16 UNL     1      21.588  -0.411  53.313  1.00  0.00     0.167 C 
BRANCH  24  25
HETATM   25  C17 UNL     1      22.918  -0.847  53.850  1.00  0.00     0.022 C 
HETATM   26  C18 UNL     1      22.943  -1.332  55.243  1.00  0.00     0.007 C 
ENDBRANCH  24  25
ENDBRANCH  23  24
ENDBRANCH  22  23
ENDBRANCH  21  22
ENDBRANCH  18  21
ENDBRANCH  17  18
ENDBRANCH   9  11
ENDBRANCH   7   9
TORSDOF 9
ENDMDL
MODEL 3
REMARK VINA RESULT:      -6.5      1.928      5.390
REMARK  9 active torsions:
REMARK  status: ('A' for Active; 'I' for Inactive)
REMARK    1  A    between atoms: C7_7  and  N1_8 
REMARK    2  A    between atoms: N1_8  and  C8_9 
REMARK    3  A    between atoms: C12_15  and  C13_16 
REMARK    4  A    between atoms: C13_16  and  O1_17 
REMARK    5  A    between atoms: C13_16  and  C14_18 
REMARK    6  A    between atoms: C14_18  and  C15_19 
REMARK    7  A    between atoms: C15_19  and  O2_20 
REMARK    8  A    between atoms: O2_20  and  C16_21 
REMARK    9  A    between atoms: C16_21  and  C17_22 
ROOT
HETATM    1  C1  UNL     1      29.506  -2.270  53.279  1.00  0.00     0.018 C 
HETATM    2  C2  UNL     1      28.766  -1.298  53.213  1.00  0.00    -0.078 C 
HETATM    3  C3  UNL     1      27.893  -0.148  53.145  1.00  0.00     0.019 A 
HETATM    4  C4  UNL     1      28.419   1.106  53.365  1.00  0.00     0.021 A 
HETATM    5  C5  UNL     1      27.521   2.172  53.283  1.00  0.00     0.004 A 
HETATM    6  C6  UNL     1      26.203   1.956  52.999  1.00  0.00     0.029 A 
HETATM    7  C7  UNL     1      25.673   0.690  52.777  1.00  0.00     0.035 A 
HETATM    8  C19 UNL     1      26.559  -0.353  52.858  1.00  0.00     0.050 A 
ENDROOT
BRANCH   7   9
HETATM    9  N1  UNL     1      24.286   0.607  52.496  1.00  0.00    -0.340 N 
HETATM   10  H5  UNL     1      23.889   0.877  51.566  1.00  0.00     0.167 HD
BRANCH   9  11
HETATM   11  C8  UNL     1      23.279   0.163  53.393  1.00  0.00     0.137 A 
HETATM   12  N2  UNL     1      23.663  -0.765  54.238  1.00  0.00    -0.224 NA
HETATM   13  C9  UNL     1      22.731  -1.280  55.170  1.00  0.00     0.229 A 
HETATM   14  N3  UNL     1      21.569  -0.812  55.121  1.00  0.00    -0.278 NA
HETATM   15  C10 UNL     1      20.963   0.161  54.297  1.00  0.00     0.192 A 
HETATM   16  C11 UNL     1      21.946   0.767  53.365  1.00  0.00     0.006 A 
HETATM   17  C12 UNL     1      21.649   1.799  52.599  1.00  0.00     0.017 C 
BRANCH  17  18
HETATM   18  C13 UNL     1      21.867   2.862  51.623  1.00  0.00     0.143 C 
BRANCH  18  19
HETATM   19  O1  UNL     1      20.665   3.500  51.256  1.00  0.00    -0.392 OA
HETATM   20  H11 UNL     1      20.438   4.238  51.875  1.00  0.00     0.210 HD
ENDBRANCH  18  19
BRANCH  18  21
HETATM   21  C14 UNL     1      22.768   3.944  52.211  1.00  0.00     0.062 C 
BRANCH  21  22
HETATM   22  C15 UNL     1      23.975   4.136  51.301  1.00  0.00     0.170 C 
BRANCH  22  23
HETATM   23  O2  UNL     1      24.169   3.096  50.468  1.00  0.00    -0.391 OA
BRANCH  23  24
HETATM   24  C16 UNL     1      24.964   3.189  49.376  1.00  0.00     0.167 C 
BRANCH  24  25
HETATM   25  C17 UNL     1      26.442   3.331  49.586  1.00  0.00     0.022 C 
HETATM   26  C18 UNL     1      27.062   4.580  49.103  1.00  0.00     0.007 C 
ENDBRANCH  24  25
ENDBRANCH  23  24
ENDBRANCH  22  23
ENDBRANCH  21  22
ENDBRANCH  18  21
ENDBRANCH  17  18
ENDBRANCH   9  11
ENDBRANCH   7   9
TORSDOF 9
ENDMDL
MODEL 4
REMARK VINA RESULT:      -6.3      2.728      5.371
REMARK  9 active torsions:
REMARK  status: ('A' for Active; 'I' for Inactive)
REMARK    1  A    between atoms: C7_7  and  N1_8 
REMARK    2  A    between atoms: N1_8  and  C8_9 
REMARK    3  A    between atoms: C12_15  and  C13_16 
REMARK    4  A    between atoms: C13_16  and  O1_17 
REMARK    5  A    between atoms: C13_16  and  C14_18 
REMARK    6  A    between atoms: C14_18  and  C15_19 
REMARK    7  A    between atoms: C15_19  and  O2_20 
REMARK    8  A    between atoms: O2_20  and  C16_21 
REMARK    9  A    between atoms: C16_21  and  C17_22 
ROOT
HETATM    1  C1  UNL     1      28.281   6.294  48.146  1.00  0.00     0.018 C 
HETATM    2  C2  UNL     1      27.399   5.606  48.638  1.00  0.00    -0.078 C 
HETATM    3  C3  UNL     1      26.353   4.799  49.225  1.00  0.00     0.019 A 
HETATM    4  C4  UNL     1      25.043   5.212  49.108  1.00  0.00     0.021 A 
HETATM    5  C5  UNL     1      24.083   4.385  49.697  1.00  0.00     0.004 A 
HETATM    6  C6  UNL     1      24.450   3.241  50.346  1.00  0.00     0.029 A 
HETATM    7  C7  UNL     1      25.772   2.826  50.464  1.00  0.00     0.035 A 
HETATM    8  C19 UNL     1      26.709   3.641  49.883  1.00  0.00     0.050 A 
ENDROOT
BRANCH   7   9
HETATM    9  N1  UNL     1      26.013   1.619  51.168  1.00  0.00    -0.340 N 
HETATM   10  H5  UNL     1      25.694   0.691  50.806  1.00  0.00     0.167 HD
BRANCH   9  11
HETATM   11  C8  UNL     1      26.692   1.500  52.408  1.00  0.00     0.137 A 
HETATM   12  N2  UNL     1      27.854   2.109  52.463  1.00  0.00    -0.224 NA
HETATM   13  C9  UNL     1      28.615   2.044  53.653  1.00  0.00     0.229 A 
HETATM   14  N3  UNL     1      28.123   1.385  54.599  1.00  0.00    -0.278 NA
HETATM   15  C10 UNL     1      26.920   0.659  54.737  1.00  0.00     0.192 A 
HETATM   16  C11 UNL     1      26.075   0.781  53.524  1.00  0.00     0.006 A 
HETATM   17  C12 UNL     1      24.843   0.312  53.471  1.00  0.00     0.017 C 
BRANCH  17  18
HETATM   18  C13 UNL     1      23.529   0.030  52.902  1.00  0.00     0.143 C 
BRANCH  18  19
HETATM   19  O1  UNL     1      22.874  -1.022  53.573  1.00  0.00    -0.392 OA
HETATM   20  H11 UNL     1      23.202  -1.127  54.500  1.00  0.00     0.210 HD
ENDBRANCH  18  19
BRANCH  18  21
HETATM   21  C14 UNL     1      22.624   1.253  53.030  1.00  0.00     0.062 C 
BRANCH  21  22
HETATM   22  C15 UNL     1      21.170   0.796  53.053  1.00  0.00     0.170 C 
BRANCH  22  23
HETATM   23  O2  UNL     1      20.769   0.278  51.877  1.00  0.00    -0.391 OA
BRANCH  23  24
HETATM   24  C16 UNL     1      19.814   0.869  51.120  1.00  0.00     0.167 C 
BRANCH  24  25
HETATM   25  C17 UNL     1      20.093   1.075  49.661  1.00  0.00     0.022 C 
HETATM   26  C18 UNL     1      21.510   1.066  49.250  1.00  0.00     0.007 C 
ENDBRANCH  24  25
ENDBRANCH  23  24
ENDBRANCH  22  23
ENDBRANCH  21  22
ENDBRANCH  18  21
ENDBRANCH  17  18
ENDBRANCH   9  11
ENDBRANCH   7   9
TORSDOF 9
ENDMDL
MODEL 5
REMARK VINA RESULT:      -6.3      1.950      2.751
REMARK  9 active torsions:
REMARK  status: ('A' for Active; 'I' for Inactive)
REMARK    1  A    between atoms: C7_7  and  N1_8 
REMARK    2  A    between atoms: N1_8  and  C8_9 
REMARK    3  A    between atoms: C12_15  and  C13_16 
REMARK    4  A    between atoms: C13_16  and  O1_17 
REMARK    5  A    between atoms: C13_16  and  C14_18 
REMARK    6  A    between atoms: C14_18  and  C15_19 
REMARK    7  A    between atoms: C15_19  and  O2_20 
REMARK    8  A    between atoms: O2_20  and  C16_21 
REMARK    9  A    between atoms: C16_21  and  C17_22 
ROOT
HETATM    1  C1  UNL     1      19.870  -0.084  52.773  1.00  0.00     0.018 C 
HETATM    2  C2  UNL     1      20.978  -0.306  53.239  1.00  0.00    -0.078 C 
HETATM    3  C3  UNL     1      22.287  -0.560  53.797  1.00  0.00     0.019 A 
HETATM    4  C4  UNL     1      22.387  -0.996  55.101  1.00  0.00     0.021 A 
HETATM    5  C5  UNL     1      23.680  -1.224  55.576  1.00  0.00     0.004 A 
HETATM    6  C6  UNL     1      24.765  -1.017  54.773  1.00  0.00     0.029 A 
HETATM    7  C7  UNL     1      24.664  -0.578  53.458  1.00  0.00     0.035 A 
HETATM    8  C19 UNL     1      23.392  -0.357  52.997  1.00  0.00     0.050 A 
ENDROOT
BRANCH   7   9
HETATM    9  N1  UNL     1      25.873  -0.401  52.738  1.00  0.00    -0.340 N 
HETATM   10  H5  UNL     1      25.974  -0.699  51.740  1.00  0.00     0.167 HD
BRANCH   9  11
HETATM   11  C8  UNL     1      27.065   0.182  53.240  1.00  0.00     0.137 A 
HETATM   12  N2  UNL     1      27.881  -0.656  53.837  1.00  0.00    -0.224 NA
HETATM   13  C9  UNL     1      29.094  -0.172  54.380  1.00  0.00     0.229 A 
HETATM   14  N3  UNL     1      29.313   1.056  54.261  1.00  0.00    -0.278 NA
HETATM   15  C10 UNL     1      28.575   2.108  53.678  1.00  0.00     0.192 A 
HETATM   16  C11 UNL     1      27.335   1.606  53.036  1.00  0.00     0.006 A 
HETATM   17  C12 UNL     1      26.557   2.379  52.302  1.00  0.00     0.017 C 
BRANCH  17  18
HETATM   18  C13 UNL     1      25.431   2.735  51.445  1.00  0.00     0.143 C 
BRANCH  18  19
HETATM   19  O1  UNL     1      24.642   3.760  52.003  1.00  0.00    -0.392 OA
HETATM   20  H11 UNL     1      24.384   4.434  51.327  1.00  0.00     0.210 HD
ENDBRANCH  18  19
BRANCH  18  21
HETATM   21  C14 UNL     1      25.934   3.260  50.102  1.00  0.00     0.062 C 
BRANCH  21  22
HETATM   22  C15 UNL     1      24.744   3.727  49.273  1.00  0.00     0.170 C 
BRANCH  22  23
HETATM   23  O2  UNL     1      24.423   5.014  49.502  1.00  0.00    -0.391 OA
BRANCH  23  24
HETATM   24  C16 UNL     1      25.305   6.022  49.300  1.00  0.00     0.167 C 
BRANCH  24  25
HETATM   25  C17 UNL     1      25.467   7.049  50.381  1.00  0.00     0.022 C 
HETATM   26  C18 UNL     1      24.798   8.347  50.165  1.00  0.00     0.007 C 
ENDBRANCH  24  25
ENDBRANCH  23  24
ENDBRANCH  22  23
ENDBRANCH  21  22
ENDBRANCH  18  21
ENDBRANCH  17  18
ENDBRANCH   9  11
ENDBRANCH   7   9
TORSDOF 9
ENDMDL
MODEL 6
REMARK VINA RESULT:      -6.3      2.697      5.533
REMARK  9 active torsions:
REMARK  status: ('A' for Active; 'I' for Inactive)
REMARK    1  A    between atoms: C7_7  and  N1_8 
REMARK    2  A    between atoms: N1_8  and  C8_9 
REMARK    3  A    between atoms: C12_15  and  C13_16 
REMARK    4  A    between atoms: C13_16  and  O1_17 
REMARK    5  A    between atoms: C13_16  and  C14_18 
REMARK    6  A    between atoms: C14_18  and  C15_19 
REMARK    7  A    between atoms: C15_19  and  O2_20 
REMARK    8  A    between atoms: O2_20  and  C16_21 
REMARK    9  A    between atoms: C16_21  and  C17_22 
ROOT
HETATM    1  C1  UNL     1      17.841  -1.963  53.450  1.00  0.00     0.018 C 
HETATM    2  C2  UNL     1      18.973  -1.501  53.472  1.00  0.00    -0.078 C 
HETATM    3  C3  UNL     1      20.309  -0.949  53.508  1.00  0.00     0.019 A 
HETATM    4  C4  UNL     1      21.149  -1.294  54.544  1.00  0.00     0.021 A 
HETATM    5  C5  UNL     1      22.425  -0.727  54.516  1.00  0.00     0.004 A 
HETATM    6  C6  UNL     1      22.791   0.119  53.508  1.00  0.00     0.029 A 
HETATM    7  C7  UNL     1      21.943   0.467  52.463  1.00  0.00     0.035 A 
HETATM    8  C19 UNL     1      20.692  -0.094  52.496  1.00  0.00     0.050 A 
ENDROOT
BRANCH   7   9
HETATM    9  N1  UNL     1      22.450   1.359  51.485  1.00  0.00    -0.340 N 
HETATM   10  H5  UNL     1      22.929   1.020  50.619  1.00  0.00     0.167 HD
BRANCH   9  11
HETATM   11  C8  UNL     1      22.383   2.775  51.534  1.00  0.00     0.137 A 
HETATM   12  N2  UNL     1      21.176   3.276  51.407  1.00  0.00    -0.224 NA
HETATM   13  C9  UNL     1      21.003   4.679  51.435  1.00  0.00     0.229 A 
HETATM   14  N3  UNL     1      22.038   5.372  51.573  1.00  0.00    -0.278 NA
HETATM   15  C10 UNL     1      23.402   5.036  51.711  1.00  0.00     0.192 A 
HETATM   16  C11 UNL     1      23.594   3.565  51.761  1.00  0.00     0.006 A 
HETATM   17  C12 UNL     1      24.762   3.014  52.031  1.00  0.00     0.017 C 
BRANCH  17  18
HETATM   18  C13 UNL     1      25.725   1.947  52.279  1.00  0.00     0.143 C 
BRANCH  18  19
HETATM   19  O1  UNL     1      26.784   1.961  51.350  1.00  0.00    -0.392 OA
HETATM   20  H11 UNL     1      26.461   2.110  50.428  1.00  0.00     0.210 HD
ENDBRANCH  18  19
BRANCH  18  21
HETATM   21  C14 UNL     1      26.358   2.114  53.659  1.00  0.00     0.062 C 
BRANCH  21  22
HETATM   22  C15 UNL     1      26.303   0.782  54.396  1.00  0.00     0.170 C 
BRANCH  22  23
HETATM   23  O2  UNL     1      27.403   0.552  55.137  1.00  0.00    -0.391 OA
BRANCH  23  24
HETATM   24  C16 UNL     1      28.646   0.557  54.600  1.00  0.00     0.167 C 
BRANCH  24  25
HETATM   25  C17 UNL     1      28.955  -0.435  53.518  1.00  0.00     0.022 C 
HETATM   26  C18 UNL     1      30.138  -1.292  53.725  1.00  0.00     0.007 C 
ENDBRANCH  24  25
ENDBRANCH  23  24
ENDBRANCH  22  23
ENDBRANCH  21  22
ENDBRANCH  18  21
ENDBRANCH  17  18
ENDBRANCH   9  11
ENDBRANCH   7   9
TORSDOF 9
ENDMDL
MODEL 7
REMARK VINA RESULT:      -6.2      2.487      4.983
REMARK  9 active torsions:
REMARK  status: ('A' for Active; 'I' for Inactive)
REMARK    1  A    between atoms: C7_7  and  N1_8 
REMARK    2  A    between atoms: N1_8  and  C8_9 
REMARK    3  A    between atoms: C12_15  and  C13_16 
REMARK    4  A    between atoms: C13_16  and  O1_17 
REMARK    5  A    between atoms: C13_16  and  C14_18 
REMARK    6  A    between atoms: C14_18  and  C15_19 
REMARK    7  A    between atoms: C15_19  and  O2_20 
REMARK    8  A    between atoms: O2_20  and  C16_21 
REMARK    9  A    between atoms: C16_21  and  C17_22 
ROOT
HETATM    1  C1  UNL     1      22.498   6.729  50.846  1.00  0.00     0.018 C 
HETATM    2  C2  UNL     1      23.494   6.093  50.532  1.00  0.00    -0.078 C 
HETATM    3  C3  UNL     1      24.668   5.340  50.152  1.00  0.00     0.019 A 
HETATM    4  C4  UNL     1      25.522   5.863  49.204  1.00  0.00     0.021 A 
HETATM    5  C5  UNL     1      26.637   5.085  48.885  1.00  0.00     0.004 A 
HETATM    6  C6  UNL     1      26.844   3.878  49.491  1.00  0.00     0.029 A 
HETATM    7  C7  UNL     1      25.982   3.351  50.446  1.00  0.00     0.035 A 
HETATM    8  C19 UNL     1      24.890   4.120  50.757  1.00  0.00     0.050 A 
ENDROOT
BRANCH   7   9
HETATM    9  N1  UNL     1      26.314   2.086  50.993  1.00  0.00    -0.340 N 
HETATM   10  H5  UNL     1      26.169   1.196  50.462  1.00  0.00     0.167 HD
BRANCH   9  11
HETATM   11  C8  UNL     1      26.867   1.852  52.278  1.00  0.00     0.137 A 
HETATM   12  N2  UNL     1      28.070   2.347  52.460  1.00  0.00    -0.224 NA
HETATM   13  C9  UNL     1      28.713   2.161  53.707  1.00  0.00     0.229 A 
HETATM   14  N3  UNL     1      28.081   1.514  54.575  1.00  0.00    -0.278 NA
HETATM   15  C10 UNL     1      26.810   0.901  54.575  1.00  0.00     0.192 A 
HETATM   16  C11 UNL     1      26.090   1.151  53.301  1.00  0.00     0.006 A 
HETATM   17  C12 UNL     1      24.830   0.803  53.122  1.00  0.00     0.017 C 
BRANCH  17  18
HETATM   18  C13 UNL     1      23.552   0.671  52.431  1.00  0.00     0.143 C 
BRANCH  18  19
HETATM   19  O1  UNL     1      22.846  -0.480  52.835  1.00  0.00    -0.392 OA
HETATM   20  H11 UNL     1      22.139  -0.265  53.492  1.00  0.00     0.210 HD
ENDBRANCH  18  19
BRANCH  18  21
HETATM   21  C14 UNL     1      22.652   1.863  52.749  1.00  0.00     0.062 C 
BRANCH  21  22
HETATM   22  C15 UNL     1      21.244   1.570  52.246  1.00  0.00     0.170 C 
BRANCH  22  23
HETATM   23  O2  UNL     1      21.199   1.357  50.918  1.00  0.00    -0.391 OA
BRANCH  23  24
HETATM   24  C16 UNL     1      21.381   2.357  50.023  1.00  0.00     0.167 C 
BRANCH  24  25
HETATM   25  C17 UNL     1      22.412   2.169  48.950  1.00  0.00     0.022 C 
HETATM   26  C18 UNL     1      22.521   3.240  47.941  1.00  0.00     0.007 C 
ENDBRANCH  24  25
ENDBRANCH  23  24
ENDBRANCH  22  23
ENDBRANCH  21  22
ENDBRANCH  18  21
ENDBRANCH  17  18
ENDBRANCH   9  11
ENDBRANCH   7   9
TORSDOF 9
ENDMDL
MODEL 8
REMARK VINA RESULT:      -6.2      2.099      4.483
REMARK  9 active torsions:
REMARK  status: ('A' for Active; 'I' for Inactive)
REMARK    1  A    between atoms: C7_7  and  N1_8 
REMARK    2  A    between atoms: N1_8  and  C8_9 
REMARK    3  A    between atoms: C12_15  and  C13_16 
REMARK    4  A    between atoms: C13_16  and  O1_17 
REMARK    5  A    between atoms: C13_16  and  C14_18 
REMARK    6  A    between atoms: C14_18  and  C15_19 
REMARK    7  A    between atoms: C15_19  and  O2_20 
REMARK    8  A    between atoms: O2_20  and  C16_21 
REMARK    9  A    between atoms: C16_21  and  C17_22 
ROOT
HETATM    1  C1  UNL     1      21.465   3.014  49.140  1.00  0.00     0.018 C 
HETATM    2  C2  UNL     1      22.612   3.018  49.563  1.00  0.00    -0.078 C 
HETATM    3  C3  UNL     1      23.971   3.015  50.058  1.00  0.00     0.019 A 
HETATM    4  C4  UNL     1      25.007   3.223  49.173  1.00  0.00     0.021 A 
HETATM    5  C5  UNL     1      26.292   3.209  49.718  1.00  0.00     0.004 A 
HETATM    6  C6  UNL     1      26.483   2.999  51.054  1.00  0.00     0.029 A 
HETATM    7  C7  UNL     1      25.437   2.789  51.946  1.00  0.00     0.035 A 
HETATM    8  C19 UNL     1      24.177   2.805  51.405  1.00  0.00     0.050 A 
ENDROOT
BRANCH   7   9
HETATM    9  N1  UNL     1      25.776   2.579  53.306  1.00  0.00    -0.340 N 
HETATM   10  H5  UNL     1      25.232   3.012  54.088  1.00  0.00     0.167 HD
BRANCH   9  11
HETATM   11  C8  UNL     1      26.852   1.787  53.784  1.00  0.00     0.137 A 
HETATM   12  N2  UNL     1      27.999   2.417  53.888  1.00  0.00    -0.224 NA
HETATM   13  C9  UNL     1      29.136   1.712  54.348  1.00  0.00     0.229 A 
HETATM   14  N3  UNL     1      28.974   0.501  54.626  1.00  0.00    -0.278 NA
HETATM   15  C10 UNL     1      27.849  -0.350  54.573  1.00  0.00     0.192 A 
HETATM   16  C11 UNL     1      26.630   0.391  54.166  1.00  0.00     0.006 A 
HETATM   17  C12 UNL     1      25.430  -0.158  54.186  1.00  0.00     0.017 C 
BRANCH  17  18
HETATM   18  C13 UNL     1      23.980  -0.237  54.042  1.00  0.00     0.143 C 
BRANCH  18  19
HETATM   19  O1  UNL     1      23.600  -0.830  52.821  1.00  0.00    -0.392 OA
HETATM   20  H11 UNL     1      23.344  -1.779  52.938  1.00  0.00     0.210 HD
ENDBRANCH  18  19
BRANCH  18  21
HETATM   21  C14 UNL     1      23.385  -1.106  55.147  1.00  0.00     0.062 C 
BRANCH  21  22
HETATM   22  C15 UNL     1      22.017  -1.608  54.703  1.00  0.00     0.170 C 
BRANCH  22  23
HETATM   23  O2  UNL     1      21.124  -0.614  54.541  1.00  0.00    -0.391 OA
BRANCH  23  24
HETATM   24  C16 UNL     1      20.131  -0.681  53.622  1.00  0.00     0.167 C 
BRANCH  24  25
HETATM   25  C17 UNL     1      20.015   0.429  52.621  1.00  0.00     0.022 C 
HETATM   26  C18 UNL     1      20.952   1.559  52.774  1.00  0.00     0.007 C 
ENDBRANCH  24  25
ENDBRANCH  23  24
ENDBRANCH  22  23
ENDBRANCH  21  22
ENDBRANCH  18  21
ENDBRANCH  17  18
ENDBRANCH   9  11
ENDBRANCH   7   9
TORSDOF 9
ENDMDL
MODEL 9
REMARK VINA RESULT:      -6.1      3.579      5.752
REMARK  9 active torsions:
REMARK  status: ('A' for Active; 'I' for Inactive)
REMARK    1  A    between atoms: C7_7  and  N1_8 
REMARK    2  A    between atoms: N1_8  and  C8_9 
REMARK    3  A    between atoms: C12_15  and  C13_16 
REMARK    4  A    between atoms: C13_16  and  O1_17 
REMARK    5  A    between atoms: C13_16  and  C14_18 
REMARK    6  A    between atoms: C14_18  and  C15_19 
REMARK    7  A    between atoms: C15_19  and  O2_20 
REMARK    8  A    between atoms: O2_20  and  C16_21 
REMARK    9  A    between atoms: C16_21  and  C17_22 
ROOT
HETATM    1  C1  UNL     1      22.113  -1.457  54.772  1.00  0.00     0.018 C 
HETATM    2  C2  UNL     1      22.871  -0.789  54.084  1.00  0.00    -0.078 C 
HETATM    3  C3  UNL     1      23.773   0.004  53.278  1.00  0.00     0.019 A 
HETATM    4  C4  UNL     1      25.085  -0.399  53.149  1.00  0.00     0.021 A 
HETATM    5  C5  UNL     1      25.901   0.411  52.356  1.00  0.00     0.004 A 
HETATM    6  C6  UNL     1      25.401   1.531  51.756  1.00  0.00     0.029 A 
HETATM    7  C7  UNL     1      24.078   1.937  51.887  1.00  0.00     0.035 A 
HETATM    8  C19 UNL     1      23.281   1.137  52.666  1.00  0.00     0.050 A 
ENDROOT
BRANCH   7   9
HETATM    9  N1  UNL     1      23.693   3.123  51.213  1.00  0.00    -0.340 N 
HETATM   10  H5  UNL     1      23.781   4.068  51.655  1.00  0.00     0.167 HD
BRANCH   9  11
HETATM   11  C8  UNL     1      23.158   3.201  49.901  1.00  0.00     0.137 A 
HETATM   12  N2  UNL     1      22.806   2.048  49.379  1.00  0.00    -0.224 NA
HETATM   13  C9  UNL     1      22.268   2.016  48.071  1.00  0.00     0.229 A 
HETATM   14  N3  UNL     1      22.168   3.116  47.477  1.00  0.00    -0.278 NA
HETATM   15  C10 UNL     1      22.493   4.438  47.849  1.00  0.00     0.192 A 
HETATM   16  C11 UNL     1      22.987   4.499  49.247  1.00  0.00     0.006 A 
HETATM   17  C12 UNL     1      23.216   5.642  49.866  1.00  0.00     0.017 C 
BRANCH  17  18
HETATM   18  C13 UNL     1      23.586   6.533  50.960  1.00  0.00     0.143 C 
BRANCH  18  19
HETATM   19  O1  UNL     1      24.574   5.969  51.793  1.00  0.00    -0.392 OA
HETATM   20  H11 UNL     1      25.138   6.664  52.214  1.00  0.00     0.210 HD
ENDBRANCH  18  19
BRANCH  18  21
HETATM   21  C14 UNL     1      24.174   7.830  50.411  1.00  0.00     0.062 C 
BRANCH  21  22
HETATM   22  C15 UNL     1      24.992   7.517  49.164  1.00  0.00     0.170 C 
BRANCH  22  23
HETATM   23  O2  UNL     1      26.103   6.808  49.435  1.00  0.00    -0.391 OA
BRANCH  23  24
HETATM   24  C16 UNL     1      26.895   6.310  48.455  1.00  0.00     0.167 C 
BRANCH  24  25
HETATM   25  C17 UNL     1      27.595   5.007  48.703  1.00  0.00     0.022 C 
HETATM   26  C18 UNL     1      26.798   3.937  49.333  1.00  0.00     0.007 C 
ENDBRANCH  24  25
ENDBRANCH  23  24
ENDBRANCH  22  23
ENDBRANCH  21  22
ENDBRANCH  18  21
ENDBRANCH  17  18
ENDBRANCH   9  11
ENDBRANCH   7   9
TORSDOF 9
ENDMDL
