MODEL 1
REMARK VINA RESULT:      -8.5      0.000      0.000
REMARK  5 active torsions:
REMARK  status: ('A' for Active; 'I' for Inactive)
REMARK    1  A    between atoms: C7_7  and  N1_8 
REMARK    2  A    between atoms: N1_8  and  C8_9 
REMARK    3  A    between atoms: C11_15  and  C12_16 
REMARK    4  A    between atoms: C12_16  and  C13_17 
REMARK    5  A    between atoms: C13_17  and  O2_18 
ROOT
HETATM    1  C1  UNL     1      30.535   5.493  47.798  1.00  0.00     0.018 C 
HETATM    2  C2  UNL     1      29.352   5.559  48.081  1.00  0.00    -0.078 C 
HETATM    3  C3  UNL     1      27.965   5.649  48.421  1.00  0.00     0.019 A 
HETATM    4  C4  UNL     1      27.316   6.857  48.292  1.00  0.00     0.021 A 
HETATM    5  C5  UNL     1      25.981   6.924  48.625  1.00  0.00     0.004 A 
HETATM    6  C6  UNL     1      25.358   5.781  49.071  1.00  0.00     0.029 A 
HETATM    7  C7  UNL     1      25.953   4.551  49.219  1.00  0.00     0.034 A 
HETATM    8  C19 UNL     1      27.286   4.547  48.872  1.00  0.00     0.050 A 
ENDROOT
BRANCH   7   9
HETATM    9  N1  UNL     1      25.318   3.368  49.672  1.00  0.00    -0.344 N 
HETATM   10  H5  UNL     1      24.616   2.928  48.999  1.00  0.00     0.167 HD
BRANCH   9  11
HETATM   11  C8  UNL     1      25.528   2.716  50.919  1.00  0.00     0.117 A 
HETATM   12  N2  UNL     1      26.713   2.228  51.058  1.00  0.00    -0.228 NA
HETATM   13  C9  UNL     1      27.028   1.551  52.264  1.00  0.00     0.231 A 
HETATM   14  N3  UNL     1      26.147   1.453  53.125  1.00  0.00    -0.250 NA
HETATM   15  C10 UNL     1      24.815   1.913  53.125  1.00  0.00     0.265 A 
HETATM   16  O1  UNL     1      23.913   0.842  53.420  1.00  0.00    -0.325 OA
HETATM   17  C18 UNL     1      24.424   2.698  51.953  1.00  0.00     0.142 A 
HETATM   18  C11 UNL     1      22.580   0.994  53.181  1.00  0.00     0.083 C 
HETATM   19  C14 UNL     1      22.183   1.759  52.204  1.00  0.00     0.105 C 
HETATM   20  O3  UNL     1      20.857   2.039  51.799  1.00  0.00    -0.348 OA
HETATM   21  C17 UNL     1      23.103   2.492  51.321  1.00  0.00     0.196 C 
HETATM   22  C15 UNL     1      20.755   2.253  50.373  1.00  0.00     0.201 C 
HETATM   23  C16 UNL     1      21.845   1.348  49.779  1.00  0.00     0.195 C 
HETATM   24  O4  UNL     1      23.132   1.818  50.083  1.00  0.00    -0.376 OA
BRANCH  18  25
HETATM   25  C12 UNL     1      21.521   0.332  53.977  1.00  0.00     0.093 C 
BRANCH  25  26
HETATM   26  C13 UNL     1      22.149  -0.868  54.658  1.00  0.00     0.170 C 
BRANCH  26  27
HETATM   27  O2  UNL     1      21.178  -1.773  55.067  1.00  0.00    -0.400 OA
HETATM   28  H12 UNL     1      21.460  -2.318  55.857  1.00  0.00     0.209 HD
ENDBRANCH  26  27
ENDBRANCH  25  26
ENDBRANCH  18  25
ENDBRANCH   9  11
ENDBRANCH   7   9
TORSDOF 5
ENDMDL
MODEL 2
REMARK VINA RESULT:      -8.5      0.972      1.134
REMARK  5 active torsions:
REMARK  status: ('A' for Active; 'I' for Inactive)
REMARK    1  A    between atoms: C7_7  and  N1_8 
REMARK    2  A    between atoms: N1_8  and  C8_9 
REMARK    3  A    between atoms: C11_15  and  C12_16 
REMARK    4  A    between atoms: C12_16  and  C13_17 
REMARK    5  A    between atoms: C13_17  and  O2_18 
ROOT
HETATM    1  C1  UNL     1      28.929   6.746  47.534  1.00  0.00     0.018 C 
HETATM    2  C2  UNL     1      27.964   6.445  48.214  1.00  0.00    -0.078 C 
HETATM    3  C3  UNL     1      26.834   6.099  49.022  1.00  0.00     0.019 A 
HETATM    4  C4  UNL     1      26.087   7.102  49.599  1.00  0.00     0.021 A 
HETATM    5  C5  UNL     1      25.004   6.749  50.374  1.00  0.00     0.004 A 
HETATM    6  C6  UNL     1      24.719   5.412  50.536  1.00  0.00     0.029 A 
HETATM    7  C7  UNL     1      25.427   4.372  49.984  1.00  0.00     0.034 A 
HETATM    8  C19 UNL     1      26.497   4.785  49.222  1.00  0.00     0.050 A 
ENDROOT
BRANCH   7   9
HETATM    9  N1  UNL     1      25.139   2.993  50.140  1.00  0.00    -0.344 N 
HETATM   10  H5  UNL     1      24.668   2.518  49.308  1.00  0.00     0.167 HD
BRANCH   9  11
HETATM   11  C8  UNL     1      25.417   2.191  51.281  1.00  0.00     0.117 A 
HETATM   12  N2  UNL     1      26.577   1.631  51.253  1.00  0.00    -0.228 NA
HETATM   13  C9  UNL     1      26.955   0.803  52.342  1.00  0.00     0.231 A 
HETATM   14  N3  UNL     1      26.148   0.650  53.265  1.00  0.00    -0.250 NA
HETATM   15  C10 UNL     1      24.851   1.173  53.441  1.00  0.00     0.265 A 
HETATM   16  O1  UNL     1      23.915   0.122  53.698  1.00  0.00    -0.325 OA
HETATM   17  C18 UNL     1      24.408   2.108  52.406  1.00  0.00     0.142 A 
HETATM   18  C11 UNL     1      22.578   0.368  53.603  1.00  0.00     0.083 C 
HETATM   19  C14 UNL     1      22.144   1.260  52.759  1.00  0.00     0.105 C 
HETATM   20  O3  UNL     1      20.808   1.652  52.514  1.00  0.00    -0.348 OA
HETATM   21  C17 UNL     1      23.027   2.043  51.881  1.00  0.00     0.196 C 
HETATM   22  C15 UNL     1      20.595   2.036  51.136  1.00  0.00     0.201 C 
HETATM   23  C16 UNL     1      21.572   1.152  50.345  1.00  0.00     0.195 C 
HETATM   24  O4  UNL     1      22.907   1.518  50.578  1.00  0.00    -0.376 OA
BRANCH  18  25
HETATM   25  C12 UNL     1      21.554  -0.329  54.416  1.00  0.00     0.093 C 
BRANCH  25  26
HETATM   26  C13 UNL     1      22.062  -1.732  54.679  1.00  0.00     0.170 C 
BRANCH  26  27
HETATM   27  O2  UNL     1      22.904  -1.758  55.784  1.00  0.00    -0.400 OA
HETATM   28  H12 UNL     1      23.114  -2.686  56.093  1.00  0.00     0.209 HD
ENDBRANCH  26  27
ENDBRANCH  25  26
ENDBRANCH  18  25
ENDBRANCH   9  11
ENDBRANCH   7   9
TORSDOF 5
ENDMDL
MODEL 3
REMARK VINA RESULT:      -8.1      3.708      7.704
REMARK  5 active torsions:
REMARK  status: ('A' for Active; 'I' for Inactive)
REMARK    1  A    between atoms: C7_7  and  N1_8 
REMARK    2  A    between atoms: N1_8  and  C8_9 
REMARK    3  A    between atoms: C11_15  and  C12_16 
REMARK    4  A    between atoms: C12_16  and  C13_17 
REMARK    5  A    between atoms: C13_17  and  O2_18 
ROOT
HETATM    1  C1  UNL     1      16.821   0.644  49.438  1.00  0.00     0.018 C 
HETATM    2  C2  UNL     1      17.450   0.255  50.407  1.00  0.00    -0.078 C 
HETATM    3  C3  UNL     1      18.177  -0.201  51.551  1.00  0.00     0.019 A 
HETATM    4  C4  UNL     1      17.605  -1.138  52.383  1.00  0.00     0.021 A 
HETATM    5  C5  UNL     1      18.321  -1.565  53.481  1.00  0.00     0.004 A 
HETATM    6  C6  UNL     1      19.573  -1.034  53.695  1.00  0.00     0.029 A 
HETATM    7  C7  UNL     1      20.192  -0.099  52.901  1.00  0.00     0.034 A 
HETATM    8  C19 UNL     1      19.429   0.288  51.821  1.00  0.00     0.050 A 
ENDROOT
BRANCH   7   9
HETATM    9  N1  UNL     1      21.482   0.449  53.109  1.00  0.00    -0.344 N 
HETATM   10  H5  UNL     1      21.642   1.428  52.717  1.00  0.00     0.167 HD
BRANCH   9  11
HETATM   11  C8  UNL     1      22.568  -0.171  53.787  1.00  0.00     0.117 A 
HETATM   12  N2  UNL     1      22.235  -0.735  54.897  1.00  0.00    -0.228 NA
HETATM   13  C9  UNL     1      23.246  -1.379  55.657  1.00  0.00     0.231 A 
HETATM   14  N3  UNL     1      24.402  -1.363  55.223  1.00  0.00    -0.250 NA
HETATM   15  C10 UNL     1      24.929  -0.787  54.049  1.00  0.00     0.265 A 
HETATM   16  O1  UNL     1      26.031   0.070  54.360  1.00  0.00    -0.325 OA
HETATM   17  C18 UNL     1      23.945  -0.171  53.158  1.00  0.00     0.142 A 
HETATM   18  C11 UNL     1      26.492   0.948  53.425  1.00  0.00     0.083 C 
HETATM   19  C14 UNL     1      25.667   1.451  52.551  1.00  0.00     0.105 C 
HETATM   20  O3  UNL     1      25.949   2.370  51.513  1.00  0.00    -0.348 OA
HETATM   21  C17 UNL     1      24.234   1.123  52.504  1.00  0.00     0.196 C 
HETATM   22  C15 UNL     1      24.834   3.249  51.244  1.00  0.00     0.201 C 
HETATM   23  C16 UNL     1      24.148   3.415  52.610  1.00  0.00     0.195 C 
HETATM   24  O4  UNL     1      23.527   2.227  53.025  1.00  0.00    -0.376 OA
BRANCH  18  25
HETATM   25  C12 UNL     1      27.905   1.381  53.329  1.00  0.00     0.093 C 
BRANCH  25  26
HETATM   26  C13 UNL     1      28.643   0.785  54.511  1.00  0.00     0.170 C 
BRANCH  26  27
HETATM   27  O2  UNL     1      28.669  -0.602  54.433  1.00  0.00    -0.400 OA
HETATM   28  H12 UNL     1      28.181  -0.957  53.634  1.00  0.00     0.209 HD
ENDBRANCH  26  27
ENDBRANCH  25  26
ENDBRANCH  18  25
ENDBRANCH   9  11
ENDBRANCH   7   9
TORSDOF 5
ENDMDL
MODEL 4
REMARK VINA RESULT:      -8.1      3.591      8.553
REMARK  5 active torsions:
REMARK  status: ('A' for Active; 'I' for Inactive)
REMARK    1  A    between atoms: C7_7  and  N1_8 
REMARK    2  A    between atoms: N1_8  and  C8_9 
REMARK    3  A    between atoms: C11_15  and  C12_16 
REMARK    4  A    between atoms: C12_16  and  C13_17 
REMARK    5  A    between atoms: C13_17  and  O2_18 
ROOT
HETATM    1  C1  UNL     1      16.626  -4.967  53.954  1.00  0.00     0.018 C 
HETATM    2  C2  UNL     1      16.940  -3.858  53.558  1.00  0.00    -0.078 C 
HETATM    3  C3  UNL     1      17.307  -2.561  53.081  1.00  0.00     0.019 A 
HETATM    4  C4  UNL     1      16.641  -2.027  52.000  1.00  0.00     0.021 A 
HETATM    5  C5  UNL     1      17.010  -0.777  51.554  1.00  0.00     0.004 A 
HETATM    6  C6  UNL     1      18.027  -0.120  52.209  1.00  0.00     0.029 A 
HETATM    7  C7  UNL     1      18.725  -0.602  53.290  1.00  0.00     0.034 A 
HETATM    8  C19 UNL     1      18.312  -1.854  53.689  1.00  0.00     0.050 A 
ENDROOT
BRANCH   7   9
HETATM    9  N1  UNL     1      19.769   0.069  53.974  1.00  0.00    -0.344 N 
HETATM   10  H5  UNL     1      19.479   0.920  54.549  1.00  0.00     0.167 HD
BRANCH   9  11
HETATM   11  C8  UNL     1      21.147  -0.282  53.973  1.00  0.00     0.117 A 
HETATM   12  N2  UNL     1      21.546  -0.831  55.068  1.00  0.00    -0.228 NA
HETATM   13  C9  UNL     1      22.908  -1.215  55.176  1.00  0.00     0.231 A 
HETATM   14  N3  UNL     1      23.652  -0.998  54.214  1.00  0.00    -0.250 NA
HETATM   15  C10 UNL     1      23.382  -0.404  52.965  1.00  0.00     0.265 A 
HETATM   16  O1  UNL     1      24.291   0.671  52.712  1.00  0.00    -0.325 OA
HETATM   17  C18 UNL     1      21.981  -0.051  52.730  1.00  0.00     0.142 A 
HETATM   18  C11 UNL     1      24.025   1.562  51.715  1.00  0.00     0.083 C 
HETATM   19  C14 UNL     1      22.789   1.838  51.409  1.00  0.00     0.105 C 
HETATM   20  O3  UNL     1      22.314   2.729  50.419  1.00  0.00    -0.348 OA
HETATM   21  C17 UNL     1      21.631   1.232  52.084  1.00  0.00     0.196 C 
HETATM   22  C15 UNL     1      21.066   3.353  50.799  1.00  0.00     0.201 C 
HETATM   23  C16 UNL     1      21.153   3.464  52.329  1.00  0.00     0.195 C 
HETATM   24  O4  UNL     1      21.083   2.206  52.945  1.00  0.00    -0.376 OA
BRANCH  18  25
HETATM   25  C12 UNL     1      25.073   2.258  50.934  1.00  0.00     0.093 C 
BRANCH  25  26
HETATM   26  C13 UNL     1      26.409   1.914  51.560  1.00  0.00     0.170 C 
BRANCH  26  27
HETATM   27  O2  UNL     1      27.272   3.003  51.522  1.00  0.00    -0.400 OA
HETATM   28  H12 UNL     1      27.130   3.585  50.721  1.00  0.00     0.209 HD
ENDBRANCH  26  27
ENDBRANCH  25  26
ENDBRANCH  18  25
ENDBRANCH   9  11
ENDBRANCH   7   9
TORSDOF 5
ENDMDL
MODEL 5
REMARK VINA RESULT:      -7.9      3.612      6.873
REMARK  5 active torsions:
REMARK  status: ('A' for Active; 'I' for Inactive)
REMARK    1  A    between atoms: C7_7  and  N1_8 
REMARK    2  A    between atoms: N1_8  and  C8_9 
REMARK    3  A    between atoms: C11_15  and  C12_16 
REMARK    4  A    between atoms: C12_16  and  C13_17 
REMARK    5  A    between atoms: C13_17  and  O2_18 
ROOT
HETATM    1  C1  UNL     1      19.053   2.941  47.917  1.00  0.00     0.018 C 
HETATM    2  C2  UNL     1      19.021   2.241  48.914  1.00  0.00    -0.078 C 
HETATM    3  C3  UNL     1      18.970   1.420  50.084  1.00  0.00     0.019 A 
HETATM    4  C4  UNL     1      18.040   0.406  50.156  1.00  0.00     0.021 A 
HETATM    5  C5  UNL     1      18.006  -0.374  51.291  1.00  0.00     0.004 A 
HETATM    6  C6  UNL     1      18.902  -0.103  52.301  1.00  0.00     0.029 A 
HETATM    7  C7  UNL     1      19.849   0.892  52.284  1.00  0.00     0.034 A 
HETATM    8  C19 UNL     1      19.835   1.637  51.126  1.00  0.00     0.050 A 
ENDROOT
BRANCH   7   9
HETATM    9  N1  UNL     1      20.779   1.175  53.316  1.00  0.00    -0.344 N 
HETATM   10  H5  UNL     1      20.628   2.091  53.841  1.00  0.00     0.167 HD
BRANCH   9  11
HETATM   11  C8  UNL     1      21.876   0.363  53.716  1.00  0.00     0.117 A 
HETATM   12  N2  UNL     1      21.677  -0.274  54.818  1.00  0.00    -0.228 NA
HETATM   13  C9  UNL     1      22.712  -1.110  55.312  1.00  0.00     0.231 A 
HETATM   14  N3  UNL     1      23.762  -1.182  54.665  1.00  0.00    -0.250 NA
HETATM   15  C10 UNL     1      24.140  -0.550  53.464  1.00  0.00     0.265 A 
HETATM   16  O1  UNL     1      25.386   0.135  53.626  1.00  0.00    -0.325 OA
HETATM   17  C18 UNL     1      23.103   0.269  52.834  1.00  0.00     0.142 A 
HETATM   18  C11 UNL     1      25.784   1.048  52.695  1.00  0.00     0.083 C 
HETATM   19  C14 UNL     1      24.889   1.735  52.043  1.00  0.00     0.105 C 
HETATM   20  O3  UNL     1      25.100   2.721  51.051  1.00  0.00    -0.348 OA
HETATM   21  C17 UNL     1      23.440   1.584  52.248  1.00  0.00     0.196 C 
HETATM   22  C15 UNL     1      24.083   3.749  51.078  1.00  0.00     0.201 C 
HETATM   23  C16 UNL     1      23.686   3.845  52.559  1.00  0.00     0.195 C 
HETATM   24  O4  UNL     1      22.996   2.700  52.986  1.00  0.00    -0.376 OA
BRANCH  18  25
HETATM   25  C12 UNL     1      27.201   1.321  52.364  1.00  0.00     0.093 C 
BRANCH  25  26
HETATM   26  C13 UNL     1      27.940   1.524  53.672  1.00  0.00     0.170 C 
BRANCH  26  27
HETATM   27  O2  UNL     1      27.748   2.812  54.157  1.00  0.00    -0.400 OA
HETATM   28  H12 UNL     1      28.519   3.143  54.701  1.00  0.00     0.209 HD
ENDBRANCH  26  27
ENDBRANCH  25  26
ENDBRANCH  18  25
ENDBRANCH   9  11
ENDBRANCH   7   9
TORSDOF 5
ENDMDL
MODEL 6
REMARK VINA RESULT:      -7.9      2.871      5.009
REMARK  5 active torsions:
REMARK  status: ('A' for Active; 'I' for Inactive)
REMARK    1  A    between atoms: C7_7  and  N1_8 
REMARK    2  A    between atoms: N1_8  and  C8_9 
REMARK    3  A    between atoms: C11_15  and  C12_16 
REMARK    4  A    between atoms: C12_16  and  C13_17 
REMARK    5  A    between atoms: C13_17  and  O2_18 
ROOT
HETATM    1  C1  UNL     1      26.805   3.981  49.330  1.00  0.00     0.018 C 
HETATM    2  C2  UNL     1      26.427   3.177  50.164  1.00  0.00    -0.078 C 
HETATM    3  C3  UNL     1      25.989   2.223  51.135  1.00  0.00     0.019 A 
HETATM    4  C4  UNL     1      26.853   1.230  51.542  1.00  0.00     0.021 A 
HETATM    5  C5  UNL     1      26.412   0.320  52.478  1.00  0.00     0.004 A 
HETATM    6  C6  UNL     1      25.130   0.444  52.962  1.00  0.00     0.029 A 
HETATM    7  C7  UNL     1      24.227   1.412  52.594  1.00  0.00     0.034 A 
HETATM    8  C19 UNL     1      24.723   2.292  51.657  1.00  0.00     0.050 A 
ENDROOT
BRANCH   7   9
HETATM    9  N1  UNL     1      22.906   1.553  53.091  1.00  0.00    -0.344 N 
HETATM   10  H5  UNL     1      22.547   2.553  53.184  1.00  0.00     0.167 HD
BRANCH   9  11
HETATM   11  C8  UNL     1      22.025   0.502  53.468  1.00  0.00     0.117 A 
HETATM   12  N2  UNL     1      22.626  -0.540  53.931  1.00  0.00    -0.228 NA
HETATM   13  C9  UNL     1      21.839  -1.651  54.332  1.00  0.00     0.231 A 
HETATM   14  N3  UNL     1      20.612  -1.571  54.211  1.00  0.00    -0.250 NA
HETATM   15  C10 UNL     1      19.809  -0.523  53.718  1.00  0.00     0.265 A 
HETATM   16  O1  UNL     1      18.940  -0.998  52.686  1.00  0.00    -0.325 OA
HETATM   17  C18 UNL     1      20.528   0.700  53.357  1.00  0.00     0.142 A 
HETATM   18  C11 UNL     1      18.301  -0.108  51.876  1.00  0.00     0.083 C 
HETATM   19  C14 UNL     1      18.864   1.035  51.602  1.00  0.00     0.105 C 
HETATM   20  O3  UNL     1      18.366   2.079  50.788  1.00  0.00    -0.348 OA
HETATM   21  C17 UNL     1      20.177   1.439  52.126  1.00  0.00     0.196 C 
HETATM   22  C15 UNL     1      19.424   2.794  50.109  1.00  0.00     0.201 C 
HETATM   23  C16 UNL     1      20.505   1.727  49.872  1.00  0.00     0.195 C 
HETATM   24  O4  UNL     1      21.109   1.325  51.074  1.00  0.00    -0.376 OA
BRANCH  18  25
HETATM   25  C12 UNL     1      16.973  -0.355  51.268  1.00  0.00     0.093 C 
BRANCH  25  26
HETATM   26  C13 UNL     1      15.926   0.031  52.294  1.00  0.00     0.170 C 
BRANCH  26  27
HETATM   27  O2  UNL     1      16.101  -0.681  53.475  1.00  0.00    -0.400 OA
HETATM   28  H12 UNL     1      17.017  -1.072  53.563  1.00  0.00     0.209 HD
ENDBRANCH  26  27
ENDBRANCH  25  26
ENDBRANCH  18  25
ENDBRANCH   9  11
ENDBRANCH   7   9
TORSDOF 5
ENDMDL
MODEL 7
REMARK VINA RESULT:      -7.5      4.001      7.413
REMARK  5 active torsions:
REMARK  status: ('A' for Active; 'I' for Inactive)
REMARK    1  A    between atoms: C7_7  and  N1_8 
REMARK    2  A    between atoms: N1_8  and  C8_9 
REMARK    3  A    between atoms: C11_15  and  C12_16 
REMARK    4  A    between atoms: C12_16  and  C13_17 
REMARK    5  A    between atoms: C13_17  and  O2_18 
ROOT
HETATM    1  C1  UNL     1      26.068  -0.462  53.762  1.00  0.00     0.018 C 
HETATM    2  C2  UNL     1      24.851  -0.517  53.749  1.00  0.00    -0.078 C 
HETATM    3  C3  UNL     1      23.422  -0.595  53.738  1.00  0.00     0.019 A 
HETATM    4  C4  UNL     1      22.774  -1.227  54.776  1.00  0.00     0.021 A 
HETATM    5  C5  UNL     1      21.398  -1.293  54.748  1.00  0.00     0.004 A 
HETATM    6  C6  UNL     1      20.736  -0.726  53.683  1.00  0.00     0.029 A 
HETATM    7  C7  UNL     1      21.329  -0.084  52.622  1.00  0.00     0.034 A 
HETATM    8  C19 UNL     1      22.703  -0.050  52.706  1.00  0.00     0.050 A 
ENDROOT
BRANCH   7   9
HETATM    9  N1  UNL     1      20.656   0.509  51.525  1.00  0.00    -0.344 N 
HETATM   10  H5  UNL     1      20.713  -0.022  50.601  1.00  0.00     0.167 HD
BRANCH   9  11
HETATM   11  C8  UNL     1      19.917   1.724  51.537  1.00  0.00     0.117 A 
HETATM   12  N2  UNL     1      18.643   1.557  51.639  1.00  0.00    -0.228 NA
HETATM   13  C9  UNL     1      17.810   2.706  51.655  1.00  0.00     0.231 A 
HETATM   14  N3  UNL     1      18.345   3.816  51.563  1.00  0.00    -0.250 NA
HETATM   15  C10 UNL     1      19.704   4.167  51.435  1.00  0.00     0.265 A 
HETATM   16  O1  UNL     1      19.899   5.018  50.302  1.00  0.00    -0.325 OA
HETATM   17  C18 UNL     1      20.647   3.049  51.493  1.00  0.00     0.142 A 
HETATM   18  C11 UNL     1      21.157   5.231  49.823  1.00  0.00     0.083 C 
HETATM   19  C14 UNL     1      22.058   4.296  49.937  1.00  0.00     0.105 C 
HETATM   20  O3  UNL     1      23.404   4.324  49.504  1.00  0.00    -0.348 OA
HETATM   21  C17 UNL     1      21.799   2.992  50.568  1.00  0.00     0.196 C 
HETATM   22  C15 UNL     1      23.875   3.019  49.098  1.00  0.00     0.201 C 
HETATM   23  C16 UNL     1      22.624   2.329  48.531  1.00  0.00     0.195 C 
HETATM   24  O4  UNL     1      21.693   2.035  49.538  1.00  0.00    -0.376 OA
BRANCH  18  25
HETATM   25  C12 UNL     1      21.585   6.487  49.164  1.00  0.00     0.093 C 
BRANCH  25  26
HETATM   26  C13 UNL     1      21.238   7.629  50.097  1.00  0.00     0.170 C 
BRANCH  26  27
HETATM   27  O2  UNL     1      21.560   7.313  51.412  1.00  0.00    -0.400 OA
HETATM   28  H12 UNL     1      20.754   7.198  51.994  1.00  0.00     0.209 HD
ENDBRANCH  26  27
ENDBRANCH  25  26
ENDBRANCH  18  25
ENDBRANCH   9  11
ENDBRANCH   7   9
TORSDOF 5
ENDMDL
MODEL 8
REMARK VINA RESULT:      -7.3      7.922     10.860
REMARK  5 active torsions:
REMARK  status: ('A' for Active; 'I' for Inactive)
REMARK    1  A    between atoms: C7_7  and  N1_8 
REMARK    2  A    between atoms: N1_8  and  C8_9 
REMARK    3  A    between atoms: C11_15  and  C12_16 
REMARK    4  A    between atoms: C12_16  and  C13_17 
REMARK    5  A    between atoms: C13_17  and  O2_18 
ROOT
HETATM    1  C1  UNL     1      33.932   4.745  42.560  1.00  0.00     0.018 C 
HETATM    2  C2  UNL     1      34.039   4.670  43.771  1.00  0.00    -0.078 C 
HETATM    3  C3  UNL     1      34.162   4.570  45.193  1.00  0.00     0.019 A 
HETATM    4  C4  UNL     1      34.886   3.530  45.734  1.00  0.00     0.021 A 
HETATM    5  C5  UNL     1      34.993   3.450  47.106  1.00  0.00     0.004 A 
HETATM    6  C6  UNL     1      34.371   4.410  47.870  1.00  0.00     0.029 A 
HETATM    7  C7  UNL     1      33.638   5.467  47.386  1.00  0.00     0.034 A 
HETATM    8  C19 UNL     1      33.567   5.495  46.011  1.00  0.00     0.050 A 
ENDROOT
BRANCH   7   9
HETATM    9  N1  UNL     1      32.999   6.464  48.165  1.00  0.00    -0.344 N 
HETATM   10  H5  UNL     1      33.645   7.115  48.710  1.00  0.00     0.167 HD
BRANCH   9  11
HETATM   11  C8  UNL     1      31.598   6.680  48.283  1.00  0.00     0.117 A 
HETATM   12  N2  UNL     1      30.889   5.627  48.065  1.00  0.00    -0.228 NA
HETATM   13  C9  UNL     1      29.476   5.733  48.151  1.00  0.00     0.231 A 
HETATM   14  N3  UNL     1      28.990   6.836  48.425  1.00  0.00    -0.250 NA
HETATM   15  C10 UNL     1      29.616   8.073  48.677  1.00  0.00     0.265 A 
HETATM   16  O1  UNL     1      29.076   9.091  47.830  1.00  0.00    -0.325 OA
HETATM   17  C18 UNL     1      31.079   8.042  48.692  1.00  0.00     0.142 A 
HETATM   18  C11 UNL     1      29.731  10.279  47.696  1.00  0.00     0.083 C 
HETATM   19  C14 UNL     1      31.030  10.314  47.794  1.00  0.00     0.105 C 
HETATM   20  O3  UNL     1      31.884  11.436  47.684  1.00  0.00    -0.348 OA
HETATM   21  C17 UNL     1      31.857   9.124  48.051  1.00  0.00     0.196 C 
HETATM   22  C15 UNL     1      33.167  11.092  47.112  1.00  0.00     0.201 C 
HETATM   23  C16 UNL     1      32.851   9.938  46.148  1.00  0.00     0.195 C 
HETATM   24  O4  UNL     1      32.484   8.772  46.838  1.00  0.00    -0.376 OA
BRANCH  18  25
HETATM   25  C12 UNL     1      29.051  11.569  47.439  1.00  0.00     0.093 C 
BRANCH  25  26
HETATM   26  C13 UNL     1      28.643  12.141  48.782  1.00  0.00     0.170 C 
BRANCH  26  27
HETATM   27  O2  UNL     1      28.169  11.143  49.624  1.00  0.00    -0.400 OA
HETATM   28  H12 UNL     1      28.890  10.526  49.943  1.00  0.00     0.209 HD
ENDBRANCH  26  27
ENDBRANCH  25  26
ENDBRANCH  18  25
ENDBRANCH   9  11
ENDBRANCH   7   9
TORSDOF 5
ENDMDL
MODEL 9
REMARK VINA RESULT:      -7.3      2.731      6.338
REMARK  5 active torsions:
REMARK  status: ('A' for Active; 'I' for Inactive)
REMARK    1  A    between atoms: C7_7  and  N1_8 
REMARK    2  A    between atoms: N1_8  and  C8_9 
REMARK    3  A    between atoms: C11_15  and  C12_16 
REMARK    4  A    between atoms: C12_16  and  C13_17 
REMARK    5  A    between atoms: C13_17  and  O2_18 
ROOT
HETATM    1  C1  UNL     1      22.675  -1.265  54.805  1.00  0.00     0.018 C 
HETATM    2  C2  UNL     1      23.449  -0.620  54.120  1.00  0.00    -0.078 C 
HETATM    3  C3  UNL     1      24.369   0.133  53.323  1.00  0.00     0.019 A 
HETATM    4  C4  UNL     1      25.508  -0.480  52.850  1.00  0.00     0.021 A 
HETATM    5  C5  UNL     1      26.382   0.261  52.085  1.00  0.00     0.004 A 
HETATM    6  C6  UNL     1      26.076   1.579  51.830  1.00  0.00     0.029 A 
HETATM    7  C7  UNL     1      24.957   2.241  52.275  1.00  0.00     0.034 A 
HETATM    8  C19 UNL     1      24.123   1.450  53.033  1.00  0.00     0.050 A 
ENDROOT
BRANCH   7   9
HETATM    9  N1  UNL     1      24.631   3.595  52.013  1.00  0.00    -0.344 N 
HETATM   10  H5  UNL     1      24.540   4.226  52.869  1.00  0.00     0.167 HD
BRANCH   9  11
HETATM   11  C8  UNL     1      24.420   4.187  50.737  1.00  0.00     0.117 A 
HETATM   12  N2  UNL     1      25.234   5.149  50.469  1.00  0.00    -0.228 NA
HETATM   13  C9  UNL     1      25.108   5.813  49.221  1.00  0.00     0.231 A 
HETATM   14  N3  UNL     1      24.215   5.443  48.451  1.00  0.00    -0.250 NA
HETATM   15  C10 UNL     1      23.247   4.429  48.595  1.00  0.00     0.265 A 
HETATM   16  O1  UNL     1      21.934   4.951  48.367  1.00  0.00    -0.325 OA
HETATM   17  C18 UNL     1      23.353   3.632  49.818  1.00  0.00     0.142 A 
HETATM   18  C11 UNL     1      20.843   4.227  48.742  1.00  0.00     0.083 C 
HETATM   19  C14 UNL     1      20.919   3.432  49.772  1.00  0.00     0.105 C 
HETATM   20  O3  UNL     1      19.905   2.608  50.314  1.00  0.00    -0.348 OA
HETATM   21  C17 UNL     1      22.139   3.258  50.575  1.00  0.00     0.196 C 
HETATM   22  C15 UNL     1      20.025   2.466  51.748  1.00  0.00     0.201 C 
HETATM   23  C16 UNL     1      20.622   3.805  52.209  1.00  0.00     0.195 C 
HETATM   24  O4  UNL     1      21.953   3.952  51.788  1.00  0.00    -0.376 OA
BRANCH  18  25
HETATM   25  C12 UNL     1      19.539   4.281  48.041  1.00  0.00     0.093 C 
BRANCH  25  26
HETATM   26  C13 UNL     1      19.618   3.332  46.863  1.00  0.00     0.170 C 
BRANCH  26  27
HETATM   27  O2  UNL     1      20.741   3.595  46.087  1.00  0.00    -0.400 OA
HETATM   28  H12 UNL     1      21.292   4.350  46.442  1.00  0.00     0.209 HD
ENDBRANCH  26  27
ENDBRANCH  25  26
ENDBRANCH  18  25
ENDBRANCH   9  11
ENDBRANCH   7   9
TORSDOF 5
ENDMDL
