MODEL 1
REMARK VINA RESULT:      -7.5      0.000      0.000
REMARK  5 active torsions:
REMARK  status: ('A' for Active; 'I' for Inactive)
REMARK    1  A    between atoms: O1_2  and  C2_3 
REMARK    2  A    between atoms: C5_6  and  C6_7 
REMARK    3  A    between atoms: C6_7  and  C7_8 
REMARK    4  A    between atoms: C12_13  and  N1_14 
REMARK    5  A    between atoms: C15_18  and  O2_19 
ROOT
HETATM    1  C2  UNL     1      21.105   0.330  53.098  1.00  0.00     0.104 C 
HETATM    2  C3  UNL     1      22.271  -0.396  52.948  1.00  0.00     0.047 C 
HETATM    3  C4  UNL     1      23.357   0.458  52.481  1.00  0.00    -0.045 C 
HETATM    4  C5  UNL     1      24.525   0.863  52.946  1.00  0.00    -0.051 C 
HETATM    5  C13 UNL     1      24.811   2.365  52.724  1.00  0.00     0.154 C 
HETATM    6  N2  UNL     1      23.450   3.023  52.852  1.00  0.00    -0.387 N 
HETATM    7  C14 UNL     1      22.373   2.188  52.411  1.00  0.00     0.046 C 
HETATM    8  C15 UNL     1      21.149   1.827  52.802  1.00  0.00     0.124 C 
HETATM    9  C17 UNL     1      22.937   1.294  51.227  1.00  0.00     0.098 C 
HETATM   10  H15 UNL     1      22.863   3.884  53.159  1.00  0.00     0.159 HD
ENDROOT
BRANCH   4  11
HETATM   11  C6  UNL     1      25.092  -0.369  53.577  1.00  0.00     0.077 C 
BRANCH  11  12
HETATM   12  C7  UNL     1      26.526  -0.330  53.813  1.00  0.00    -0.028 A 
HETATM   13  C8  UNL     1      27.216   0.474  54.701  1.00  0.00     0.010 A 
HETATM   14  C9  UNL     1      28.591   0.384  54.803  1.00  0.00     0.001 A 
HETATM   15  C10 UNL     1      29.327  -0.483  54.051  1.00  0.00     0.002 A 
HETATM   16  C11 UNL     1      28.634  -1.298  53.152  1.00  0.00     0.029 A 
HETATM   17  C12 UNL     1      27.283  -1.219  53.043  1.00  0.00     0.032 A 
BRANCH  17  18
HETATM   18  N1  UNL     1      26.696  -2.094  52.099  1.00  0.00    -0.399 N 
HETATM   19  H11 UNL     1      25.741  -2.497  52.307  1.00  0.00     0.156 HD
HETATM   20  H12 UNL     1      27.225  -2.313  51.225  1.00  0.00     0.156 HD
ENDBRANCH  17  18
ENDBRANCH  11  12
ENDBRANCH   4  11
BRANCH   1  21
HETATM   21  O1  UNL     1      19.918  -0.174  53.491  1.00  0.00    -0.353 OA
HETATM   22  C1  UNL     1      18.781  -0.432  52.725  1.00  0.00     0.210 C 
ENDBRANCH   1  21
BRANCH   8  23
HETATM   23  O2  UNL     1      20.424   2.969  52.787  1.00  0.00    -0.351 OA
HETATM   24  C16 UNL     1      19.517   3.136  51.691  1.00  0.00     0.210 C 
ENDBRANCH   8  23
TORSDOF 5
ENDMDL
MODEL 2
REMARK VINA RESULT:      -7.5      2.043      3.108
REMARK  5 active torsions:
REMARK  status: ('A' for Active; 'I' for Inactive)
REMARK    1  A    between atoms: O1_2  and  C2_3 
REMARK    2  A    between atoms: C5_6  and  C6_7 
REMARK    3  A    between atoms: C6_7  and  C7_8 
REMARK    4  A    between atoms: C12_13  and  N1_14 
REMARK    5  A    between atoms: C15_18  and  O2_19 
ROOT
HETATM    1  C2  UNL     1      22.473   1.784  50.353  1.00  0.00     0.104 C 
HETATM    2  C3  UNL     1      23.699   2.125  50.893  1.00  0.00     0.047 C 
HETATM    3  C4  UNL     1      23.897   1.474  52.182  1.00  0.00    -0.045 C 
HETATM    4  C5  UNL     1      24.735   0.587  52.688  1.00  0.00    -0.051 C 
HETATM    5  C13 UNL     1      24.063  -0.496  53.561  1.00  0.00     0.154 C 
HETATM    6  N2  UNL     1      22.717  -0.722  52.897  1.00  0.00    -0.387 N 
HETATM    7  C14 UNL     1      22.190   0.453  52.272  1.00  0.00     0.046 C 
HETATM    8  C15 UNL     1      21.592   0.811  51.133  1.00  0.00     0.124 C 
HETATM    9  C17 UNL     1      22.676   1.693  53.135  1.00  0.00     0.098 C 
HETATM   10  H15 UNL     1      21.916  -1.409  52.639  1.00  0.00     0.159 HD
ENDROOT
BRANCH   4  11
HETATM   11  C6  UNL     1      26.058   1.003  52.127  1.00  0.00     0.077 C 
BRANCH  11  12
HETATM   12  C7  UNL     1      27.211   0.379  52.756  1.00  0.00    -0.028 A 
HETATM   13  C8  UNL     1      27.633  -0.933  52.639  1.00  0.00     0.010 A 
HETATM   14  C9  UNL     1      28.761  -1.366  53.309  1.00  0.00     0.001 A 
HETATM   15  C10 UNL     1      29.504  -0.545  54.104  1.00  0.00     0.002 A 
HETATM   16  C11 UNL     1      29.081   0.781  54.225  1.00  0.00     0.029 A 
HETATM   17  C12 UNL     1      27.974   1.220  53.572  1.00  0.00     0.032 A 
BRANCH  17  18
HETATM   18  N1  UNL     1      27.648   2.582  53.773  1.00  0.00    -0.399 N 
HETATM   19  H11 UNL     1      27.831   3.012  54.722  1.00  0.00     0.156 HD
HETATM   20  H12 UNL     1      27.236   3.119  52.977  1.00  0.00     0.156 HD
ENDBRANCH  17  18
ENDBRANCH  11  12
ENDBRANCH   4  11
BRANCH   1  21
HETATM   21  O1  UNL     1      21.982   2.240  49.183  1.00  0.00    -0.353 OA
HETATM   22  C1  UNL     1      22.247   1.791  47.889  1.00  0.00     0.210 C 
ENDBRANCH   1  21
BRANCH   8  23
HETATM   23  O2  UNL     1      20.419   0.138  51.126  1.00  0.00    -0.351 OA
HETATM   24  C16 UNL     1      19.314   0.774  51.780  1.00  0.00     0.210 C 
ENDBRANCH   8  23
TORSDOF 5
ENDMDL
MODEL 3
REMARK VINA RESULT:      -7.4      3.074      6.290
REMARK  5 active torsions:
REMARK  status: ('A' for Active; 'I' for Inactive)
REMARK    1  A    between atoms: O1_2  and  C2_3 
REMARK    2  A    between atoms: C5_6  and  C6_7 
REMARK    3  A    between atoms: C6_7  and  C7_8 
REMARK    4  A    between atoms: C12_13  and  N1_14 
REMARK    5  A    between atoms: C15_18  and  O2_19 
ROOT
HETATM    1  C2  UNL     1      26.933   1.827  51.952  1.00  0.00     0.104 C 
HETATM    2  C3  UNL     1      26.139   0.728  51.685  1.00  0.00     0.047 C 
HETATM    3  C4  UNL     1      26.082  -0.163  52.838  1.00  0.00    -0.045 C 
HETATM    4  C5  UNL     1      25.150  -0.599  53.667  1.00  0.00    -0.051 C 
HETATM    5  C13 UNL     1      25.575  -0.609  55.152  1.00  0.00     0.154 C 
HETATM    6  N2  UNL     1      26.483   0.599  55.284  1.00  0.00    -0.387 N 
HETATM    7  C14 UNL     1      27.218   0.888  54.090  1.00  0.00     0.046 C 
HETATM    8  C15 UNL     1      27.557   1.941  53.341  1.00  0.00     0.124 C 
HETATM    9  C17 UNL     1      27.510  -0.501  53.380  1.00  0.00     0.098 C 
HETATM   10  H15 UNL     1      26.852   1.418  55.896  1.00  0.00     0.159 HD
ENDROOT
BRANCH   4  11
HETATM   11  C6  UNL     1      23.986  -0.869  52.766  1.00  0.00     0.077 C 
BRANCH  11  12
HETATM   12  C7  UNL     1      22.862   0.037  52.935  1.00  0.00    -0.028 A 
HETATM   13  C8  UNL     1      22.652   1.252  52.310  1.00  0.00     0.010 A 
HETATM   14  C9  UNL     1      21.518   1.993  52.586  1.00  0.00     0.001 A 
HETATM   15  C10 UNL     1      20.566   1.578  53.469  1.00  0.00     0.002 A 
HETATM   16  C11 UNL     1      20.774   0.350  54.103  1.00  0.00     0.029 A 
HETATM   17  C12 UNL     1      21.884  -0.388  53.841  1.00  0.00     0.032 A 
BRANCH  17  18
HETATM   18  N1  UNL     1      21.982  -1.612  54.544  1.00  0.00    -0.399 N 
HETATM   19  H11 UNL     1      22.143  -2.500  53.995  1.00  0.00     0.156 HD
HETATM   20  H12 UNL     1      21.892  -1.597  55.585  1.00  0.00     0.156 HD
ENDBRANCH  17  18
ENDBRANCH  11  12
ENDBRANCH   4  11
BRANCH   1  21
HETATM   21  O1  UNL     1      27.207   2.821  51.083  1.00  0.00    -0.353 OA
HETATM   22  C1  UNL     1      26.480   3.230  49.965  1.00  0.00     0.210 C 
ENDBRANCH   1  21
BRANCH   8  23
HETATM   23  O2  UNL     1      28.329   2.709  54.143  1.00  0.00    -0.351 OA
HETATM   24  C16 UNL     1      29.616   2.180  54.488  1.00  0.00     0.210 C 
ENDBRANCH   8  23
TORSDOF 5
ENDMDL
MODEL 4
REMARK VINA RESULT:      -7.4      3.358      7.001
REMARK  5 active torsions:
REMARK  status: ('A' for Active; 'I' for Inactive)
REMARK    1  A    between atoms: O1_2  and  C2_3 
REMARK    2  A    between atoms: C5_6  and  C6_7 
REMARK    3  A    between atoms: C6_7  and  C7_8 
REMARK    4  A    between atoms: C12_13  and  N1_14 
REMARK    5  A    between atoms: C15_18  and  O2_19 
ROOT
HETATM    1  C2  UNL     1      27.934   1.622  53.191  1.00  0.00     0.104 C 
HETATM    2  C3  UNL     1      26.808   2.053  52.515  1.00  0.00     0.047 C 
HETATM    3  C4  UNL     1      25.804   0.997  52.456  1.00  0.00    -0.045 C 
HETATM    4  C5  UNL     1      24.577   0.816  52.908  1.00  0.00    -0.051 C 
HETATM    5  C13 UNL     1      24.322  -0.584  53.510  1.00  0.00     0.154 C 
HETATM    6  N2  UNL     1      25.645  -0.954  54.156  1.00  0.00    -0.387 N 
HETATM    7  C14 UNL     1      26.780  -0.407  53.475  1.00  0.00     0.046 C 
HETATM    8  C15 UNL     1      27.931   0.206  53.761  1.00  0.00     0.124 C 
HETATM    9  C17 UNL     1      26.409  -0.348  51.933  1.00  0.00     0.098 C 
HETATM   10  H15 UNL     1      26.174  -1.460  54.958  1.00  0.00     0.159 HD
ENDROOT
BRANCH   4  11
HETATM   11  C6  UNL     1      23.924   2.142  52.679  1.00  0.00     0.077 C 
BRANCH  11  12
HETATM   12  C7  UNL     1      23.423   2.352  51.331  1.00  0.00    -0.028 A 
HETATM   13  C8  UNL     1      22.651   1.493  50.571  1.00  0.00     0.010 A 
HETATM   14  C9  UNL     1      22.256   1.850  49.296  1.00  0.00     0.001 A 
HETATM   15  C10 UNL     1      22.598   3.042  48.729  1.00  0.00     0.002 A 
HETATM   16  C11 UNL     1      23.378   3.913  49.493  1.00  0.00     0.029 A 
HETATM   17  C12 UNL     1      23.773   3.574  50.747  1.00  0.00     0.032 A 
BRANCH  17  18
HETATM   18  N1  UNL     1      24.560   4.538  51.420  1.00  0.00    -0.399 N 
HETATM   19  H11 UNL     1      24.545   4.556  52.477  1.00  0.00     0.156 HD
HETATM   20  H12 UNL     1      25.132   5.202  50.850  1.00  0.00     0.156 HD
ENDBRANCH  17  18
ENDBRANCH  11  12
ENDBRANCH   4  11
BRANCH   1  21
HETATM   21  O1  UNL     1      29.049   2.354  53.395  1.00  0.00    -0.353 OA
HETATM   22  C1  UNL     1      29.914   2.341  54.489  1.00  0.00     0.210 C 
ENDBRANCH   1  21
BRANCH   8  23
HETATM   23  O2  UNL     1      28.644  -0.698  54.470  1.00  0.00    -0.351 OA
HETATM   24  C16 UNL     1      29.746  -1.315  53.793  1.00  0.00     0.210 C 
ENDBRANCH   8  23
TORSDOF 5
ENDMDL
MODEL 5
REMARK VINA RESULT:      -7.3      3.057      6.643
REMARK  5 active torsions:
REMARK  status: ('A' for Active; 'I' for Inactive)
REMARK    1  A    between atoms: O1_2  and  C2_3 
REMARK    2  A    between atoms: C5_6  and  C6_7 
REMARK    3  A    between atoms: C6_7  and  C7_8 
REMARK    4  A    between atoms: C12_13  and  N1_14 
REMARK    5  A    between atoms: C15_18  and  O2_19 
ROOT
HETATM    1  C2  UNL     1      27.150  -0.473  53.094  1.00  0.00     0.104 C 
HETATM    2  C3  UNL     1      25.885  -0.883  53.469  1.00  0.00     0.047 C 
HETATM    3  C4  UNL     1      25.014   0.264  53.693  1.00  0.00    -0.045 C 
HETATM    4  C5  UNL     1      23.908   0.747  53.155  1.00  0.00    -0.051 C 
HETATM    5  C13 UNL     1      23.921   2.277  52.942  1.00  0.00     0.154 C 
HETATM    6  N2  UNL     1      25.366   2.590  52.603  1.00  0.00    -0.387 N 
HETATM    7  C14 UNL     1      26.301   1.715  53.243  1.00  0.00     0.046 C 
HETATM    8  C15 UNL     1      27.405   1.025  52.948  1.00  0.00     0.124 C 
HETATM    9  C17 UNL     1      25.673   1.316  54.645  1.00  0.00     0.098 C 
HETATM   10  H15 UNL     1      26.077   3.199  52.050  1.00  0.00     0.159 HD
ENDROOT
BRANCH   4  11
HETATM   11  C6  UNL     1      23.078  -0.475  52.915  1.00  0.00     0.077 C 
BRANCH  11  12
HETATM   12  C7  UNL     1      21.720  -0.212  52.469  1.00  0.00    -0.028 A 
HETATM   13  C8  UNL     1      21.314   0.308  51.254  1.00  0.00     0.010 A 
HETATM   14  C9  UNL     1      19.971   0.495  50.988  1.00  0.00     0.001 A 
HETATM   15  C10 UNL     1      18.994   0.184  51.887  1.00  0.00     0.002 A 
HETATM   16  C11 UNL     1      19.400  -0.343  53.116  1.00  0.00     0.029 A 
HETATM   17  C12 UNL     1      20.717  -0.531  53.390  1.00  0.00     0.032 A 
BRANCH  17  18
HETATM   18  N1  UNL     1      21.002  -1.069  54.667  1.00  0.00    -0.399 N 
HETATM   19  H11 UNL     1      20.210  -1.484  55.230  1.00  0.00     0.156 HD
HETATM   20  H12 UNL     1      21.989  -1.040  55.011  1.00  0.00     0.156 HD
ENDBRANCH  17  18
ENDBRANCH  11  12
ENDBRANCH   4  11
BRANCH   1  21
HETATM   21  O1  UNL     1      28.192  -1.292  52.839  1.00  0.00    -0.353 OA
HETATM   22  C1  UNL     1      29.441  -1.335  53.457  1.00  0.00     0.210 C 
ENDBRANCH   1  21
BRANCH   8  23
HETATM   23  O2  UNL     1      28.327   1.959  52.621  1.00  0.00    -0.351 OA
HETATM   24  C16 UNL     1      29.069   2.532  53.704  1.00  0.00     0.210 C 
ENDBRANCH   8  23
TORSDOF 5
ENDMDL
MODEL 6
REMARK VINA RESULT:      -7.2      3.144      6.889
REMARK  5 active torsions:
REMARK  status: ('A' for Active; 'I' for Inactive)
REMARK    1  A    between atoms: O1_2  and  C2_3 
REMARK    2  A    between atoms: C5_6  and  C6_7 
REMARK    3  A    between atoms: C6_7  and  C7_8 
REMARK    4  A    between atoms: C12_13  and  N1_14 
REMARK    5  A    between atoms: C15_18  and  O2_19 
ROOT
HETATM    1  C2  UNL     1      27.533   1.487  53.003  1.00  0.00     0.104 C 
HETATM    2  C3  UNL     1      26.315   1.717  52.392  1.00  0.00     0.047 C 
HETATM    3  C4  UNL     1      25.399   0.608  52.630  1.00  0.00    -0.045 C 
HETATM    4  C5  UNL     1      24.241   0.436  53.240  1.00  0.00    -0.051 C 
HETATM    5  C13 UNL     1      24.160  -0.843  54.102  1.00  0.00     0.154 C 
HETATM    6  N2  UNL     1      25.566  -1.007  54.651  1.00  0.00    -0.387 N 
HETATM    7  C14 UNL     1      26.580  -0.524  53.764  1.00  0.00     0.046 C 
HETATM    8  C15 UNL     1      27.700   0.202  53.808  1.00  0.00     0.124 C 
HETATM    9  C17 UNL     1      26.056  -0.770  52.286  1.00  0.00     0.098 C 
HETATM   10  H15 UNL     1      26.210  -1.325  55.466  1.00  0.00     0.159 HD
ENDROOT
BRANCH   4  11
HETATM   11  C6  UNL     1      23.463   1.656  52.857  1.00  0.00     0.077 C 
BRANCH  11  12
HETATM   12  C7  UNL     1      22.715   1.538  51.617  1.00  0.00    -0.028 A 
HETATM   13  C8  UNL     1      23.080   1.987  50.361  1.00  0.00     0.010 A 
HETATM   14  C9  UNL     1      22.244   1.791  49.279  1.00  0.00     0.001 A 
HETATM   15  C10 UNL     1      21.041   1.159  49.385  1.00  0.00     0.002 A 
HETATM   16  C11 UNL     1      20.668   0.704  50.652  1.00  0.00     0.029 A 
HETATM   17  C12 UNL     1      21.480   0.890  51.724  1.00  0.00     0.032 A 
BRANCH  17  18
HETATM   18  N1  UNL     1      20.992   0.386  52.953  1.00  0.00    -0.399 N 
HETATM   19  H11 UNL     1      20.001   0.020  52.992  1.00  0.00     0.156 HD
HETATM   20  H12 UNL     1      21.628   0.391  53.782  1.00  0.00     0.156 HD
ENDBRANCH  17  18
ENDBRANCH  11  12
ENDBRANCH   4  11
BRANCH   1  21
HETATM   21  O1  UNL     1      28.600   2.311  52.951  1.00  0.00    -0.353 OA
HETATM   22  C1  UNL     1      29.572   2.545  53.924  1.00  0.00     0.210 C 
ENDBRANCH   1  21
BRANCH   8  23
HETATM   23  O2  UNL     1      28.551  -0.513  54.581  1.00  0.00    -0.351 OA
HETATM   24  C16 UNL     1      29.641  -1.153  53.906  1.00  0.00     0.210 C 
ENDBRANCH   8  23
TORSDOF 5
ENDMDL
MODEL 7
REMARK VINA RESULT:      -7.0      3.386      5.712
REMARK  5 active torsions:
REMARK  status: ('A' for Active; 'I' for Inactive)
REMARK    1  A    between atoms: O1_2  and  C2_3 
REMARK    2  A    between atoms: C5_6  and  C6_7 
REMARK    3  A    between atoms: C6_7  and  C7_8 
REMARK    4  A    between atoms: C12_13  and  N1_14 
REMARK    5  A    between atoms: C15_18  and  O2_19 
ROOT
HETATM    1  C2  UNL     1      23.645   0.252  53.017  1.00  0.00     0.104 C 
HETATM    2  C3  UNL     1      23.677   1.435  52.303  1.00  0.00     0.047 C 
HETATM    3  C4  UNL     1      24.974   2.087  52.441  1.00  0.00    -0.045 C 
HETATM    4  C5  UNL     1      25.969   2.420  51.638  1.00  0.00    -0.051 C 
HETATM    5  C13 UNL     1      27.373   2.111  52.205  1.00  0.00     0.154 C 
HETATM    6  N2  UNL     1      27.175   0.839  53.008  1.00  0.00    -0.387 N 
HETATM    7  C14 UNL     1      25.873   0.736  53.594  1.00  0.00     0.046 C 
HETATM    8  C15 UNL     1      24.909  -0.173  53.760  1.00  0.00     0.124 C 
HETATM    9  C17 UNL     1      25.404   2.212  53.940  1.00  0.00     0.098 C 
HETATM   10  H15 UNL     1      27.579  -0.106  53.359  1.00  0.00     0.159 HD
ENDROOT
BRANCH   4  11
HETATM   11  C6  UNL     1      25.272   2.940  50.421  1.00  0.00     0.077 C 
BRANCH  11  12
HETATM   12  C7  UNL     1      25.919   4.076  49.785  1.00  0.00    -0.028 A 
HETATM   13  C8  UNL     1      27.108   4.088  49.080  1.00  0.00     0.010 A 
HETATM   14  C9  UNL     1      27.586   5.265  48.535  1.00  0.00     0.001 A 
HETATM   15  C10 UNL     1      26.927   6.451  48.658  1.00  0.00     0.002 A 
HETATM   16  C11 UNL     1      25.724   6.444  49.370  1.00  0.00     0.029 A 
HETATM   17  C12 UNL     1      25.245   5.295  49.911  1.00  0.00     0.032 A 
BRANCH  17  18
HETATM   18  N1  UNL     1      24.019   5.415  50.609  1.00  0.00    -0.399 N 
HETATM   19  H11 UNL     1      23.971   5.077  51.610  1.00  0.00     0.156 HD
HETATM   20  H12 UNL     1      23.201   5.834  50.112  1.00  0.00     0.156 HD
ENDBRANCH  17  18
ENDBRANCH  11  12
ENDBRANCH   4  11
BRANCH   1  21
HETATM   21  O1  UNL     1      22.581  -0.572  53.112  1.00  0.00    -0.353 OA
HETATM   22  C1  UNL     1      21.907  -1.000  54.256  1.00  0.00     0.210 C 
ENDBRANCH   1  21
BRANCH   8  23
HETATM   23  O2  UNL     1      25.462  -1.134  54.534  1.00  0.00    -0.351 OA
HETATM   24  C16 UNL     1      25.252  -1.017  55.947  1.00  0.00     0.210 C 
ENDBRANCH   8  23
TORSDOF 5
ENDMDL
MODEL 8
REMARK VINA RESULT:      -7.0      2.804      4.341
REMARK  5 active torsions:
REMARK  status: ('A' for Active; 'I' for Inactive)
REMARK    1  A    between atoms: O1_2  and  C2_3 
REMARK    2  A    between atoms: C5_6  and  C6_7 
REMARK    3  A    between atoms: C6_7  and  C7_8 
REMARK    4  A    between atoms: C12_13  and  N1_14 
REMARK    5  A    between atoms: C15_18  and  O2_19 
ROOT
HETATM    1  C2  UNL     1      25.991   3.044  50.496  1.00  0.00     0.104 C 
HETATM    2  C3  UNL     1      26.411   2.875  51.801  1.00  0.00     0.047 C 
HETATM    3  C4  UNL     1      25.312   2.421  52.645  1.00  0.00    -0.045 C 
HETATM    4  C5  UNL     1      25.033   1.346  53.359  1.00  0.00    -0.051 C 
HETATM    5  C13 UNL     1      23.580   0.841  53.207  1.00  0.00     0.154 C 
HETATM    6  N2  UNL     1      23.233   1.147  51.762  1.00  0.00    -0.387 N 
HETATM    7  C14 UNL     1      23.888   2.316  51.257  1.00  0.00     0.046 C 
HETATM    8  C15 UNL     1      24.538   2.716  50.161  1.00  0.00     0.124 C 
HETATM    9  C17 UNL     1      24.043   3.321  52.475  1.00  0.00     0.098 C 
HETATM   10  H15 UNL     1      22.697   0.867  50.860  1.00  0.00     0.159 HD
ENDROOT
BRANCH   4  11
HETATM   11  C6  UNL     1      26.337   1.020  54.016  1.00  0.00     0.077 C 
BRANCH  11  12
HETATM   12  C7  UNL     1      26.969  -0.201  53.545  1.00  0.00    -0.028 A 
HETATM   13  C8  UNL     1      26.389  -1.235  52.833  1.00  0.00     0.010 A 
HETATM   14  C9  UNL     1      27.140  -2.333  52.458  1.00  0.00     0.001 A 
HETATM   15  C10 UNL     1      28.463  -2.456  52.763  1.00  0.00     0.002 A 
HETATM   16  C11 UNL     1      29.053  -1.414  53.482  1.00  0.00     0.029 A 
HETATM   17  C12 UNL     1      28.326  -0.330  53.856  1.00  0.00     0.032 A 
BRANCH  17  18
HETATM   18  N1  UNL     1      29.035   0.658  54.580  1.00  0.00    -0.399 N 
HETATM   19  H11 UNL     1      28.794   1.675  54.418  1.00  0.00     0.156 HD
HETATM   20  H12 UNL     1      29.774   0.350  55.253  1.00  0.00     0.156 HD
ENDBRANCH  17  18
ENDBRANCH  11  12
ENDBRANCH   4  11
BRANCH   1  21
HETATM   21  O1  UNL     1      26.763   3.478  49.478  1.00  0.00    -0.353 OA
HETATM   22  C1  UNL     1      26.865   4.763  48.945  1.00  0.00     0.210 C 
ENDBRANCH   1  21
BRANCH   8  23
HETATM   23  O2  UNL     1      23.622   2.657  49.168  1.00  0.00    -0.351 OA
HETATM   24  C16 UNL     1      22.982   3.890  48.816  1.00  0.00     0.210 C 
ENDBRANCH   8  23
TORSDOF 5
ENDMDL
MODEL 9
REMARK VINA RESULT:      -7.0      2.250      3.383
REMARK  5 active torsions:
REMARK  status: ('A' for Active; 'I' for Inactive)
REMARK    1  A    between atoms: O1_2  and  C2_3 
REMARK    2  A    between atoms: C5_6  and  C6_7 
REMARK    3  A    between atoms: C6_7  and  C7_8 
REMARK    4  A    between atoms: C12_13  and  N1_14 
REMARK    5  A    between atoms: C15_18  and  O2_19 
ROOT
HETATM    1  C2  UNL     1      23.726   3.316  49.978  1.00  0.00     0.104 C 
HETATM    2  C3  UNL     1      24.900   2.884  50.567  1.00  0.00     0.047 C 
HETATM    3  C4  UNL     1      24.631   2.239  51.846  1.00  0.00    -0.045 C 
HETATM    4  C5  UNL     1      24.779   1.032  52.360  1.00  0.00    -0.051 C 
HETATM    5  C13 UNL     1      23.568   0.538  53.184  1.00  0.00     0.154 C 
HETATM    6  N2  UNL     1      22.369   1.134  52.469  1.00  0.00    -0.387 N 
HETATM    7  C14 UNL     1      22.646   2.397  51.854  1.00  0.00     0.046 C 
HETATM    8  C15 UNL     1      22.414   3.034  50.704  1.00  0.00     0.124 C 
HETATM    9  C17 UNL     1      23.724   3.126  52.763  1.00  0.00     0.098 C 
HETATM   10  H15 UNL     1      21.330   1.039  52.168  1.00  0.00     0.159 HD
ENDROOT
BRANCH   4  11
HETATM   11  C6  UNL     1      26.120   0.603  51.854  1.00  0.00     0.077 C 
BRANCH  11  12
HETATM   12  C7  UNL     1      27.235   0.926  52.730  1.00  0.00    -0.028 A 
HETATM   13  C8  UNL     1      27.803   2.166  52.955  1.00  0.00     0.010 A 
HETATM   14  C9  UNL     1      28.866   2.299  53.828  1.00  0.00     0.001 A 
HETATM   15  C10 UNL     1      29.402   1.240  54.499  1.00  0.00     0.002 A 
HETATM   16  C11 UNL     1      28.831  -0.015  54.274  1.00  0.00     0.029 A 
HETATM   17  C12 UNL     1      27.786  -0.159  53.419  1.00  0.00     0.032 A 
BRANCH  17  18
HETATM   18  N1  UNL     1      27.295  -1.479  53.275  1.00  0.00    -0.399 N 
HETATM   19  H11 UNL     1      26.762  -1.727  52.396  1.00  0.00     0.156 HD
HETATM   20  H12 UNL     1      27.476  -2.165  54.042  1.00  0.00     0.156 HD
ENDBRANCH  17  18
ENDBRANCH  11  12
ENDBRANCH   4  11
BRANCH   1  21
HETATM   21  O1  UNL     1      23.639   3.972  48.803  1.00  0.00    -0.353 OA
HETATM   22  C1  UNL     1      23.363   5.319  48.572  1.00  0.00     0.210 C 
ENDBRANCH   1  21
BRANCH   8  23
HETATM   23  O2  UNL     1      21.069   3.166  50.642  1.00  0.00    -0.351 OA
HETATM   24  C16 UNL     1      20.538   4.458  50.958  1.00  0.00     0.210 C 
ENDBRANCH   8  23
TORSDOF 5
ENDMDL
