MODEL 1
REMARK VINA RESULT:      -7.4      0.000      0.000
REMARK  7 active torsions:
REMARK  status: ('A' for Active; 'I' for Inactive)
REMARK    1  A    between atoms: C2_2  and  C3_3 
REMARK       I    between atoms: C3_3  and  N1_5 
REMARK    2  A    between atoms: C6_8  and  O2_9 
REMARK    3  A    between atoms: O2_9  and  C7_10 
REMARK    4  A    between atoms: C8_12  and  N3_13 
REMARK    5  A    between atoms: N3_13  and  C9_14 
REMARK    6  A    between atoms: C10_16  and  C11_17 
REMARK       I    between atoms: C11_17  and  N4_18 
REMARK    7  A    between atoms: C12_21  and  C13_22 
ROOT
HETATM    1  C7  UNL     1      24.861   0.608  52.911  1.00  0.00     0.192 A 
HETATM    2  N2  UNL     1      25.761  -0.277  53.373  1.00  0.00    -0.203 NA
HETATM    3  C8  UNL     1      26.993   0.091  53.771  1.00  0.00     0.163 A 
HETATM    4  C10 UNL     1      27.263   1.433  53.671  1.00  0.00     0.170 A 
HETATM    5  N5  UNL     1      26.381   2.338  53.213  1.00  0.00    -0.240 NA
HETATM    6  C12 UNL     1      25.149   1.969  52.815  1.00  0.00     0.088 A 
ENDROOT
BRANCH   1   7
HETATM    7  O2  UNL     1      23.585   0.249  52.496  1.00  0.00    -0.326 OA
BRANCH   7   8
HETATM    8  C6  UNL     1      22.530   0.144  53.431  1.00  0.00     0.150 C 
HETATM    9  C5  UNL     1      22.442  -1.268  53.907  1.00  0.00     0.054 C 
HETATM   10  C4  UNL     1      20.971  -1.432  54.231  1.00  0.00     0.129 C 
HETATM   11  N1  UNL     1      20.273  -0.563  53.334  1.00  0.00    -0.346 N 
HETATM   12  C3  UNL     1      18.935  -0.495  52.865  1.00  0.00     0.239 C 
HETATM   13  C15 UNL     1      21.199   0.454  52.831  1.00  0.00     0.158 C 
HETATM   14  O1  UNL     1      18.428   0.334  52.056  1.00  0.00    -0.269 OA
BRANCH  12  15
HETATM   15  C2  UNL     1      17.953  -1.462  53.321  1.00  0.00     0.048 C 
HETATM   16  C1  UNL     1      16.740  -1.456  52.804  1.00  0.00     0.037 C 
ENDBRANCH  12  15
ENDBRANCH   7   8
ENDBRANCH   1   7
BRANCH   6  17
HETATM   17  C13 UNL     1      24.162   2.942  52.308  1.00  0.00     0.059 C 
HETATM   18  C14 UNL     1      24.401   3.301  50.863  1.00  0.00     0.011 C 
ENDBRANCH   6  17
BRANCH   3  19
HETATM   19  N3  UNL     1      27.948  -0.820  54.256  1.00  0.00    -0.347 N 
HETATM   20  H9  UNL     1      28.044  -1.013  55.258  1.00  0.00     0.163 HD
BRANCH  19  21
HETATM   21  C9  UNL     1      28.797  -1.478  53.277  1.00  0.00     0.346 C 
HETATM   22  F1  UNL     1      30.057  -0.894  53.355  1.00  0.00    -0.234 F 
ENDBRANCH  19  21
ENDBRANCH   3  19
BRANCH   4  23
HETATM   23  C11 UNL     1      28.537   2.006  54.055  1.00  0.00     0.272 C 
HETATM   24  N4  UNL     1      29.300   2.925  53.290  1.00  0.00    -0.365 N 
HETATM   25  H12 UNL     1      30.127   2.816  52.671  1.00  0.00     0.159 HD
HETATM   26  H13 UNL     1      28.992   3.940  53.339  1.00  0.00     0.159 HD
HETATM   27  O3  UNL     1      29.370   1.984  54.987  1.00  0.00    -0.266 OA
ENDBRANCH   4  23
TORSDOF 7
ENDMDL
MODEL 2
REMARK VINA RESULT:      -7.3      3.242      7.277
REMARK  7 active torsions:
REMARK  status: ('A' for Active; 'I' for Inactive)
REMARK    1  A    between atoms: C2_2  and  C3_3 
REMARK       I    between atoms: C3_3  and  N1_5 
REMARK    2  A    between atoms: C6_8  and  O2_9 
REMARK    3  A    between atoms: O2_9  and  C7_10 
REMARK    4  A    between atoms: C8_12  and  N3_13 
REMARK    5  A    between atoms: N3_13  and  C9_14 
REMARK    6  A    between atoms: C10_16  and  C11_17 
REMARK       I    between atoms: C11_17  and  N4_18 
REMARK    7  A    between atoms: C12_21  and  C13_22 
ROOT
HETATM    1  C7  UNL     1      23.871   1.402  51.621  1.00  0.00     0.192 A 
HETATM    2  N2  UNL     1      24.757   0.846  52.464  1.00  0.00    -0.203 NA
HETATM    3  C8  UNL     1      24.382   0.036  53.471  1.00  0.00     0.163 A 
HETATM    4  C10 UNL     1      23.030  -0.181  53.574  1.00  0.00     0.170 A 
HETATM    5  N5  UNL     1      22.123   0.362  52.743  1.00  0.00    -0.240 NA
HETATM    6  C12 UNL     1      22.500   1.173  51.736  1.00  0.00     0.088 A 
ENDROOT
BRANCH   1   7
HETATM    7  O2  UNL     1      24.238   2.239  50.575  1.00  0.00    -0.326 OA
BRANCH   7   8
HETATM    8  C6  UNL     1      24.907   3.457  50.832  1.00  0.00     0.150 C 
HETATM    9  C5  UNL     1      24.053   4.588  50.363  1.00  0.00     0.054 C 
HETATM   10  C4  UNL     1      25.064   5.650  49.983  1.00  0.00     0.129 C 
HETATM   11  N1  UNL     1      26.231   4.943  49.549  1.00  0.00    -0.346 N 
HETATM   12  C3  UNL     1      27.356   5.286  48.755  1.00  0.00     0.239 C 
HETATM   13  C15 UNL     1      26.190   3.578  50.079  1.00  0.00     0.158 C 
HETATM   14  O1  UNL     1      28.341   4.560  48.435  1.00  0.00    -0.269 OA
BRANCH  12  15
HETATM   15  C2  UNL     1      27.475   6.621  48.199  1.00  0.00     0.048 C 
HETATM   16  C1  UNL     1      28.590   6.980  47.593  1.00  0.00     0.037 C 
ENDBRANCH  12  15
ENDBRANCH   7   8
ENDBRANCH   1   7
BRANCH   6  17
HETATM   17  C13 UNL     1      21.526   1.783  50.810  1.00  0.00     0.059 C 
HETATM   18  C14 UNL     1      21.212   0.887  49.639  1.00  0.00     0.011 C 
ENDBRANCH   6  17
BRANCH   3  19
HETATM   19  N3  UNL     1      25.293  -0.554  54.364  1.00  0.00    -0.347 N 
HETATM   20  H9  UNL     1      25.200  -1.532  54.657  1.00  0.00     0.163 HD
BRANCH  19  21
HETATM   21  C9  UNL     1      26.376   0.280  54.857  1.00  0.00     0.346 C 
HETATM   22  F1  UNL     1      27.572  -0.305  54.455  1.00  0.00    -0.234 F 
ENDBRANCH  19  21
ENDBRANCH   3  19
BRANCH   4  23
HETATM   23  C11 UNL     1      22.448  -1.026  54.597  1.00  0.00     0.272 C 
HETATM   24  N4  UNL     1      21.073  -1.349  54.726  1.00  0.00    -0.365 N 
HETATM   25  H12 UNL     1      20.313  -0.983  55.331  1.00  0.00     0.159 HD
HETATM   26  H13 UNL     1      20.714  -2.119  54.088  1.00  0.00     0.159 HD
HETATM   27  O3  UNL     1      22.771  -1.701  55.598  1.00  0.00    -0.266 OA
ENDBRANCH   4  23
TORSDOF 7
ENDMDL
MODEL 3
REMARK VINA RESULT:      -7.3      2.758      5.868
REMARK  7 active torsions:
REMARK  status: ('A' for Active; 'I' for Inactive)
REMARK    1  A    between atoms: C2_2  and  C3_3 
REMARK       I    between atoms: C3_3  and  N1_5 
REMARK    2  A    between atoms: C6_8  and  O2_9 
REMARK    3  A    between atoms: O2_9  and  C7_10 
REMARK    4  A    between atoms: C8_12  and  N3_13 
REMARK    5  A    between atoms: N3_13  and  C9_14 
REMARK    6  A    between atoms: C10_16  and  C11_17 
REMARK       I    between atoms: C11_17  and  N4_18 
REMARK    7  A    between atoms: C12_21  and  C13_22 
ROOT
HETATM    1  C7  UNL     1      24.510   1.518  52.957  1.00  0.00     0.192 A 
HETATM    2  N2  UNL     1      25.779   1.946  52.844  1.00  0.00    -0.203 NA
HETATM    3  C8  UNL     1      26.829   1.109  52.913  1.00  0.00     0.163 A 
HETATM    4  C10 UNL     1      26.512  -0.213  53.106  1.00  0.00     0.170 A 
HETATM    5  N5  UNL     1      25.253  -0.667  53.221  1.00  0.00    -0.240 NA
HETATM    6  C12 UNL     1      24.202   0.171  53.153  1.00  0.00     0.088 A 
ENDROOT
BRANCH   1   7
HETATM    7  O2  UNL     1      23.412   2.365  52.889  1.00  0.00    -0.326 OA
BRANCH   7   8
HETATM    8  C6  UNL     1      23.127   3.076  51.701  1.00  0.00     0.150 C 
HETATM    9  C5  UNL     1      23.689   2.324  50.539  1.00  0.00     0.054 C 
HETATM   10  C4  UNL     1      24.008   3.419  49.541  1.00  0.00     0.129 C 
HETATM   11  N1  UNL     1      24.329   4.577  50.319  1.00  0.00    -0.346 N 
HETATM   12  C3  UNL     1      25.035   5.780  50.055  1.00  0.00     0.239 C 
HETATM   13  C15 UNL     1      23.775   4.420  51.666  1.00  0.00     0.158 C 
HETATM   14  O1  UNL     1      25.259   6.746  50.839  1.00  0.00    -0.269 OA
BRANCH  12  15
HETATM   15  C2  UNL     1      25.608   6.015  48.743  1.00  0.00     0.048 C 
HETATM   16  C1  UNL     1      26.917   5.966  48.582  1.00  0.00     0.037 C 
ENDBRANCH  12  15
ENDBRANCH   7   8
ENDBRANCH   1   7
BRANCH   6  17
HETATM   17  C13 UNL     1      22.809  -0.300  53.277  1.00  0.00     0.059 C 
HETATM   18  C14 UNL     1      22.537  -0.938  54.616  1.00  0.00     0.011 C 
ENDBRANCH   6  17
BRANCH   3  19
HETATM   19  N3  UNL     1      28.164   1.537  52.798  1.00  0.00    -0.347 N 
HETATM   20  H9  UNL     1      28.757   1.239  52.018  1.00  0.00     0.163 HD
BRANCH  19  21
HETATM   21  C9  UNL     1      28.669   2.423  53.833  1.00  0.00     0.346 C 
HETATM   22  F1  UNL     1      29.440   1.657  54.700  1.00  0.00    -0.234 F 
ENDBRANCH  19  21
ENDBRANCH   3  19
BRANCH   4  23
HETATM   23  C11 UNL     1      27.517  -1.253  53.203  1.00  0.00     0.272 C 
HETATM   24  N4  UNL     1      27.354  -2.605  52.807  1.00  0.00    -0.365 N 
HETATM   25  H12 UNL     1      27.149  -3.478  53.331  1.00  0.00     0.159 HD
HETATM   26  H13 UNL     1      27.457  -2.802  51.767  1.00  0.00     0.159 HD
HETATM   27  O3  UNL     1      28.695  -1.433  53.578  1.00  0.00    -0.266 OA
ENDBRANCH   4  23
TORSDOF 7
ENDMDL
MODEL 4
REMARK VINA RESULT:      -7.1      2.789      4.368
REMARK  7 active torsions:
REMARK  status: ('A' for Active; 'I' for Inactive)
REMARK    1  A    between atoms: C2_2  and  C3_3 
REMARK       I    between atoms: C3_3  and  N1_5 
REMARK    2  A    between atoms: C6_8  and  O2_9 
REMARK    3  A    between atoms: O2_9  and  C7_10 
REMARK    4  A    between atoms: C8_12  and  N3_13 
REMARK    5  A    between atoms: N3_13  and  C9_14 
REMARK    6  A    between atoms: C10_16  and  C11_17 
REMARK       I    between atoms: C11_17  and  N4_18 
REMARK    7  A    between atoms: C12_21  and  C13_22 
ROOT
HETATM    1  C7  UNL     1      24.509   1.210  53.056  1.00  0.00     0.192 A 
HETATM    2  N2  UNL     1      25.745   1.712  52.889  1.00  0.00    -0.203 NA
HETATM    3  C8  UNL     1      26.846   0.941  52.941  1.00  0.00     0.163 A 
HETATM    4  C10 UNL     1      26.617  -0.392  53.175  1.00  0.00     0.170 A 
HETATM    5  N5  UNL     1      25.392  -0.918  53.345  1.00  0.00    -0.240 NA
HETATM    6  C12 UNL     1      24.290  -0.147  53.293  1.00  0.00     0.088 A 
ENDROOT
BRANCH   1   7
HETATM    7  O2  UNL     1      23.360   1.988  53.005  1.00  0.00    -0.326 OA
BRANCH   7   8
HETATM    8  C6  UNL     1      23.096   2.807  51.883  1.00  0.00     0.150 C 
HETATM    9  C5  UNL     1      21.868   3.614  52.150  1.00  0.00     0.054 C 
HETATM   10  C4  UNL     1      21.283   3.819  50.768  1.00  0.00     0.129 C 
HETATM   11  N1  UNL     1      21.657   2.664  50.009  1.00  0.00    -0.346 N 
HETATM   12  C3  UNL     1      21.166   2.060  48.822  1.00  0.00     0.239 C 
HETATM   13  C15 UNL     1      22.802   2.016  50.652  1.00  0.00     0.158 C 
HETATM   14  O1  UNL     1      21.587   1.020  48.238  1.00  0.00    -0.269 OA
BRANCH  12  15
HETATM   15  C2  UNL     1      20.038   2.645  48.120  1.00  0.00     0.048 C 
HETATM   16  C1  UNL     1      20.229   3.247  46.962  1.00  0.00     0.037 C 
ENDBRANCH  12  15
ENDBRANCH   7   8
ENDBRANCH   1   7
BRANCH   6  17
HETATM   17  C13 UNL     1      22.934  -0.698  53.476  1.00  0.00     0.059 C 
HETATM   18  C14 UNL     1      22.682  -1.139  54.896  1.00  0.00     0.011 C 
ENDBRANCH   6  17
BRANCH   3  19
HETATM   19  N3  UNL     1      28.148   1.446  52.770  1.00  0.00    -0.347 N 
HETATM   20  H9  UNL     1      28.730   1.169  51.973  1.00  0.00     0.163 HD
BRANCH  19  21
HETATM   21  C9  UNL     1      28.635   2.380  53.771  1.00  0.00     0.346 C 
HETATM   22  F1  UNL     1      29.413   1.660  54.671  1.00  0.00    -0.234 F 
ENDBRANCH  19  21
ENDBRANCH   3  19
BRANCH   4  23
HETATM   23  C11 UNL     1      27.686  -1.367  53.262  1.00  0.00     0.272 C 
HETATM   24  N4  UNL     1      27.602  -2.729  52.873  1.00  0.00    -0.365 N 
HETATM   25  H12 UNL     1      27.460  -3.609  53.404  1.00  0.00     0.159 HD
HETATM   26  H13 UNL     1      27.703  -2.923  51.833  1.00  0.00     0.159 HD
HETATM   27  O3  UNL     1      28.879  -1.471  53.621  1.00  0.00    -0.266 OA
ENDBRANCH   4  23
TORSDOF 7
ENDMDL
MODEL 5
REMARK VINA RESULT:      -7.0      3.745      7.667
REMARK  7 active torsions:
REMARK  status: ('A' for Active; 'I' for Inactive)
REMARK    1  A    between atoms: C2_2  and  C3_3 
REMARK       I    between atoms: C3_3  and  N1_5 
REMARK    2  A    between atoms: C6_8  and  O2_9 
REMARK    3  A    between atoms: O2_9  and  C7_10 
REMARK    4  A    between atoms: C8_12  and  N3_13 
REMARK    5  A    between atoms: N3_13  and  C9_14 
REMARK    6  A    between atoms: C10_16  and  C11_17 
REMARK       I    between atoms: C11_17  and  N4_18 
REMARK    7  A    between atoms: C12_21  and  C13_22 
ROOT
HETATM    1  C7  UNL     1      24.199   1.204  51.913  1.00  0.00     0.192 A 
HETATM    2  N2  UNL     1      22.954   1.183  52.416  1.00  0.00    -0.203 NA
HETATM    3  C8  UNL     1      22.618   0.421  53.473  1.00  0.00     0.163 A 
HETATM    4  C10 UNL     1      23.638  -0.333  53.999  1.00  0.00     0.170 A 
HETATM    5  N5  UNL     1      24.892  -0.329  53.514  1.00  0.00    -0.240 NA
HETATM    6  C12 UNL     1      25.227   0.434  52.457  1.00  0.00     0.088 A 
ENDROOT
BRANCH   1   7
HETATM    7  O2  UNL     1      24.566   1.984  50.824  1.00  0.00    -0.326 OA
BRANCH   7   8
HETATM    8  C6  UNL     1      25.088   3.284  51.015  1.00  0.00     0.150 C 
HETATM    9  C5  UNL     1      24.087   4.284  50.538  1.00  0.00     0.054 C 
HETATM   10  C4  UNL     1      24.948   5.445  50.086  1.00  0.00     0.129 C 
HETATM   11  N1  UNL     1      26.179   4.869  49.636  1.00  0.00    -0.346 N 
HETATM   12  C3  UNL     1      27.229   5.316  48.792  1.00  0.00     0.239 C 
HETATM   13  C15 UNL     1      26.323   3.530  50.214  1.00  0.00     0.158 C 
HETATM   14  O1  UNL     1      28.285   4.703  48.462  1.00  0.00    -0.269 OA
BRANCH  12  15
HETATM   15  C2  UNL     1      27.166   6.633  48.187  1.00  0.00     0.048 C 
HETATM   16  C1  UNL     1      28.226   7.418  48.217  1.00  0.00     0.037 C 
ENDBRANCH  12  15
ENDBRANCH   7   8
ENDBRANCH   1   7
BRANCH   6  17
HETATM   17  C13 UNL     1      26.595   0.456  51.905  1.00  0.00     0.059 C 
HETATM   18  C14 UNL     1      27.588   1.068  52.860  1.00  0.00     0.011 C 
ENDBRANCH   6  17
BRANCH   3  19
HETATM   19  N3  UNL     1      21.320   0.384  54.014  1.00  0.00    -0.347 N 
HETATM   20  H9  UNL     1      21.162   0.307  55.023  1.00  0.00     0.163 HD
BRANCH  19  21
HETATM   21  C9  UNL     1      20.209   0.459  53.081  1.00  0.00     0.346 C 
HETATM   22  F1  UNL     1      19.374  -0.624  53.335  1.00  0.00    -0.234 F 
ENDBRANCH  19  21
ENDBRANCH   3  19
BRANCH   4  23
HETATM   23  C11 UNL     1      23.457  -1.210  55.138  1.00  0.00     0.272 C 
HETATM   24  N4  UNL     1      24.462  -1.586  56.065  1.00  0.00    -0.365 N 
HETATM   25  H12 UNL     1      25.052  -2.435  56.165  1.00  0.00     0.159 HD
HETATM   26  H13 UNL     1      24.682  -0.878  56.827  1.00  0.00     0.159 HD
HETATM   27  O3  UNL     1      22.577  -1.886  55.713  1.00  0.00    -0.266 OA
ENDBRANCH   4  23
TORSDOF 7
ENDMDL
MODEL 6
REMARK VINA RESULT:      -6.9      2.017      3.041
REMARK  7 active torsions:
REMARK  status: ('A' for Active; 'I' for Inactive)
REMARK    1  A    between atoms: C2_2  and  C3_3 
REMARK       I    between atoms: C3_3  and  N1_5 
REMARK    2  A    between atoms: C6_8  and  O2_9 
REMARK    3  A    between atoms: O2_9  and  C7_10 
REMARK    4  A    between atoms: C8_12  and  N3_13 
REMARK    5  A    between atoms: N3_13  and  C9_14 
REMARK    6  A    between atoms: C10_16  and  C11_17 
REMARK       I    between atoms: C11_17  and  N4_18 
REMARK    7  A    between atoms: C12_21  and  C13_22 
ROOT
HETATM    1  C7  UNL     1      24.665   0.519  52.856  1.00  0.00     0.192 A 
HETATM    2  N2  UNL     1      25.090   1.524  52.072  1.00  0.00    -0.203 NA
HETATM    3  C8  UNL     1      26.289   2.111  52.242  1.00  0.00     0.163 A 
HETATM    4  C10 UNL     1      27.045   1.610  53.273  1.00  0.00     0.170 A 
HETATM    5  N5  UNL     1      26.643   0.607  54.071  1.00  0.00    -0.240 NA
HETATM    6  C12 UNL     1      25.443   0.020  53.900  1.00  0.00     0.088 A 
ENDROOT
BRANCH   1   7
HETATM    7  O2  UNL     1      23.432  -0.100  52.696  1.00  0.00    -0.326 OA
BRANCH   7   8
HETATM    8  C6  UNL     1      22.238   0.587  53.010  1.00  0.00     0.150 C 
HETATM    9  C5  UNL     1      21.607  -0.055  54.201  1.00  0.00     0.054 C 
HETATM   10  C4  UNL     1      20.128   0.197  53.987  1.00  0.00     0.129 C 
HETATM   11  N1  UNL     1      19.938   0.233  52.569  1.00  0.00    -0.346 N 
HETATM   12  C3  UNL     1      18.814   0.073  51.718  1.00  0.00     0.239 C 
HETATM   13  C15 UNL     1      21.223   0.502  51.918  1.00  0.00     0.158 C 
HETATM   14  O1  UNL     1      18.771   0.127  50.455  1.00  0.00    -0.269 OA
BRANCH  12  15
HETATM   15  C2  UNL     1      17.504  -0.188  52.284  1.00  0.00     0.048 C 
HETATM   16  C1  UNL     1      17.146  -1.428  52.560  1.00  0.00     0.037 C 
ENDBRANCH  12  15
ENDBRANCH   7   8
ENDBRANCH   1   7
BRANCH   6  17
HETATM   17  C13 UNL     1      24.977  -1.084  54.762  1.00  0.00     0.059 C 
HETATM   18  C14 UNL     1      25.143  -0.774  56.228  1.00  0.00     0.011 C 
ENDBRANCH   6  17
BRANCH   3  19
HETATM   19  N3  UNL     1      26.751   3.164  51.432  1.00  0.00    -0.347 N 
HETATM   20  H9  UNL     1      27.547   3.746  51.713  1.00  0.00     0.163 HD
BRANCH  19  21
HETATM   21  C9  UNL     1      26.054   3.395  50.179  1.00  0.00     0.346 C 
HETATM   22  F1  UNL     1      26.791   2.784  49.171  1.00  0.00    -0.234 F 
ENDBRANCH  19  21
ENDBRANCH   3  19
BRANCH   4  23
HETATM   23  C11 UNL     1      28.361   2.122  53.599  1.00  0.00     0.272 C 
HETATM   24  N4  UNL     1      29.158   1.720  54.701  1.00  0.00    -0.365 N 
HETATM   25  H12 UNL     1      29.337   2.137  55.635  1.00  0.00     0.159 HD
HETATM   26  H13 UNL     1      29.698   0.813  54.579  1.00  0.00     0.159 HD
HETATM   27  O3  UNL     1      29.212   2.941  53.193  1.00  0.00    -0.266 OA
ENDBRANCH   4  23
TORSDOF 7
ENDMDL
MODEL 7
REMARK VINA RESULT:      -6.8      3.795      7.457
REMARK  7 active torsions:
REMARK  status: ('A' for Active; 'I' for Inactive)
REMARK    1  A    between atoms: C2_2  and  C3_3 
REMARK       I    between atoms: C3_3  and  N1_5 
REMARK    2  A    between atoms: C6_8  and  O2_9 
REMARK    3  A    between atoms: O2_9  and  C7_10 
REMARK    4  A    between atoms: C8_12  and  N3_13 
REMARK    5  A    between atoms: N3_13  and  C9_14 
REMARK    6  A    between atoms: C10_16  and  C11_17 
REMARK       I    between atoms: C11_17  and  N4_18 
REMARK    7  A    between atoms: C12_21  and  C13_22 
ROOT
HETATM    1  C7  UNL     1      24.020   1.328  51.973  1.00  0.00     0.192 A 
HETATM    2  N2  UNL     1      22.742   1.386  52.386  1.00  0.00    -0.203 NA
HETATM    3  C8  UNL     1      22.257   0.572  53.340  1.00  0.00     0.163 A 
HETATM    4  C10 UNL     1      23.160  -0.322  53.861  1.00  0.00     0.170 A 
HETATM    5  N5  UNL     1      24.442  -0.400  53.467  1.00  0.00    -0.240 NA
HETATM    6  C12 UNL     1      24.927   0.415  52.512  1.00  0.00     0.088 A 
ENDROOT
BRANCH   1   7
HETATM    7  O2  UNL     1      24.541   2.160  50.991  1.00  0.00    -0.326 OA
BRANCH   7   8
HETATM    8  C6  UNL     1      23.817   3.293  50.552  1.00  0.00     0.150 C 
HETATM    9  C5  UNL     1      23.576   3.175  49.083  1.00  0.00     0.054 C 
HETATM   10  C4  UNL     1      23.525   4.618  48.625  1.00  0.00     0.129 C 
HETATM   11  N1  UNL     1      24.385   5.342  49.511  1.00  0.00    -0.346 N 
HETATM   12  C3  UNL     1      25.051   6.593  49.439  1.00  0.00     0.239 C 
HETATM   13  C15 UNL     1      24.574   4.566  50.739  1.00  0.00     0.158 C 
HETATM   14  O1  UNL     1      25.800   7.134  50.302  1.00  0.00    -0.269 OA
BRANCH  12  15
HETATM   15  C2  UNL     1      24.910   7.426  48.259  1.00  0.00     0.048 C 
HETATM   16  C1  UNL     1      25.959   7.661  47.495  1.00  0.00     0.037 C 
ENDBRANCH  12  15
ENDBRANCH   7   8
ENDBRANCH   1   7
BRANCH   6  17
HETATM   17  C13 UNL     1      26.330   0.351  52.060  1.00  0.00     0.059 C 
HETATM   18  C14 UNL     1      27.130  -0.676  52.820  1.00  0.00     0.011 C 
ENDBRANCH   6  17
BRANCH   3  19
HETATM   19  N3  UNL     1      20.923   0.616  53.784  1.00  0.00    -0.347 N 
HETATM   20  H9  UNL     1      20.667   1.073  54.665  1.00  0.00     0.163 HD
BRANCH  19  21
HETATM   21  C9  UNL     1      19.920  -0.013  52.942  1.00  0.00     0.346 C 
HETATM   22  F1  UNL     1      19.438   0.956  52.070  1.00  0.00    -0.234 F 
ENDBRANCH  19  21
ENDBRANCH   3  19
BRANCH   4  23
HETATM   23  C11 UNL     1      22.811  -1.273  54.897  1.00  0.00     0.272 C 
HETATM   24  N4  UNL     1      23.645  -1.675  55.971  1.00  0.00    -0.365 N 
HETATM   25  H12 UNL     1      24.240  -2.511  56.131  1.00  0.00     0.159 HD
HETATM   26  H13 UNL     1      23.693  -1.010  56.798  1.00  0.00     0.159 HD
HETATM   27  O3  UNL     1      21.869  -2.010  55.262  1.00  0.00    -0.266 OA
ENDBRANCH   4  23
TORSDOF 7
ENDMDL
MODEL 8
REMARK VINA RESULT:      -6.7      3.113      5.210
REMARK  7 active torsions:
REMARK  status: ('A' for Active; 'I' for Inactive)
REMARK    1  A    between atoms: C2_2  and  C3_3 
REMARK       I    between atoms: C3_3  and  N1_5 
REMARK    2  A    between atoms: C6_8  and  O2_9 
REMARK    3  A    between atoms: O2_9  and  C7_10 
REMARK    4  A    between atoms: C8_12  and  N3_13 
REMARK    5  A    between atoms: N3_13  and  C9_14 
REMARK    6  A    between atoms: C10_16  and  C11_17 
REMARK       I    between atoms: C11_17  and  N4_18 
REMARK    7  A    between atoms: C12_21  and  C13_22 
ROOT
HETATM    1  C7  UNL     1      23.517   2.581  52.834  1.00  0.00     0.192 A 
HETATM    2  N2  UNL     1      24.775   2.965  53.105  1.00  0.00    -0.203 NA
HETATM    3  C8  UNL     1      25.706   2.108  53.563  1.00  0.00     0.163 A 
HETATM    4  C10 UNL     1      25.277   0.815  53.733  1.00  0.00     0.170 A 
HETATM    5  N5  UNL     1      24.025   0.405  53.469  1.00  0.00    -0.240 NA
HETATM    6  C12 UNL     1      23.094   1.264  53.011  1.00  0.00     0.088 A 
ENDROOT
BRANCH   1   7
HETATM    7  O2  UNL     1      22.542   3.449  52.360  1.00  0.00    -0.326 OA
BRANCH   7   8
HETATM    8  C6  UNL     1      22.747   4.176  51.165  1.00  0.00     0.150 C 
HETATM    9  C5  UNL     1      21.543   5.016  50.894  1.00  0.00     0.054 C 
HETATM   10  C4  UNL     1      21.522   5.112  49.383  1.00  0.00     0.129 C 
HETATM   11  N1  UNL     1      22.104   3.895  48.904  1.00  0.00    -0.346 N 
HETATM   12  C3  UNL     1      22.065   3.201  47.666  1.00  0.00     0.239 C 
HETATM   13  C15 UNL     1      22.901   3.290  49.974  1.00  0.00     0.158 C 
HETATM   14  O1  UNL     1      22.630   2.113  47.359  1.00  0.00    -0.269 OA
BRANCH  12  15
HETATM   15  C2  UNL     1      21.304   3.739  46.554  1.00  0.00     0.048 C 
HETATM   16  C1  UNL     1      21.848   3.790  45.353  1.00  0.00     0.037 C 
ENDBRANCH  12  15
ENDBRANCH   7   8
ENDBRANCH   1   7
BRANCH   6  17
HETATM   17  C13 UNL     1      21.712   0.841  52.714  1.00  0.00     0.059 C 
HETATM   18  C14 UNL     1      21.593   0.182  51.363  1.00  0.00     0.011 C 
ENDBRANCH   6  17
BRANCH   3  19
HETATM   19  N3  UNL     1      27.028   2.491  53.853  1.00  0.00    -0.347 N 
HETATM   20  H9  UNL     1      27.288   2.868  54.770  1.00  0.00     0.163 HD
BRANCH  19  21
HETATM   21  C9  UNL     1      28.013   2.331  52.798  1.00  0.00     0.346 C 
HETATM   22  F1  UNL     1      28.849   1.281  53.161  1.00  0.00    -0.234 F 
ENDBRANCH  19  21
ENDBRANCH   3  19
BRANCH   4  23
HETATM   23  C11 UNL     1      26.145  -0.240  54.217  1.00  0.00     0.272 C 
HETATM   24  N4  UNL     1      26.495  -1.418  53.509  1.00  0.00    -0.365 N 
HETATM   25  H12 UNL     1      26.150  -2.397  53.548  1.00  0.00     0.159 HD
HETATM   26  H13 UNL     1      27.264  -1.314  52.783  1.00  0.00     0.159 HD
HETATM   27  O3  UNL     1      26.826  -0.556  55.216  1.00  0.00    -0.266 OA
ENDBRANCH   4  23
TORSDOF 7
ENDMDL
MODEL 9
REMARK VINA RESULT:      -6.6      2.502      2.832
REMARK  7 active torsions:
REMARK  status: ('A' for Active; 'I' for Inactive)
REMARK    1  A    between atoms: C2_2  and  C3_3 
REMARK       I    between atoms: C3_3  and  N1_5 
REMARK    2  A    between atoms: C6_8  and  O2_9 
REMARK    3  A    between atoms: O2_9  and  C7_10 
REMARK    4  A    between atoms: C8_12  and  N3_13 
REMARK    5  A    between atoms: N3_13  and  C9_14 
REMARK    6  A    between atoms: C10_16  and  C11_17 
REMARK       I    between atoms: C11_17  and  N4_18 
REMARK    7  A    between atoms: C12_21  and  C13_22 
ROOT
HETATM    1  C7  UNL     1      24.778   1.334  51.874  1.00  0.00     0.192 A 
HETATM    2  N2  UNL     1      25.068   0.477  52.868  1.00  0.00    -0.203 NA
HETATM    3  C8  UNL     1      26.288   0.417  53.432  1.00  0.00     0.163 A 
HETATM    4  C10 UNL     1      27.214   1.292  52.919  1.00  0.00     0.170 A 
HETATM    5  N5  UNL     1      26.949   2.159  51.927  1.00  0.00    -0.240 NA
HETATM    6  C12 UNL     1      25.727   2.218  51.363  1.00  0.00     0.088 A 
ENDROOT
BRANCH   1   7
HETATM    7  O2  UNL     1      23.525   1.413  51.280  1.00  0.00    -0.326 OA
BRANCH   7   8
HETATM    8  C6  UNL     1      22.355   1.425  52.072  1.00  0.00     0.150 C 
HETATM    9  C5  UNL     1      21.537   0.218  51.749  1.00  0.00     0.054 C 
HETATM   10  C4  UNL     1      20.118   0.683  52.009  1.00  0.00     0.129 C 
HETATM   11  N1  UNL     1      20.107   2.086  51.728  1.00  0.00    -0.346 N 
HETATM   12  C3  UNL     1      19.087   3.025  51.426  1.00  0.00     0.239 C 
HETATM   13  C15 UNL     1      21.478   2.599  51.784  1.00  0.00     0.158 C 
HETATM   14  O1  UNL     1      19.204   4.262  51.191  1.00  0.00    -0.269 OA
BRANCH  12  15
HETATM   15  C2  UNL     1      17.701   2.599  51.359  1.00  0.00     0.048 C 
HETATM   16  C1  UNL     1      16.743   3.430  51.721  1.00  0.00     0.037 C 
ENDBRANCH  12  15
ENDBRANCH   7   8
ENDBRANCH   1   7
BRANCH   6  17
HETATM   17  C13 UNL     1      25.409   3.160  50.272  1.00  0.00     0.059 C 
HETATM   18  C14 UNL     1      26.642   3.620  49.535  1.00  0.00     0.011 C 
ENDBRANCH   6  17
BRANCH   3  19
HETATM   19  N3  UNL     1      26.612  -0.473  54.472  1.00  0.00    -0.347 N 
HETATM   20  H9  UNL     1      27.431  -1.086  54.417  1.00  0.00     0.163 HD
BRANCH  19  21
HETATM   21  C9  UNL     1      25.736  -0.488  55.631  1.00  0.00     0.346 C 
HETATM   22  F1  UNL     1      24.764  -1.456  55.408  1.00  0.00    -0.234 F 
ENDBRANCH  19  21
ENDBRANCH   3  19
BRANCH   4  23
HETATM   23  C11 UNL     1      28.576   1.365  53.407  1.00  0.00     0.272 C 
HETATM   24  N4  UNL     1      29.304   2.555  53.665  1.00  0.00    -0.365 N 
HETATM   25  H12 UNL     1      30.021   3.078  53.126  1.00  0.00     0.159 HD
HETATM   26  H13 UNL     1      29.099   3.034  54.591  1.00  0.00     0.159 HD
HETATM   27  O3  UNL     1      29.527   0.628  53.746  1.00  0.00    -0.266 OA
ENDBRANCH   4  23
TORSDOF 7
ENDMDL
