MODEL 1
REMARK VINA RESULT:      -7.2      0.000      0.000
REMARK  8 active torsions:
REMARK  status: ('A' for Active; 'I' for Inactive)
REMARK    1  A    between atoms: S1_2  and  N1_3 
REMARK    2  A    between atoms: S1_2  and  C9_16 
REMARK    3  A    between atoms: N1_3  and  C1_4 
REMARK    4  A    between atoms: C1_4  and  S2_5 
REMARK    5  A    between atoms: S2_5  and  N2_6 
REMARK    6  A    between atoms: N2_6  and  C2_7 
REMARK    7  A    between atoms: C2_7  and  C3_8 
REMARK    8  A    between atoms: C8_14  and  O2_15 
ROOT
HETATM    1  C1  UNL     1      25.524   4.221  50.340  1.00  0.00     0.321 C 
ENDROOT
BRANCH   1   2
HETATM    2  N1  UNL     1      24.642   4.353  51.454  1.00  0.00    -0.318 N 
HETATM    3  H1  UNL     1      24.943   4.662  52.402  1.00  0.00     0.171 HD
BRANCH   2   4
HETATM    4  S1  UNL     1      22.937   3.960  51.199  1.00  0.00     0.147 S 
HETATM    5  O1  UNL     1      22.549   3.971  49.749  1.00  0.00    -0.230 OA
BRANCH   4   6
HETATM    6  C9  UNL     1      22.461   2.525  52.077  1.00  0.00     0.052 A 
HETATM    7  C10 UNL     1      21.164   2.212  52.428  1.00  0.00     0.024 A 
HETATM    8  C11 UNL     1      20.876   1.054  53.124  1.00  0.00     0.020 A 
HETATM    9  C12 UNL     1      21.883   0.176  53.488  1.00  0.00     0.011 A 
HETATM   10 BR1  UNL     1      21.437  -1.403  54.444  1.00  0.00    -0.051 Br
HETATM   11  C13 UNL     1      23.197   0.464  53.149  1.00  0.00     0.020 A 
HETATM   12  C14 UNL     1      23.459   1.622  52.457  1.00  0.00     0.024 A 
ENDBRANCH   4   6
ENDBRANCH   2   4
ENDBRANCH   1   2
BRANCH   1  13
HETATM   13  S2  UNL     1      26.296   2.729  50.367  1.00  0.00    -0.133 SA
BRANCH  13  14
HETATM   14  N2  UNL     1      27.398   2.712  51.588  1.00  0.00    -0.192 NA
BRANCH  14  15
HETATM   15  C2  UNL     1      26.906   2.081  52.819  1.00  0.00     0.162 C 
BRANCH  15  16
HETATM   16  C3  UNL     1      27.491   0.728  52.958  1.00  0.00    -0.010 A 
HETATM   17  C4  UNL     1      26.879  -0.455  52.631  1.00  0.00     0.014 A 
HETATM   18  C5  UNL     1      27.556  -1.644  52.816  1.00  0.00     0.043 A 
HETATM   19  C6  UNL     1      28.849  -1.631  53.333  1.00  0.00     0.119 A 
HETATM   20  F1  UNL     1      29.484  -2.837  53.500  1.00  0.00    -0.206 F 
HETATM   21  C7  UNL     1      29.456  -0.441  53.658  1.00  0.00     0.079 A 
HETATM   22  C8  UNL     1      28.769   0.755  53.469  1.00  0.00     0.076 A 
BRANCH  22  23
HETATM   23  O2  UNL     1      29.483   1.908  53.835  1.00  0.00    -0.360 OA
HETATM   24  H8  UNL     1      30.399   2.102  53.444  1.00  0.00     0.217 HD
ENDBRANCH  22  23
ENDBRANCH  15  16
ENDBRANCH  14  15
ENDBRANCH  13  14
ENDBRANCH   1  13
TORSDOF 8
ENDMDL
MODEL 2
REMARK VINA RESULT:      -7.1      3.715      5.481
REMARK  8 active torsions:
REMARK  status: ('A' for Active; 'I' for Inactive)
REMARK    1  A    between atoms: S1_2  and  N1_3 
REMARK    2  A    between atoms: S1_2  and  C9_16 
REMARK    3  A    between atoms: N1_3  and  C1_4 
REMARK    4  A    between atoms: C1_4  and  S2_5 
REMARK    5  A    between atoms: S2_5  and  N2_6 
REMARK    6  A    between atoms: N2_6  and  C2_7 
REMARK    7  A    between atoms: C2_7  and  C3_8 
REMARK    8  A    between atoms: C8_14  and  O2_15 
ROOT
HETATM    1  C1  UNL     1      23.631   3.578  52.128  1.00  0.00     0.321 C 
ENDROOT
BRANCH   1   2
HETATM    2  N1  UNL     1      24.962   3.668  51.621  1.00  0.00    -0.318 N 
HETATM    3  H1  UNL     1      25.801   3.844  52.213  1.00  0.00     0.171 HD
BRANCH   2   4
HETATM    4  S1  UNL     1      25.191   3.470  49.879  1.00  0.00     0.147 S 
HETATM    5  O1  UNL     1      23.912   3.153  49.158  1.00  0.00    -0.230 OA
BRANCH   4   6
HETATM    6  C9  UNL     1      26.116   4.784  49.190  1.00  0.00     0.052 A 
HETATM    7  C10 UNL     1      25.622   6.046  48.938  1.00  0.00     0.024 A 
HETATM    8  C11 UNL     1      26.425   7.028  48.391  1.00  0.00     0.020 A 
HETATM    9  C12 UNL     1      27.749   6.769  48.080  1.00  0.00     0.011 A 
HETATM   10 BR1  UNL     1      28.814   8.150  47.329  1.00  0.00    -0.051 Br
HETATM   11  C13 UNL     1      28.275   5.508  48.322  1.00  0.00     0.020 A 
HETATM   12  C14 UNL     1      27.457   4.548  48.867  1.00  0.00     0.024 A 
ENDBRANCH   4   6
ENDBRANCH   2   4
ENDBRANCH   1   2
BRANCH   1  13
HETATM   13  S2  UNL     1      23.316   2.029  52.696  1.00  0.00    -0.133 SA
BRANCH  13  14
HETATM   14  N2  UNL     1      24.623   1.072  52.411  1.00  0.00    -0.192 NA
BRANCH  14  15
HETATM   15  C2  UNL     1      25.081   0.331  53.592  1.00  0.00     0.162 C 
BRANCH  15  16
HETATM   16  C3  UNL     1      26.550   0.152  53.535  1.00  0.00    -0.010 A 
HETATM   17  C4  UNL     1      27.212  -1.026  53.302  1.00  0.00     0.014 A 
HETATM   18  C5  UNL     1      28.592  -1.036  53.277  1.00  0.00     0.043 A 
HETATM   19  C6  UNL     1      29.297   0.147  53.488  1.00  0.00     0.119 A 
HETATM   20  F1  UNL     1      30.668   0.089  53.454  1.00  0.00    -0.206 F 
HETATM   21  C7  UNL     1      28.626   1.324  53.720  1.00  0.00     0.079 A 
HETATM   22  C8  UNL     1      27.233   1.328  53.745  1.00  0.00     0.076 A 
BRANCH  22  23
HETATM   23  O2  UNL     1      26.653   2.582  53.991  1.00  0.00    -0.360 OA
HETATM   24  H8  UNL     1      26.405   3.202  53.227  1.00  0.00     0.217 HD
ENDBRANCH  22  23
ENDBRANCH  15  16
ENDBRANCH  14  15
ENDBRANCH  13  14
ENDBRANCH   1  13
TORSDOF 8
ENDMDL
MODEL 3
REMARK VINA RESULT:      -7.0      3.212      5.794
REMARK  8 active torsions:
REMARK  status: ('A' for Active; 'I' for Inactive)
REMARK    1  A    between atoms: S1_2  and  N1_3 
REMARK    2  A    between atoms: S1_2  and  C9_16 
REMARK    3  A    between atoms: N1_3  and  C1_4 
REMARK    4  A    between atoms: C1_4  and  S2_5 
REMARK    5  A    between atoms: S2_5  and  N2_6 
REMARK    6  A    between atoms: N2_6  and  C2_7 
REMARK    7  A    between atoms: C2_7  and  C3_8 
REMARK    8  A    between atoms: C8_14  and  O2_15 
ROOT
HETATM    1  C1  UNL     1      26.380   3.482  49.590  1.00  0.00     0.321 C 
ENDROOT
BRANCH   1   2
HETATM    2  N1  UNL     1      26.378   3.485  51.017  1.00  0.00    -0.318 N 
HETATM    3  H1  UNL     1      26.053   4.286  51.598  1.00  0.00     0.171 HD
BRANCH   2   4
HETATM    4  S1  UNL     1      26.971   2.035  51.839  1.00  0.00     0.147 S 
HETATM    5  O1  UNL     1      28.138   2.316  52.741  1.00  0.00    -0.230 OA
BRANCH   4   6
HETATM    6  C9  UNL     1      25.672   1.129  52.579  1.00  0.00     0.052 A 
HETATM    7  C10 UNL     1      25.843   0.131  53.514  1.00  0.00     0.024 A 
HETATM    8  C11 UNL     1      24.757  -0.536  54.050  1.00  0.00     0.020 A 
HETATM    9  C12 UNL     1      23.468  -0.218  53.660  1.00  0.00     0.011 A 
HETATM   10 BR1  UNL     1      22.007  -1.163  54.423  1.00  0.00    -0.051 Br
HETATM   11  C13 UNL     1      23.264   0.783  52.721  1.00  0.00     0.020 A 
HETATM   12  C14 UNL     1      24.358   1.431  52.203  1.00  0.00     0.024 A 
ENDBRANCH   4   6
ENDBRANCH   2   4
ENDBRANCH   1   2
BRANCH   1  13
HETATM   13  S2  UNL     1      26.549   5.044  48.994  1.00  0.00    -0.133 SA
BRANCH  13  14
HETATM   14  N2  UNL     1      25.776   6.092  49.999  1.00  0.00    -0.192 NA
BRANCH  14  15
HETATM   15  C2  UNL     1      24.406   6.411  49.579  1.00  0.00     0.162 C 
BRANCH  15  16
HETATM   16  C3  UNL     1      23.447   5.530  50.283  1.00  0.00    -0.010 A 
HETATM   17  C4  UNL     1      22.594   4.631  49.695  1.00  0.00     0.014 A 
HETATM   18  C5  UNL     1      21.754   3.874  50.488  1.00  0.00     0.043 A 
HETATM   19  C6  UNL     1      21.781   4.030  51.871  1.00  0.00     0.119 A 
HETATM   20  F1  UNL     1      20.928   3.256  52.619  1.00  0.00    -0.206 F 
HETATM   21  C7  UNL     1      22.639   4.934  52.453  1.00  0.00     0.079 A 
HETATM   22  C8  UNL     1      23.483   5.695  51.649  1.00  0.00     0.076 A 
BRANCH  22  23
HETATM   23  O2  UNL     1      24.316   6.584  52.347  1.00  0.00    -0.360 OA
HETATM   24  H8  UNL     1      23.927   7.295  52.958  1.00  0.00     0.217 HD
ENDBRANCH  22  23
ENDBRANCH  15  16
ENDBRANCH  14  15
ENDBRANCH  13  14
ENDBRANCH   1  13
TORSDOF 8
ENDMDL
MODEL 4
REMARK VINA RESULT:      -6.8      4.124      6.041
REMARK  8 active torsions:
REMARK  status: ('A' for Active; 'I' for Inactive)
REMARK    1  A    between atoms: S1_2  and  N1_3 
REMARK    2  A    between atoms: S1_2  and  C9_16 
REMARK    3  A    between atoms: N1_3  and  C1_4 
REMARK    4  A    between atoms: C1_4  and  S2_5 
REMARK    5  A    between atoms: S2_5  and  N2_6 
REMARK    6  A    between atoms: N2_6  and  C2_7 
REMARK    7  A    between atoms: C2_7  and  C3_8 
REMARK    8  A    between atoms: C8_14  and  O2_15 
ROOT
HETATM    1  C1  UNL     1      24.147   4.295  51.492  1.00  0.00     0.321 C 
ENDROOT
BRANCH   1   2
HETATM    2  N1  UNL     1      25.359   4.552  50.782  1.00  0.00    -0.318 N 
HETATM    3  H1  UNL     1      26.308   4.319  51.144  1.00  0.00     0.171 HD
BRANCH   2   4
HETATM    4  S1  UNL     1      25.231   5.318  49.193  1.00  0.00     0.147 S 
HETATM    5  O1  UNL     1      24.170   6.379  49.144  1.00  0.00    -0.230 OA
BRANCH   4   6
HETATM    6  C9  UNL     1      26.792   5.810  48.580  1.00  0.00     0.052 A 
HETATM    7  C10 UNL     1      27.935   5.041  48.632  1.00  0.00     0.024 A 
HETATM    8  C11 UNL     1      29.131   5.509  48.122  1.00  0.00     0.020 A 
HETATM    9  C12 UNL     1      29.212   6.764  47.543  1.00  0.00     0.011 A 
HETATM   10 BR1  UNL     1      30.878   7.364  46.855  1.00  0.00    -0.051 Br
HETATM   11  C13 UNL     1      28.078   7.561  47.476  1.00  0.00     0.020 A 
HETATM   12  C14 UNL     1      26.901   7.074  47.990  1.00  0.00     0.024 A 
ENDBRANCH   4   6
ENDBRANCH   2   4
ENDBRANCH   1   2
BRANCH   1  13
HETATM   13  S2  UNL     1      23.930   2.644  51.716  1.00  0.00    -0.133 SA
BRANCH  13  14
HETATM   14  N2  UNL     1      25.394   1.934  51.955  1.00  0.00    -0.192 NA
BRANCH  14  15
HETATM   15  C2  UNL     1      25.528   1.283  53.264  1.00  0.00     0.162 C 
BRANCH  15  16
HETATM   16  C3  UNL     1      26.841   0.604  53.356  1.00  0.00    -0.010 A 
HETATM   17  C4  UNL     1      27.092  -0.711  53.061  1.00  0.00     0.014 A 
HETATM   18  C5  UNL     1      28.375  -1.204  53.194  1.00  0.00     0.043 A 
HETATM   19  C6  UNL     1      29.398  -0.363  53.626  1.00  0.00     0.119 A 
HETATM   20  F1  UNL     1      30.658  -0.896  53.744  1.00  0.00    -0.206 F 
HETATM   21  C7  UNL     1      29.138   0.955  53.920  1.00  0.00     0.079 A 
HETATM   22  C8  UNL     1      27.842   1.447  53.784  1.00  0.00     0.076 A 
BRANCH  22  23
HETATM   23  O2  UNL     1      27.691   2.803  54.110  1.00  0.00    -0.360 OA
HETATM   24  H8  UNL     1      27.369   3.088  55.029  1.00  0.00     0.217 HD
ENDBRANCH  22  23
ENDBRANCH  15  16
ENDBRANCH  14  15
ENDBRANCH  13  14
ENDBRANCH   1  13
TORSDOF 8
ENDMDL
MODEL 5
REMARK VINA RESULT:      -6.7      3.219      5.812
REMARK  8 active torsions:
REMARK  status: ('A' for Active; 'I' for Inactive)
REMARK    1  A    between atoms: S1_2  and  N1_3 
REMARK    2  A    between atoms: S1_2  and  C9_16 
REMARK    3  A    between atoms: N1_3  and  C1_4 
REMARK    4  A    between atoms: C1_4  and  S2_5 
REMARK    5  A    between atoms: S2_5  and  N2_6 
REMARK    6  A    between atoms: N2_6  and  C2_7 
REMARK    7  A    between atoms: C2_7  and  C3_8 
REMARK    8  A    between atoms: C8_14  and  O2_15 
ROOT
HETATM    1  C1  UNL     1      21.476   3.081  50.742  1.00  0.00     0.321 C 
ENDROOT
BRANCH   1   2
HETATM    2  N1  UNL     1      22.660   3.731  51.205  1.00  0.00    -0.318 N 
HETATM    3  H1  UNL     1      22.667   4.490  51.918  1.00  0.00     0.171 HD
BRANCH   2   4
HETATM    4  S1  UNL     1      24.203   3.211  50.516  1.00  0.00     0.147 S 
HETATM    5  O1  UNL     1      24.871   4.287  49.709  1.00  0.00    -0.230 OA
BRANCH   4   6
HETATM    6  C9  UNL     1      25.225   2.447  51.711  1.00  0.00     0.052 A 
HETATM    7  C10 UNL     1      25.181   2.707  53.065  1.00  0.00     0.024 A 
HETATM    8  C11 UNL     1      26.028   2.055  53.942  1.00  0.00     0.020 A 
HETATM    9  C12 UNL     1      26.943   1.124  53.483  1.00  0.00     0.011 A 
HETATM   10 BR1  UNL     1      28.086   0.255  54.726  1.00  0.00    -0.051 Br
HETATM   11  C13 UNL     1      27.011   0.842  52.126  1.00  0.00     0.020 A 
HETATM   12  C14 UNL     1      26.160   1.501  51.274  1.00  0.00     0.024 A 
ENDBRANCH   4   6
ENDBRANCH   2   4
ENDBRANCH   1   2
BRANCH   1  13
HETATM   13  S2  UNL     1      20.232   3.248  51.858  1.00  0.00    -0.133 SA
BRANCH  13  14
HETATM   14  N2  UNL     1      19.636   1.761  52.231  1.00  0.00    -0.192 NA
BRANCH  14  15
HETATM   15  C2  UNL     1      20.407   0.654  51.654  1.00  0.00     0.162 C 
BRANCH  15  16
HETATM   16  C3  UNL     1      21.275   0.051  52.691  1.00  0.00    -0.010 A 
HETATM   17  C4  UNL     1      22.644   0.121  52.739  1.00  0.00     0.014 A 
HETATM   18  C5  UNL     1      23.319  -0.494  53.775  1.00  0.00     0.043 A 
HETATM   19  C6  UNL     1      22.605  -1.176  54.758  1.00  0.00     0.119 A 
HETATM   20  F1  UNL     1      23.318  -1.772  55.769  1.00  0.00    -0.206 F 
HETATM   21  C7  UNL     1      21.233  -1.242  54.702  1.00  0.00     0.079 A 
HETATM   22  C8  UNL     1      20.557  -0.620  53.655  1.00  0.00     0.076 A 
BRANCH  22  23
HETATM   23  O2  UNL     1      19.160  -0.750  53.697  1.00  0.00    -0.360 OA
HETATM   24  H8  UNL     1      18.718  -1.663  53.663  1.00  0.00     0.217 HD
ENDBRANCH  22  23
ENDBRANCH  15  16
ENDBRANCH  14  15
ENDBRANCH  13  14
ENDBRANCH   1  13
TORSDOF 8
ENDMDL
MODEL 6
REMARK VINA RESULT:      -6.7      3.300      5.435
REMARK  8 active torsions:
REMARK  status: ('A' for Active; 'I' for Inactive)
REMARK    1  A    between atoms: S1_2  and  N1_3 
REMARK    2  A    between atoms: S1_2  and  C9_16 
REMARK    3  A    between atoms: N1_3  and  C1_4 
REMARK    4  A    between atoms: C1_4  and  S2_5 
REMARK    5  A    between atoms: S2_5  and  N2_6 
REMARK    6  A    between atoms: N2_6  and  C2_7 
REMARK    7  A    between atoms: C2_7  and  C3_8 
REMARK    8  A    between atoms: C8_14  and  O2_15 
ROOT
HETATM    1  C1  UNL     1      21.551   4.645  51.116  1.00  0.00     0.321 C 
ENDROOT
BRANCH   1   2
HETATM    2  N1  UNL     1      22.427   3.853  50.314  1.00  0.00    -0.318 N 
HETATM    3  H1  UNL     1      22.108   3.088  49.683  1.00  0.00     0.171 HD
BRANCH   2   4
HETATM    4  S1  UNL     1      24.159   4.198  50.406  1.00  0.00     0.147 S 
HETATM    5  O1  UNL     1      24.451   5.663  50.564  1.00  0.00    -0.230 OA
BRANCH   4   6
HETATM    6  C9  UNL     1      24.970   3.159  51.554  1.00  0.00     0.052 A 
HETATM    7  C10 UNL     1      24.702   3.120  52.905  1.00  0.00     0.024 A 
HETATM    8  C11 UNL     1      25.392   2.265  53.743  1.00  0.00     0.020 A 
HETATM    9  C12 UNL     1      26.373   1.424  53.246  1.00  0.00     0.011 A 
HETATM   10 BR1  UNL     1      27.295   0.266  54.437  1.00  0.00    -0.051 Br
HETATM   11  C13 UNL     1      26.665   1.440  51.889  1.00  0.00     0.020 A 
HETATM   12  C14 UNL     1      25.965   2.298  51.077  1.00  0.00     0.024 A 
ENDBRANCH   4   6
ENDBRANCH   2   4
ENDBRANCH   1   2
BRANCH   1  13
HETATM   13  S2  UNL     1      20.058   3.893  51.283  1.00  0.00    -0.133 SA
BRANCH  13  14
HETATM   14  N2  UNL     1      20.069   2.965  52.641  1.00  0.00    -0.192 NA
BRANCH  14  15
HETATM   15  C2  UNL     1      19.857   1.537  52.382  1.00  0.00     0.162 C 
BRANCH  15  16
HETATM   16  C3  UNL     1      20.855   0.737  53.129  1.00  0.00    -0.010 A 
HETATM   17  C4  UNL     1      20.702   0.231  54.394  1.00  0.00     0.014 A 
HETATM   18  C5  UNL     1      21.727  -0.500  54.961  1.00  0.00     0.043 A 
HETATM   19  C6  UNL     1      22.902  -0.716  54.246  1.00  0.00     0.119 A 
HETATM   20  F1  UNL     1      23.894  -1.449  54.849  1.00  0.00    -0.206 F 
HETATM   21  C7  UNL     1      23.048  -0.205  52.977  1.00  0.00     0.079 A 
HETATM   22  C8  UNL     1      22.011   0.533  52.410  1.00  0.00     0.076 A 
BRANCH  22  23
HETATM   23  O2  UNL     1      22.267   1.006  51.114  1.00  0.00    -0.360 OA
HETATM   24  H8  UNL     1      21.866   0.549  50.301  1.00  0.00     0.217 HD
ENDBRANCH  22  23
ENDBRANCH  15  16
ENDBRANCH  14  15
ENDBRANCH  13  14
ENDBRANCH   1  13
TORSDOF 8
ENDMDL
MODEL 7
REMARK VINA RESULT:      -6.6      1.899      2.306
REMARK  8 active torsions:
REMARK  status: ('A' for Active; 'I' for Inactive)
REMARK    1  A    between atoms: S1_2  and  N1_3 
REMARK    2  A    between atoms: S1_2  and  C9_16 
REMARK    3  A    between atoms: N1_3  and  C1_4 
REMARK    4  A    between atoms: C1_4  and  S2_5 
REMARK    5  A    between atoms: S2_5  and  N2_6 
REMARK    6  A    between atoms: N2_6  and  C2_7 
REMARK    7  A    between atoms: C2_7  and  C3_8 
REMARK    8  A    between atoms: C8_14  and  O2_15 
ROOT
HETATM    1  C1  UNL     1      23.570   2.765  51.937  1.00  0.00     0.321 C 
ENDROOT
BRANCH   1   2
HETATM    2  N1  UNL     1      22.406   2.706  51.113  1.00  0.00    -0.318 N 
HETATM    3  H1  UNL     1      22.423   2.488  50.094  1.00  0.00     0.171 HD
BRANCH   2   4
HETATM    4  S1  UNL     1      20.844   3.027  51.877  1.00  0.00     0.147 S 
HETATM    5  O1  UNL     1      20.021   4.026  51.117  1.00  0.00    -0.230 OA
BRANCH   4   6
HETATM    6  C9  UNL     1      20.007   1.549  52.294  1.00  0.00     0.052 A 
HETATM    7  C10 UNL     1      18.874   1.083  51.663  1.00  0.00     0.024 A 
HETATM    8  C11 UNL     1      18.275  -0.098  52.057  1.00  0.00     0.020 A 
HETATM    9  C12 UNL     1      18.799  -0.845  53.099  1.00  0.00     0.011 A 
HETATM   10 BR1  UNL     1      17.940  -2.462  53.605  1.00  0.00    -0.051 Br
HETATM   11  C13 UNL     1      19.939  -0.401  53.753  1.00  0.00     0.020 A 
HETATM   12  C14 UNL     1      20.516   0.776  53.343  1.00  0.00     0.024 A 
ENDBRANCH   4   6
ENDBRANCH   2   4
ENDBRANCH   1   2
BRANCH   1  13
HETATM   13  S2  UNL     1      24.911   3.228  51.036  1.00  0.00    -0.133 SA
BRANCH  13  14
HETATM   14  N2  UNL     1      26.250   2.488  51.641  1.00  0.00    -0.192 NA
BRANCH  14  15
HETATM   15  C2  UNL     1      25.988   1.680  52.838  1.00  0.00     0.162 C 
BRANCH  15  16
HETATM   16  C3  UNL     1      27.146   0.798  53.111  1.00  0.00    -0.010 A 
HETATM   17  C4  UNL     1      27.218  -0.546  52.845  1.00  0.00     0.014 A 
HETATM   18  C5  UNL     1      28.371  -1.238  53.157  1.00  0.00     0.043 A 
HETATM   19  C6  UNL     1      29.445  -0.569  53.737  1.00  0.00     0.119 A 
HETATM   20  F1  UNL     1      30.572  -1.298  54.030  1.00  0.00    -0.206 F 
HETATM   21  C7  UNL     1      29.365   0.778  54.001  1.00  0.00     0.079 A 
HETATM   22  C8  UNL     1      28.200   1.472  53.685  1.00  0.00     0.076 A 
BRANCH  22  23
HETATM   23  O2  UNL     1      28.227   2.840  53.997  1.00  0.00    -0.360 OA
HETATM   24  H8  UNL     1      27.389   3.409  53.931  1.00  0.00     0.217 HD
ENDBRANCH  22  23
ENDBRANCH  15  16
ENDBRANCH  14  15
ENDBRANCH  13  14
ENDBRANCH   1  13
TORSDOF 8
ENDMDL
MODEL 8
REMARK VINA RESULT:      -6.6      3.176      4.003
REMARK  8 active torsions:
REMARK  status: ('A' for Active; 'I' for Inactive)
REMARK    1  A    between atoms: S1_2  and  N1_3 
REMARK    2  A    between atoms: S1_2  and  C9_16 
REMARK    3  A    between atoms: N1_3  and  C1_4 
REMARK    4  A    between atoms: C1_4  and  S2_5 
REMARK    5  A    between atoms: S2_5  and  N2_6 
REMARK    6  A    between atoms: N2_6  and  C2_7 
REMARK    7  A    between atoms: C2_7  and  C3_8 
REMARK    8  A    between atoms: C8_14  and  O2_15 
ROOT
HETATM    1  C1  UNL     1      21.875   0.766  53.612  1.00  0.00     0.321 C 
ENDROOT
BRANCH   1   2
HETATM    2  N1  UNL     1      20.851   0.965  52.638  1.00  0.00    -0.318 N 
HETATM    3  H1  UNL     1      20.148   0.242  52.375  1.00  0.00     0.171 HD
BRANCH   2   4
HETATM    4  S1  UNL     1      20.780   2.537  51.832  1.00  0.00     0.147 S 
HETATM    5  O1  UNL     1      20.053   3.572  52.641  1.00  0.00    -0.230 OA
BRANCH   4   6
HETATM    6  C9  UNL     1      22.347   3.036  51.238  1.00  0.00     0.052 A 
HETATM    7  C10 UNL     1      23.268   3.761  51.963  1.00  0.00     0.024 A 
HETATM    8  C11 UNL     1      24.486   4.114  51.415  1.00  0.00     0.020 A 
HETATM    9  C12 UNL     1      24.814   3.747  50.121  1.00  0.00     0.011 A 
HETATM   10 BR1  UNL     1      26.501   4.255  49.410  1.00  0.00    -0.051 Br
HETATM   11  C13 UNL     1      23.907   3.016  49.366  1.00  0.00     0.020 A 
HETATM   12  C14 UNL     1      22.703   2.677  49.933  1.00  0.00     0.024 A 
ENDBRANCH   4   6
ENDBRANCH   2   4
ENDBRANCH   1   2
BRANCH   1  13
HETATM   13  S2  UNL     1      22.783  -0.600  53.247  1.00  0.00    -0.133 SA
BRANCH  13  14
HETATM   14  N2  UNL     1      24.294  -0.429  53.875  1.00  0.00    -0.192 NA
BRANCH  14  15
HETATM   15  C2  UNL     1      25.088   0.621  53.227  1.00  0.00     0.162 C 
BRANCH  15  16
HETATM   16  C3  UNL     1      26.527   0.281  53.303  1.00  0.00    -0.010 A 
HETATM   17  C4  UNL     1      27.083  -0.944  53.038  1.00  0.00     0.014 A 
HETATM   18  C5  UNL     1      28.449  -1.108  53.153  1.00  0.00     0.043 A 
HETATM   19  C6  UNL     1      29.247  -0.032  53.535  1.00  0.00     0.119 A 
HETATM   20  F1  UNL     1      30.600  -0.242  53.635  1.00  0.00    -0.206 F 
HETATM   21  C7  UNL     1      28.682   1.193  53.799  1.00  0.00     0.079 A 
HETATM   22  C8  UNL     1      27.303   1.353  53.683  1.00  0.00     0.076 A 
BRANCH  22  23
HETATM   23  O2  UNL     1      26.834   2.644  53.975  1.00  0.00    -0.360 OA
HETATM   24  H8  UNL     1      25.855   2.810  54.181  1.00  0.00     0.217 HD
ENDBRANCH  22  23
ENDBRANCH  15  16
ENDBRANCH  14  15
ENDBRANCH  13  14
ENDBRANCH   1  13
TORSDOF 8
ENDMDL
MODEL 9
REMARK VINA RESULT:      -6.5      4.049      6.347
REMARK  8 active torsions:
REMARK  status: ('A' for Active; 'I' for Inactive)
REMARK    1  A    between atoms: S1_2  and  N1_3 
REMARK    2  A    between atoms: S1_2  and  C9_16 
REMARK    3  A    between atoms: N1_3  and  C1_4 
REMARK    4  A    between atoms: C1_4  and  S2_5 
REMARK    5  A    between atoms: S2_5  and  N2_6 
REMARK    6  A    between atoms: N2_6  and  C2_7 
REMARK    7  A    between atoms: C2_7  and  C3_8 
REMARK    8  A    between atoms: C8_14  and  O2_15 
ROOT
HETATM    1  C1  UNL     1      23.637   3.259  49.921  1.00  0.00     0.321 C 
ENDROOT
BRANCH   1   2
HETATM    2  N1  UNL     1      23.372   2.009  50.557  1.00  0.00    -0.318 N 
HETATM    3  H1  UNL     1      23.014   1.167  50.060  1.00  0.00     0.171 HD
BRANCH   2   4
HETATM    4  S1  UNL     1      23.668   1.895  52.297  1.00  0.00     0.147 S 
HETATM    5  O1  UNL     1      22.480   1.378  53.055  1.00  0.00    -0.230 OA
BRANCH   4   6
HETATM    6  C9  UNL     1      25.176   1.082  52.649  1.00  0.00     0.052 A 
HETATM    7  C10 UNL     1      25.285  -0.232  53.050  1.00  0.00     0.024 A 
HETATM    8  C11 UNL     1      26.520  -0.797  53.307  1.00  0.00     0.020 A 
HETATM    9  C12 UNL     1      27.681  -0.055  53.169  1.00  0.00     0.011 A 
HETATM   10 BR1  UNL     1      29.355  -0.875  53.535  1.00  0.00    -0.051 Br
HETATM   11  C13 UNL     1      27.602   1.270  52.767  1.00  0.00     0.020 A 
HETATM   12  C14 UNL     1      26.364   1.809  52.516  1.00  0.00     0.024 A 
ENDBRANCH   4   6
ENDBRANCH   2   4
ENDBRANCH   1   2
BRANCH   1  13
HETATM   13  S2  UNL     1      23.936   4.454  51.065  1.00  0.00    -0.133 SA
BRANCH  13  14
HETATM   14  N2  UNL     1      25.039   5.515  50.462  1.00  0.00    -0.192 NA
BRANCH  14  15
HETATM   15  C2  UNL     1      25.051   5.586  48.997  1.00  0.00     0.162 C 
BRANCH  15  16
HETATM   16  C3  UNL     1      26.392   6.002  48.525  1.00  0.00    -0.010 A 
HETATM   17  C4  UNL     1      26.706   7.204  47.943  1.00  0.00     0.014 A 
HETATM   18  C5  UNL     1      28.008   7.449  47.554  1.00  0.00     0.043 A 
HETATM   19  C6  UNL     1      28.986   6.478  47.755  1.00  0.00     0.119 A 
HETATM   20  F1  UNL     1      30.267   6.766  47.353  1.00  0.00    -0.206 F 
HETATM   21  C7  UNL     1      28.662   5.276  48.339  1.00  0.00     0.079 A 
HETATM   22  C8  UNL     1      27.348   5.033  48.729  1.00  0.00     0.076 A 
BRANCH  22  23
HETATM   23  O2  UNL     1      27.131   3.776  49.314  1.00  0.00    -0.360 OA
HETATM   24  H8  UNL     1      26.858   3.692  50.288  1.00  0.00     0.217 HD
ENDBRANCH  22  23
ENDBRANCH  15  16
ENDBRANCH  14  15
ENDBRANCH  13  14
ENDBRANCH   1  13
TORSDOF 8
ENDMDL
