MODEL 1
REMARK VINA RESULT:      -9.1      0.000      0.000
REMARK  6 active torsions:
REMARK  status: ('A' for Active; 'I' for Inactive)
REMARK    1  A    between atoms: C5_5  and  C6_6 
REMARK    2  A    between atoms: C6_6  and  C7_7 
REMARK    3  A    between atoms: C7_7  and  N1_8 
REMARK    4  A    between atoms: C11_14  and  N4_15 
REMARK    5  A    between atoms: N5_16  and  C12_17 
REMARK    6  A    between atoms: C15_20  and  C16_21 
ROOT
HETATM    1  C7  UNL     1      23.749   2.770  51.498  1.00  0.00     0.310 C 
HETATM    2  N2  UNL     1      22.265   2.912  51.545  1.00  0.00    -0.353 N 
HETATM    3  C8  UNL     1      21.786   2.929  50.199  1.00  0.00     0.182 A 
HETATM    4  C9  UNL     1      21.881   1.879  49.198  1.00  0.00     0.328 A 
HETATM    5  C10 UNL     1      23.036   2.604  49.659  1.00  0.00     0.306 A 
HETATM    6  N3  UNL     1      22.445   3.062  48.323  1.00  0.00     0.171 N 
HETATM    7  C11 UNL     1      21.171   3.681  48.992  1.00  0.00     0.489 C 
HETATM    8  N5  UNL     1      24.129   3.357  50.159  1.00  0.00    -0.289 N 
HETATM    9  H10 UNL     1      21.334   3.019  52.041  1.00  0.00     0.158 HD
ENDROOT
BRANCH   1  10
HETATM   10  C6  UNL     1      24.210   1.367  51.567  1.00  0.00     0.128 C 
BRANCH  10  11
HETATM   11  C5  UNL     1      25.454   1.141  52.300  1.00  0.00    -0.030 A 
HETATM   12  C4  UNL     1      26.744   1.581  52.095  1.00  0.00     0.009 A 
HETATM   13  C3  UNL     1      27.779   1.231  52.933  1.00  0.00     0.007 A 
HETATM   14  C2  UNL     1      27.513   0.415  54.011  1.00  0.00    -0.060 A 
HETATM   15  C1  UNL     1      28.685   0.084  54.863  1.00  0.00     0.048 C 
HETATM   16  C22 UNL     1      26.254  -0.057  54.273  1.00  0.00     0.031 A 
HETATM   17  C21 UNL     1      25.221   0.313  53.405  1.00  0.00     0.041 A 
HETATM   18 CL1  UNL     1      23.654  -0.375  53.873  1.00  0.00    -0.084 Cl
ENDBRANCH  10  11
ENDBRANCH   1  10
BRANCH   1  19
HETATM   19  N1  UNL     1      24.282   3.610  52.538  1.00  0.00     0.128 N 
HETATM   20  H8  UNL     1      23.920   4.560  52.421  1.00  0.00     0.318 HD
HETATM   21  H9  UNL     1      25.319   3.654  52.574  1.00  0.00     0.318 HD
ENDBRANCH   1  19
BRANCH   8  22
HETATM   22  C12 UNL     1      25.114   4.222  49.607  1.00  0.00     0.036 A 
HETATM   23  C13 UNL     1      26.369   3.645  49.431  1.00  0.00     0.030 A 
HETATM   24  C14 UNL     1      27.401   4.393  48.904  1.00  0.00     0.010 A 
HETATM   25  C15 UNL     1      27.110   5.702  48.578  1.00  0.00    -0.055 A 
HETATM   26  C19 UNL     1      25.873   6.287  48.746  1.00  0.00     0.010 A 
HETATM   27  C20 UNL     1      24.838   5.529  49.277  1.00  0.00     0.030 A 
BRANCH  25  28
HETATM   28  C16 UNL     1      28.209   6.550  48.000  1.00  0.00     0.010 C 
HETATM   29  C17 UNL     1      28.221   7.920  48.660  1.00  0.00     0.015 C 
HETATM   30  C18 UNL     1      29.538   5.874  48.135  1.00  0.00     0.015 C 
ENDBRANCH  25  28
ENDBRANCH   8  22
BRANCH   7  31
HETATM   31  N4  UNL     1      21.283   5.078  49.043  1.00  0.00     0.115 N 
HETATM   32  H13 UNL     1      20.944   5.480  48.166  1.00  0.00     0.315 HD
HETATM   33  H14 UNL     1      20.905   5.499  49.904  1.00  0.00     0.315 HD
ENDBRANCH   7  31
TORSDOF 6
ENDMDL
MODEL 2
REMARK VINA RESULT:      -8.9      2.002      2.739
REMARK  6 active torsions:
REMARK  status: ('A' for Active; 'I' for Inactive)
REMARK    1  A    between atoms: C5_5  and  C6_6 
REMARK    2  A    between atoms: C6_6  and  C7_7 
REMARK    3  A    between atoms: C7_7  and  N1_8 
REMARK    4  A    between atoms: C11_14  and  N4_15 
REMARK    5  A    between atoms: N5_16  and  C12_17 
REMARK    6  A    between atoms: C15_20  and  C16_21 
ROOT
HETATM    1  C7  UNL     1      23.829   3.454  51.735  1.00  0.00     0.310 C 
HETATM    2  N2  UNL     1      22.650   4.086  52.395  1.00  0.00    -0.353 N 
HETATM    3  C8  UNL     1      21.929   4.811  51.398  1.00  0.00     0.182 A 
HETATM    4  C9  UNL     1      21.272   4.293  50.209  1.00  0.00     0.328 A 
HETATM    5  C10 UNL     1      22.705   4.307  50.347  1.00  0.00     0.306 A 
HETATM    6  N3  UNL     1      22.101   5.440  49.514  1.00  0.00     0.171 N 
HETATM    7  C11 UNL     1      21.474   6.150  50.763  1.00  0.00     0.489 C 
HETATM    8  N5  UNL     1      24.107   4.351  50.552  1.00  0.00    -0.289 N 
HETATM    9  H10 UNL     1      22.030   4.309  53.226  1.00  0.00     0.158 HD
ENDROOT
BRANCH   1  10
HETATM   10  C6  UNL     1      23.572   2.078  51.259  1.00  0.00     0.128 C 
BRANCH  10  11
HETATM   11  C5  UNL     1      23.065   1.141  52.259  1.00  0.00    -0.030 A 
HETATM   12  C4  UNL     1      21.812   0.954  52.802  1.00  0.00     0.009 A 
HETATM   13  C3  UNL     1      21.563  -0.011  53.752  1.00  0.00     0.007 A 
HETATM   14  C2  UNL     1      22.601  -0.814  54.170  1.00  0.00    -0.060 A 
HETATM   15  C1  UNL     1      22.248  -1.828  55.198  1.00  0.00     0.048 C 
HETATM   16  C22 UNL     1      23.870  -0.681  53.671  1.00  0.00     0.031 A 
HETATM   17  C21 UNL     1      24.096   0.308  52.707  1.00  0.00     0.041 A 
HETATM   18 CL1  UNL     1      25.782   0.357  52.160  1.00  0.00    -0.084 Cl
ENDBRANCH  10  11
ENDBRANCH   1  10
BRANCH   1  19
HETATM   19  N1  UNL     1      24.928   3.554  52.659  1.00  0.00     0.128 N 
HETATM   20  H8  UNL     1      25.750   3.097  52.253  1.00  0.00     0.318 HD
HETATM   21  H9  UNL     1      24.750   3.142  53.595  1.00  0.00     0.318 HD
ENDBRANCH   1  19
BRANCH   8  22
HETATM   22  C12 UNL     1      25.220   4.949  49.897  1.00  0.00     0.036 A 
HETATM   23  C13 UNL     1      26.190   4.054  49.453  1.00  0.00     0.030 A 
HETATM   24  C14 UNL     1      27.313   4.525  48.806  1.00  0.00     0.010 A 
HETATM   25  C15 UNL     1      27.401   5.892  48.638  1.00  0.00    -0.055 A 
HETATM   26  C19 UNL     1      26.449   6.789  49.072  1.00  0.00     0.010 A 
HETATM   27  C20 UNL     1      25.320   6.310  49.723  1.00  0.00     0.030 A 
BRANCH  25  28
HETATM   28  C16 UNL     1      28.610   6.444  47.936  1.00  0.00     0.010 C 
HETATM   29  C17 UNL     1      28.953   7.822  48.480  1.00  0.00     0.015 C 
HETATM   30  C18 UNL     1      29.775   5.512  48.056  1.00  0.00     0.015 C 
ENDBRANCH  25  28
ENDBRANCH   8  22
BRANCH   7  31
HETATM   31  N4  UNL     1      22.244   7.267  51.120  1.00  0.00     0.115 N 
HETATM   32  H13 UNL     1      23.064   7.325  50.511  1.00  0.00     0.315 HD
HETATM   33  H14 UNL     1      21.700   8.136  51.221  1.00  0.00     0.315 HD
ENDBRANCH   7  31
TORSDOF 6
ENDMDL
MODEL 3
REMARK VINA RESULT:      -8.9      2.234      3.018
REMARK  6 active torsions:
REMARK  status: ('A' for Active; 'I' for Inactive)
REMARK    1  A    between atoms: C5_5  and  C6_6 
REMARK    2  A    between atoms: C6_6  and  C7_7 
REMARK    3  A    between atoms: C7_7  and  N1_8 
REMARK    4  A    between atoms: C11_14  and  N4_15 
REMARK    5  A    between atoms: N5_16  and  C12_17 
REMARK    6  A    between atoms: C15_20  and  C16_21 
ROOT
HETATM    1  C7  UNL     1      23.998   3.456  51.544  1.00  0.00     0.310 C 
HETATM    2  N2  UNL     1      22.860   4.094  52.267  1.00  0.00    -0.353 N 
HETATM    3  C8  UNL     1      22.152   4.910  51.333  1.00  0.00     0.182 A 
HETATM    4  C9  UNL     1      21.451   4.495  50.128  1.00  0.00     0.328 A 
HETATM    5  C10 UNL     1      22.885   4.440  50.236  1.00  0.00     0.306 A 
HETATM    6  N3  UNL     1      22.315   5.648  49.488  1.00  0.00     0.171 N 
HETATM    7  C11 UNL     1      21.743   6.303  50.792  1.00  0.00     0.489 C 
HETATM    8  N5  UNL     1      24.292   4.412  50.412  1.00  0.00    -0.289 N 
HETATM    9  H10 UNL     1      22.266   4.290  53.123  1.00  0.00     0.158 HD
ENDROOT
BRANCH   1  10
HETATM   10  C6  UNL     1      23.673   2.124  50.989  1.00  0.00     0.128 C 
BRANCH  10  11
HETATM   11  C5  UNL     1      23.219   1.125  51.953  1.00  0.00    -0.030 A 
HETATM   12  C4  UNL     1      23.788   0.621  53.104  1.00  0.00     0.009 A 
HETATM   13  C3  UNL     1      23.164  -0.338  53.869  1.00  0.00     0.007 A 
HETATM   14  C2  UNL     1      21.932  -0.807  53.471  1.00  0.00    -0.060 A 
HETATM   15  C1  UNL     1      21.329  -1.841  54.352  1.00  0.00     0.048 C 
HETATM   16  C22 UNL     1      21.310  -0.349  52.339  1.00  0.00     0.031 A 
HETATM   17  C21 UNL     1      21.966   0.625  51.578  1.00  0.00     0.041 A 
HETATM   18 CL1  UNL     1      21.040   1.115  50.148  1.00  0.00    -0.084 Cl
ENDBRANCH  10  11
ENDBRANCH   1  10
BRANCH   1  19
HETATM   19  N1  UNL     1      25.117   3.451  52.448  1.00  0.00     0.128 N 
HETATM   20  H8  UNL     1      25.959   3.743  51.942  1.00  0.00     0.318 HD
HETATM   21  H9  UNL     1      25.307   2.537  52.903  1.00  0.00     0.318 HD
ENDBRANCH   1  19
BRANCH   8  22
HETATM   22  C12 UNL     1      25.417   5.003  49.772  1.00  0.00     0.036 A 
HETATM   23  C13 UNL     1      26.378   4.101  49.324  1.00  0.00     0.030 A 
HETATM   24  C14 UNL     1      27.511   4.564  48.689  1.00  0.00     0.010 A 
HETATM   25  C15 UNL     1      27.619   5.932  48.538  1.00  0.00    -0.055 A 
HETATM   26  C19 UNL     1      26.676   6.837  48.977  1.00  0.00     0.010 A 
HETATM   27  C20 UNL     1      25.537   6.364  49.615  1.00  0.00     0.030 A 
BRANCH  25  28
HETATM   28  C16 UNL     1      28.840   6.476  47.851  1.00  0.00     0.010 C 
HETATM   29  C17 UNL     1      29.144   7.881  48.348  1.00  0.00     0.015 C 
HETATM   30  C18 UNL     1      30.015   5.570  48.044  1.00  0.00     0.015 C 
ENDBRANCH  25  28
ENDBRANCH   8  22
BRANCH   7  31
HETATM   31  N4  UNL     1      22.567   7.363  51.200  1.00  0.00     0.115 N 
HETATM   32  H13 UNL     1      23.544   7.057  51.195  1.00  0.00     0.315 HD
HETATM   33  H14 UNL     1      22.375   8.253  50.720  1.00  0.00     0.315 HD
ENDBRANCH   7  31
TORSDOF 6
ENDMDL
MODEL 4
REMARK VINA RESULT:      -8.7      3.246      7.729
REMARK  6 active torsions:
REMARK  status: ('A' for Active; 'I' for Inactive)
REMARK    1  A    between atoms: C5_5  and  C6_6 
REMARK    2  A    between atoms: C6_6  and  C7_7 
REMARK    3  A    between atoms: C7_7  and  N1_8 
REMARK    4  A    between atoms: C11_14  and  N4_15 
REMARK    5  A    between atoms: N5_16  and  C12_17 
REMARK    6  A    between atoms: C15_20  and  C16_21 
ROOT
HETATM    1  C7  UNL     1      25.074   2.481  52.315  1.00  0.00     0.310 C 
HETATM    2  N2  UNL     1      26.278   2.274  53.169  1.00  0.00    -0.353 N 
HETATM    3  C8  UNL     1      26.522   0.869  53.247  1.00  0.00     0.182 A 
HETATM    4  C9  UNL     1      26.851  -0.048  52.167  1.00  0.00     0.328 A 
HETATM    5  C10 UNL     1      25.551   0.560  52.286  1.00  0.00     0.306 A 
HETATM    6  N3  UNL     1      25.669  -0.877  52.800  1.00  0.00     0.171 N 
HETATM    7  C11 UNL     1      26.528  -0.461  54.043  1.00  0.00     0.489 C 
HETATM    8  N5  UNL     1      24.296   1.195  52.465  1.00  0.00    -0.289 N 
HETATM    9  H10 UNL     1      27.081   2.603  53.779  1.00  0.00     0.158 HD
ENDROOT
BRANCH   1  10
HETATM   10  C6  UNL     1      25.393   2.697  50.887  1.00  0.00     0.128 C 
BRANCH  10  11
HETATM   11  C5  UNL     1      24.569   3.685  50.193  1.00  0.00    -0.030 A 
HETATM   12  C4  UNL     1      23.209   3.906  50.170  1.00  0.00     0.009 A 
HETATM   13  C3  UNL     1      22.644   4.918  49.425  1.00  0.00     0.007 A 
HETATM   14  C2  UNL     1      23.468   5.734  48.682  1.00  0.00    -0.060 A 
HETATM   15  C1  UNL     1      22.779   6.798  47.908  1.00  0.00     0.048 C 
HETATM   16  C22 UNL     1      24.828   5.569  48.660  1.00  0.00     0.031 A 
HETATM   17  C21 UNL     1      25.376   4.533  49.425  1.00  0.00     0.041 A 
HETATM   18 CL1  UNL     1      27.142   4.447  49.294  1.00  0.00    -0.084 Cl
ENDBRANCH  10  11
ENDBRANCH   1  10
BRANCH   1  19
HETATM   19  N1  UNL     1      24.318   3.550  52.910  1.00  0.00     0.128 N 
HETATM   20  H8  UNL     1      24.902   4.391  52.954  1.00  0.00     0.318 HD
HETATM   21  H9  UNL     1      23.956   3.351  53.863  1.00  0.00     0.318 HD
ENDBRANCH   1  19
BRANCH   8  22
HETATM   22  C12 UNL     1      22.952   0.770  52.659  1.00  0.00     0.036 A 
HETATM   23  C13 UNL     1      22.160   0.789  51.514  1.00  0.00     0.030 A 
HETATM   24  C14 UNL     1      20.839   0.398  51.587  1.00  0.00     0.010 A 
HETATM   25  C15 UNL     1      20.379   0.005  52.827  1.00  0.00    -0.055 A 
HETATM   26  C19 UNL     1      21.151  -0.019  53.968  1.00  0.00     0.010 A 
HETATM   27  C20 UNL     1      22.480   0.375  53.889  1.00  0.00     0.030 A 
BRANCH  25  28
HETATM   28  C16 UNL     1      18.945  -0.429  52.947  1.00  0.00     0.010 C 
HETATM   29  C17 UNL     1      18.260  -0.365  51.590  1.00  0.00     0.015 C 
HETATM   30  C18 UNL     1      18.843  -1.799  53.538  1.00  0.00     0.015 C 
ENDBRANCH  25  28
ENDBRANCH   8  22
BRANCH   7  31
HETATM   31  N4  UNL     1      25.735  -0.463  55.200  1.00  0.00     0.115 N 
HETATM   32  H13 UNL     1      24.747  -0.496  54.936  1.00  0.00     0.315 HD
HETATM   33  H14 UNL     1      26.032  -1.147  55.911  1.00  0.00     0.315 HD
ENDBRANCH   7  31
TORSDOF 6
ENDMDL
MODEL 5
REMARK VINA RESULT:      -8.4      2.932      6.094
REMARK  6 active torsions:
REMARK  status: ('A' for Active; 'I' for Inactive)
REMARK    1  A    between atoms: C5_5  and  C6_6 
REMARK    2  A    between atoms: C6_6  and  C7_7 
REMARK    3  A    between atoms: C7_7  and  N1_8 
REMARK    4  A    between atoms: C11_14  and  N4_15 
REMARK    5  A    between atoms: N5_16  and  C12_17 
REMARK    6  A    between atoms: C15_20  and  C16_21 
ROOT
HETATM    1  C7  UNL     1      24.483   2.469  52.084  1.00  0.00     0.310 C 
HETATM    2  N2  UNL     1      24.896   3.696  51.344  1.00  0.00    -0.353 N 
HETATM    3  C8  UNL     1      23.927   4.712  51.609  1.00  0.00     0.182 A 
HETATM    4  C9  UNL     1      23.589   5.321  52.886  1.00  0.00     0.328 A 
HETATM    5  C10 UNL     1      23.268   3.951  52.582  1.00  0.00     0.306 A 
HETATM    6  N3  UNL     1      22.126   4.957  52.427  1.00  0.00     0.171 N 
HETATM    7  C11 UNL     1      22.754   5.615  51.151  1.00  0.00     0.489 C 
HETATM    8  N5  UNL     1      22.985   2.610  52.216  1.00  0.00    -0.289 N 
HETATM    9  H10 UNL     1      25.530   4.253  50.701  1.00  0.00     0.158 HD
ENDROOT
BRANCH   1  10
HETATM   10  C6  UNL     1      25.086   2.360  53.430  1.00  0.00     0.128 C 
BRANCH  10  11
HETATM   11  C5  UNL     1      26.401   1.725  53.490  1.00  0.00    -0.030 A 
HETATM   12  C4  UNL     1      27.672   2.204  53.257  1.00  0.00     0.009 A 
HETATM   13  C3  UNL     1      28.788   1.404  53.376  1.00  0.00     0.007 A 
HETATM   14  C2  UNL     1      28.625   0.087  53.741  1.00  0.00    -0.060 A 
HETATM   15  C1  UNL     1      29.878  -0.705  53.845  1.00  0.00     0.048 C 
HETATM   16  C22 UNL     1      27.389  -0.452  53.988  1.00  0.00     0.031 A 
HETATM   17  C21 UNL     1      26.272   0.381  53.859  1.00  0.00     0.041 A 
HETATM   18 CL1  UNL     1      24.749  -0.458  54.209  1.00  0.00    -0.084 Cl
ENDBRANCH  10  11
ENDBRANCH   1  10
BRANCH   1  19
HETATM   19  N1  UNL     1      24.768   1.349  51.227  1.00  0.00     0.128 N 
HETATM   20  H8  UNL     1      23.917   1.087  50.722  1.00  0.00     0.318 HD
HETATM   21  H9  UNL     1      25.133   0.508  51.715  1.00  0.00     0.318 HD
ENDBRANCH   1  19
BRANCH   8  22
HETATM   22  C12 UNL     1      21.816   1.810  52.082  1.00  0.00     0.036 A 
HETATM   23  C13 UNL     1      21.482   1.067  53.211  1.00  0.00     0.030 A 
HETATM   24  C14 UNL     1      20.367   0.255  53.192  1.00  0.00     0.010 A 
HETATM   25  C15 UNL     1      19.638   0.233  52.020  1.00  0.00    -0.055 A 
HETATM   26  C19 UNL     1      19.958   0.963  50.896  1.00  0.00     0.010 A 
HETATM   27  C20 UNL     1      21.081   1.779  50.920  1.00  0.00     0.030 A 
BRANCH  25  28
HETATM   28  C16 UNL     1      18.417  -0.640  51.961  1.00  0.00     0.010 C 
HETATM   29  C17 UNL     1      18.190  -1.322  53.302  1.00  0.00     0.015 C 
HETATM   30  C18 UNL     1      17.213   0.145  51.545  1.00  0.00     0.015 C 
ENDBRANCH  25  28
ENDBRANCH   8  22
BRANCH   7  31
HETATM   31  N4  UNL     1      22.082   5.176  50.001  1.00  0.00     0.115 N 
HETATM   32  H13 UNL     1      21.072   5.275  50.137  1.00  0.00     0.315 HD
HETATM   33  H14 UNL     1      22.455   5.563  49.123  1.00  0.00     0.315 HD
ENDBRANCH   7  31
TORSDOF 6
ENDMDL
MODEL 6
REMARK VINA RESULT:      -8.0      5.407      8.742
REMARK  6 active torsions:
REMARK  status: ('A' for Active; 'I' for Inactive)
REMARK    1  A    between atoms: C5_5  and  C6_6 
REMARK    2  A    between atoms: C6_6  and  C7_7 
REMARK    3  A    between atoms: C7_7  and  N1_8 
REMARK    4  A    between atoms: C11_14  and  N4_15 
REMARK    5  A    between atoms: N5_16  and  C12_17 
REMARK    6  A    between atoms: C15_20  and  C16_21 
ROOT
HETATM    1  C7  UNL     1      28.955   9.137  48.258  1.00  0.00     0.310 C 
HETATM    2  N2  UNL     1      28.785  10.618  48.241  1.00  0.00    -0.353 N 
HETATM    3  C8  UNL     1      29.480  11.124  47.100  1.00  0.00     0.182 A 
HETATM    4  C9  UNL     1      29.220  10.850  45.695  1.00  0.00     0.328 A 
HETATM    5  C10 UNL     1      29.743   9.848  46.587  1.00  0.00     0.306 A 
HETATM    6  N3  UNL     1      30.768  10.549  45.691  1.00  0.00     0.171 N 
HETATM    7  C11 UNL     1      30.663  11.903  46.472  1.00  0.00     0.489 C 
HETATM    8  N5  UNL     1      30.255   8.911  47.521  1.00  0.00    -0.289 N 
HETATM    9  H10 UNL     1      28.426  11.540  48.623  1.00  0.00     0.158 HD
ENDROOT
BRANCH   1  10
HETATM   10  C6  UNL     1      27.868   8.409  47.569  1.00  0.00     0.128 C 
BRANCH  10  11
HETATM   11  C5  UNL     1      27.605   7.054  48.048  1.00  0.00    -0.030 A 
HETATM   12  C4  UNL     1      28.395   5.926  48.117  1.00  0.00     0.009 A 
HETATM   13  C3  UNL     1      27.923   4.732  48.616  1.00  0.00     0.007 A 
HETATM   14  C2  UNL     1      26.621   4.666  49.059  1.00  0.00    -0.060 A 
HETATM   15  C1  UNL     1      26.191   3.342  49.580  1.00  0.00     0.048 C 
HETATM   16  C22 UNL     1      25.782   5.749  49.019  1.00  0.00     0.031 A 
HETATM   17  C21 UNL     1      26.286   6.950  48.507  1.00  0.00     0.041 A 
HETATM   18 CL1  UNL     1      25.087   8.257  48.519  1.00  0.00    -0.084 Cl
ENDBRANCH  10  11
ENDBRANCH   1  10
BRANCH   1  19
HETATM   19  N1  UNL     1      29.132   8.752  49.633  1.00  0.00     0.128 N 
HETATM   20  H8  UNL     1      29.432   9.568  50.174  1.00  0.00     0.318 HD
HETATM   21  H9  UNL     1      29.815   7.986  49.787  1.00  0.00     0.318 HD
ENDBRANCH   1  19
BRANCH   8  22
HETATM   22  C12 UNL     1      31.435   8.127  47.642  1.00  0.00     0.036 A 
HETATM   23  C13 UNL     1      31.474   6.996  46.832  1.00  0.00     0.030 A 
HETATM   24  C14 UNL     1      32.572   6.162  46.870  1.00  0.00     0.010 A 
HETATM   25  C15 UNL     1      33.587   6.516  47.736  1.00  0.00    -0.055 A 
HETATM   26  C19 UNL     1      33.562   7.632  48.543  1.00  0.00     0.010 A 
HETATM   27  C20 UNL     1      32.454   8.468  48.501  1.00  0.00     0.030 A 
BRANCH  25  28
HETATM   28  C16 UNL     1      34.800   5.632  47.805  1.00  0.00     0.010 C 
HETATM   29  C17 UNL     1      35.611   5.945  49.053  1.00  0.00     0.015 C 
HETATM   30  C18 UNL     1      34.417   4.186  47.759  1.00  0.00     0.015 C 
ENDBRANCH  25  28
ENDBRANCH   8  22
BRANCH   7  31
HETATM   31  N4  UNL     1      31.778  12.064  47.310  1.00  0.00     0.115 N 
HETATM   32  H13 UNL     1      32.400  11.258  47.208  1.00  0.00     0.315 HD
HETATM   33  H14 UNL     1      32.227  12.988  47.238  1.00  0.00     0.315 HD
ENDBRANCH   7  31
TORSDOF 6
ENDMDL
MODEL 7
REMARK VINA RESULT:      -7.7      5.855     10.130
REMARK  6 active torsions:
REMARK  status: ('A' for Active; 'I' for Inactive)
REMARK    1  A    between atoms: C5_5  and  C6_6 
REMARK    2  A    between atoms: C6_6  and  C7_7 
REMARK    3  A    between atoms: C7_7  and  N1_8 
REMARK    4  A    between atoms: C11_14  and  N4_15 
REMARK    5  A    between atoms: N5_16  and  C12_17 
REMARK    6  A    between atoms: C15_20  and  C16_21 
ROOT
HETATM    1  C7  UNL     1      31.745   8.485  48.597  1.00  0.00     0.310 C 
HETATM    2  N2  UNL     1      33.086   7.846  48.724  1.00  0.00    -0.353 N 
HETATM    3  C8  UNL     1      33.155   6.784  47.771  1.00  0.00     0.182 A 
HETATM    4  C9  UNL     1      33.081   6.871  46.321  1.00  0.00     0.328 A 
HETATM    5  C10 UNL     1      31.944   7.136  47.162  1.00  0.00     0.306 A 
HETATM    6  N3  UNL     1      31.996   5.746  46.524  1.00  0.00     0.171 N 
HETATM    7  C11 UNL     1      33.184   5.273  47.430  1.00  0.00     0.489 C 
HETATM    8  N5  UNL     1      30.866   7.384  48.051  1.00  0.00    -0.289 N 
HETATM    9  H10 UNL     1      34.051   7.734  49.149  1.00  0.00     0.158 HD
ENDROOT
BRANCH   1  10
HETATM   10  C6  UNL     1      31.723   9.635  47.669  1.00  0.00     0.128 C 
BRANCH  10  11
HETATM   11  C5  UNL     1      30.794  10.711  48.007  1.00  0.00    -0.030 A 
HETATM   12  C4  UNL     1      30.776  11.631  49.034  1.00  0.00     0.009 A 
HETATM   13  C3  UNL     1      29.777  12.572  49.156  1.00  0.00     0.007 A 
HETATM   14  C2  UNL     1      28.768  12.593  48.219  1.00  0.00    -0.060 A 
HETATM   15  C1  UNL     1      27.731  13.637  48.425  1.00  0.00     0.048 C 
HETATM   16  C22 UNL     1      28.726  11.708  47.174  1.00  0.00     0.031 A 
HETATM   17  C21 UNL     1      29.752  10.762  47.074  1.00  0.00     0.041 A 
HETATM   18 CL1  UNL     1      29.561   9.690  45.674  1.00  0.00    -0.084 Cl
ENDBRANCH  10  11
ENDBRANCH   1  10
BRANCH   1  19
HETATM   19  N1  UNL     1      31.307   8.806  49.930  1.00  0.00     0.128 N 
HETATM   20  H8  UNL     1      30.284   8.793  49.960  1.00  0.00     0.318 HD
HETATM   21  H9  UNL     1      31.635   9.724  50.288  1.00  0.00     0.318 HD
ENDBRANCH   1  19
BRANCH   8  22
HETATM   22  C12 UNL     1      29.569   6.840  48.265  1.00  0.00     0.036 A 
HETATM   23  C13 UNL     1      28.558   7.783  48.429  1.00  0.00     0.030 A 
HETATM   24  C14 UNL     1      27.261   7.367  48.644  1.00  0.00     0.010 A 
HETATM   25  C15 UNL     1      27.047   6.004  48.683  1.00  0.00    -0.055 A 
HETATM   26  C19 UNL     1      28.039   5.060  48.522  1.00  0.00     0.010 A 
HETATM   27  C20 UNL     1      29.343   5.484  48.306  1.00  0.00     0.030 A 
BRANCH  25  28
HETATM   28  C16 UNL     1      25.647   5.511  48.915  1.00  0.00     0.010 C 
HETATM   29  C17 UNL     1      25.665   4.054  49.351  1.00  0.00     0.015 C 
HETATM   30  C18 UNL     1      24.934   6.365  49.916  1.00  0.00     0.015 C 
ENDBRANCH  25  28
ENDBRANCH   8  22
BRANCH   7  31
HETATM   31  N4  UNL     1      32.711   4.426  48.444  1.00  0.00     0.115 N 
HETATM   32  H13 UNL     1      31.851   3.967  48.131  1.00  0.00     0.315 HD
HETATM   33  H14 UNL     1      33.430   3.806  48.842  1.00  0.00     0.315 HD
ENDBRANCH   7  31
TORSDOF 6
ENDMDL
MODEL 8
REMARK VINA RESULT:      -7.7      5.034      8.664
REMARK  6 active torsions:
REMARK  status: ('A' for Active; 'I' for Inactive)
REMARK    1  A    between atoms: C5_5  and  C6_6 
REMARK    2  A    between atoms: C6_6  and  C7_7 
REMARK    3  A    between atoms: C7_7  and  N1_8 
REMARK    4  A    between atoms: C11_14  and  N4_15 
REMARK    5  A    between atoms: N5_16  and  C12_17 
REMARK    6  A    between atoms: C15_20  and  C16_21 
ROOT
HETATM    1  C7  UNL     1      30.447   8.393  46.790  1.00  0.00     0.310 C 
HETATM    2  N2  UNL     1      30.281   9.866  46.633  1.00  0.00    -0.353 N 
HETATM    3  C8  UNL     1      29.851  10.393  47.889  1.00  0.00     0.182 A 
HETATM    4  C9  UNL     1      30.558  10.378  49.160  1.00  0.00     0.328 A 
HETATM    5  C10 UNL     1      30.037   9.178  48.560  1.00  0.00     0.306 A 
HETATM    6  N3  UNL     1      29.184   9.796  49.671  1.00  0.00     0.171 N 
HETATM    7  C11 UNL     1      28.756  11.019  48.790  1.00  0.00     0.489 C 
HETATM    8  N5  UNL     1      29.499   8.037  47.911  1.00  0.00    -0.289 N 
HETATM    9  H10 UNL     1      30.300  10.774  46.085  1.00  0.00     0.158 HD
ENDROOT
BRANCH   1  10
HETATM   10  C6  UNL     1      31.820   7.988  47.161  1.00  0.00     0.128 C 
BRANCH  10  11
HETATM   11  C5  UNL     1      32.168   6.594  46.895  1.00  0.00    -0.030 A 
HETATM   12  C4  UNL     1      32.395   5.903  45.724  1.00  0.00     0.009 A 
HETATM   13  C3  UNL     1      32.715   4.563  45.717  1.00  0.00     0.007 A 
HETATM   14  C2  UNL     1      32.810   3.896  46.918  1.00  0.00    -0.060 A 
HETATM   15  C1  UNL     1      33.157   2.455  46.820  1.00  0.00     0.048 C 
HETATM   16  C22 UNL     1      32.597   4.523  48.117  1.00  0.00     0.031 A 
HETATM   17  C21 UNL     1      32.272   5.885  48.097  1.00  0.00     0.041 A 
HETATM   18 CL1  UNL     1      32.026   6.553  49.721  1.00  0.00    -0.084 Cl
ENDBRANCH  10  11
ENDBRANCH   1  10
BRANCH   1  19
HETATM   19  N1  UNL     1      29.971   7.787  45.574  1.00  0.00     0.128 N 
HETATM   20  H8  UNL     1      29.225   8.367  45.179  1.00  0.00     0.318 HD
HETATM   21  H9  UNL     1      29.614   6.818  45.680  1.00  0.00     0.318 HD
ENDBRANCH   1  19
BRANCH   8  22
HETATM   22  C12 UNL     1      28.539   7.036  48.227  1.00  0.00     0.036 A 
HETATM   23  C13 UNL     1      27.250   7.511  48.455  1.00  0.00     0.030 A 
HETATM   24  C14 UNL     1      26.239   6.627  48.772  1.00  0.00     0.010 A 
HETATM   25  C15 UNL     1      26.585   5.293  48.843  1.00  0.00    -0.055 A 
HETATM   26  C19 UNL     1      27.856   4.809  48.619  1.00  0.00     0.010 A 
HETATM   27  C20 UNL     1      28.870   5.703  48.302  1.00  0.00     0.030 A 
BRANCH  25  28
HETATM   28  C16 UNL     1      25.510   4.299  49.184  1.00  0.00     0.010 C 
HETATM   29  C17 UNL     1      26.058   3.229  50.115  1.00  0.00     0.015 C 
HETATM   30  C18 UNL     1      24.320   4.978  49.784  1.00  0.00     0.015 C 
ENDBRANCH  25  28
ENDBRANCH   8  22
BRANCH   7  31
HETATM   31  N4  UNL     1      27.441  10.846  48.332  1.00  0.00     0.115 N 
HETATM   32  H13 UNL     1      27.180  11.637  47.737  1.00  0.00     0.315 HD
HETATM   33  H14 UNL     1      27.251   9.911  47.942  1.00  0.00     0.315 HD
ENDBRANCH   7  31
TORSDOF 6
ENDMDL
MODEL 9
REMARK VINA RESULT:      -7.7      3.357      5.411
REMARK  6 active torsions:
REMARK  status: ('A' for Active; 'I' for Inactive)
REMARK    1  A    between atoms: C5_5  and  C6_6 
REMARK    2  A    between atoms: C6_6  and  C7_7 
REMARK    3  A    between atoms: C7_7  and  N1_8 
REMARK    4  A    between atoms: C11_14  and  N4_15 
REMARK    5  A    between atoms: N5_16  and  C12_17 
REMARK    6  A    between atoms: C15_20  and  C16_21 
ROOT
HETATM    1  C7  UNL     1      25.627   7.295  49.329  1.00  0.00     0.310 C 
HETATM    2  N2  UNL     1      24.865   8.557  49.104  1.00  0.00    -0.353 N 
HETATM    3  C8  UNL     1      25.160   9.015  47.784  1.00  0.00     0.182 A 
HETATM    4  C9  UNL     1      24.881   8.353  46.519  1.00  0.00     0.328 A 
HETATM    5  C10 UNL     1      25.863   7.852  47.444  1.00  0.00     0.306 A 
HETATM    6  N3  UNL     1      26.406   8.665  46.267  1.00  0.00     0.171 N 
HETATM    7  C11 UNL     1      25.844  10.019  46.822  1.00  0.00     0.489 C 
HETATM    8  N5  UNL     1      26.814   7.416  48.403  1.00  0.00    -0.289 N 
HETATM    9  H10 UNL     1      24.206   9.336  49.393  1.00  0.00     0.158 HD
ENDROOT
BRANCH   1  10
HETATM   10  C6  UNL     1      24.863   6.075  48.991  1.00  0.00     0.128 C 
BRANCH  10  11
HETATM   11  C5  UNL     1      25.276   4.853  49.677  1.00  0.00    -0.030 A 
HETATM   12  C4  UNL     1      26.355   4.012  49.502  1.00  0.00     0.009 A 
HETATM   13  C3  UNL     1      26.543   2.893  50.282  1.00  0.00     0.007 A 
HETATM   14  C2  UNL     1      25.625   2.608  51.268  1.00  0.00    -0.060 A 
HETATM   15  C1  UNL     1      25.902   1.383  52.062  1.00  0.00     0.048 C 
HETATM   16  C22 UNL     1      24.531   3.401  51.494  1.00  0.00     0.031 A 
HETATM   17  C21 UNL     1      24.362   4.532  50.687  1.00  0.00     0.041 A 
HETATM   18 CL1  UNL     1      22.905   5.456  51.099  1.00  0.00    -0.084 Cl
ENDBRANCH  10  11
ENDBRANCH   1  10
BRANCH   1  19
HETATM   19  N1  UNL     1      26.097   7.328  50.689  1.00  0.00     0.128 N 
HETATM   20  H8  UNL     1      25.322   7.584  51.306  1.00  0.00     0.318 HD
HETATM   21  H9  UNL     1      26.886   7.980  50.862  1.00  0.00     0.318 HD
ENDBRANCH   1  19
BRANCH   8  22
HETATM   22  C12 UNL     1      28.217   7.184  48.421  1.00  0.00     0.036 A 
HETATM   23  C13 UNL     1      28.602   5.887  48.096  1.00  0.00     0.030 A 
HETATM   24  C14 UNL     1      29.940   5.550  48.085  1.00  0.00     0.010 A 
HETATM   25  C15 UNL     1      30.832   6.553  48.406  1.00  0.00    -0.055 A 
HETATM   26  C19 UNL     1      30.465   7.842  48.729  1.00  0.00     0.010 A 
HETATM   27  C20 UNL     1      29.117   8.175  48.739  1.00  0.00     0.030 A 
BRANCH  25  28
HETATM   28  C16 UNL     1      32.298   6.225  48.403  1.00  0.00     0.010 C 
HETATM   29  C17 UNL     1      32.510   4.757  48.069  1.00  0.00     0.015 C 
HETATM   30  C18 UNL     1      33.046   7.108  47.453  1.00  0.00     0.015 C 
ENDBRANCH  25  28
ENDBRANCH   8  22
BRANCH   7  31
HETATM   31  N4  UNL     1      26.881  10.774  47.391  1.00  0.00     0.115 N 
HETATM   32  H13 UNL     1      27.458  11.176  46.648  1.00  0.00     0.315 HD
HETATM   33  H14 UNL     1      26.571  11.430  48.122  1.00  0.00     0.315 HD
ENDBRANCH   7  31
TORSDOF 6
ENDMDL
