MODEL 1
REMARK VINA RESULT:      -7.7      0.000      0.000
REMARK  3 active torsions:
REMARK  status: ('A' for Active; 'I' for Inactive)
REMARK    1  A    between atoms: C1_2  and  O2_3 
REMARK    2  A    between atoms: C1_2  and  C2_4 
REMARK    3  A    between atoms: C10_13  and  N2_14 
ROOT
HETATM    1  C2  UNL     1      22.058   1.331  51.859  1.00  0.00     0.038 A 
HETATM    2  C3  UNL     1      22.476   2.646  51.857  1.00  0.00     0.021 A 
HETATM    3  C4  UNL     1      23.650   2.967  52.504  1.00  0.00     0.039 A 
HETATM    4  C5  UNL     1      24.414   2.010  53.150  1.00  0.00     0.086 A 
HETATM    5  C6  UNL     1      23.957   0.688  53.127  1.00  0.00    -0.006 A 
HETATM    6  C7  UNL     1      22.785   0.341  52.487  1.00  0.00     0.029 A 
HETATM    7  C8  UNL     1      24.638  -0.471  53.763  1.00  0.00     0.161 C 
HETATM    8  N1  UNL     1      26.040  -0.556  53.355  1.00  0.00    -0.379 N 
HETATM    9  C9  UNL     1      27.031   0.441  53.626  1.00  0.00     0.129 A 
HETATM   10  C10 UNL     1      28.309  -0.055  53.714  1.00  0.00     0.170 A 
HETATM   11  N3  UNL     1      29.332   0.767  53.964  1.00  0.00    -0.221 NA
HETATM   12  C11 UNL     1      29.101   2.094  54.132  1.00  0.00     0.238 A 
HETATM   13  N4  UNL     1      27.849   2.586  54.046  1.00  0.00    -0.215 NA
HETATM   14  C12 UNL     1      26.781   1.806  53.796  1.00  0.00     0.202 A 
HETATM   15  O3  UNL     1      25.563   2.511  53.747  1.00  0.00    -0.289 OA
HETATM   16  H7  UNL     1      26.421  -1.370  52.827  1.00  0.00     0.160 HD
ENDROOT
BRANCH   1  17
HETATM   17  C1  UNL     1      20.841   0.840  51.217  1.00  0.00     0.176 C 
HETATM   18  O1  UNL     1      19.890   0.203  51.788  1.00  0.00    -0.646 OA
BRANCH  17  19
HETATM   19  O2  UNL     1      20.399   0.918  49.906  1.00  0.00    -0.773 OA
HETATM   20  H1  UNL     1      20.295   1.788  49.376  1.00  0.00     0.167 HD
ENDBRANCH  17  19
ENDBRANCH   1  17
BRANCH  10  21
HETATM   21  N2  UNL     1      28.472  -1.453  53.526  1.00  0.00    -0.281 N 
HETATM   22 CL1  UNL     1      30.194  -1.617  53.828  1.00  0.00     0.012 Cl
HETATM   23  H8  UNL     1      27.945  -2.314  53.290  1.00  0.00     0.182 HD
ENDBRANCH  10  21
TORSDOF 3
ENDMDL
MODEL 2
REMARK VINA RESULT:      -7.6      4.561      5.936
REMARK  3 active torsions:
REMARK  status: ('A' for Active; 'I' for Inactive)
REMARK    1  A    between atoms: C1_2  and  O2_3 
REMARK    2  A    between atoms: C1_2  and  C2_4 
REMARK    3  A    between atoms: C10_13  and  N2_14 
ROOT
HETATM    1  C2  UNL     1      23.198  -0.420  53.948  1.00  0.00     0.038 A 
HETATM    2  C3  UNL     1      24.516  -0.490  53.543  1.00  0.00     0.021 A 
HETATM    3  C4  UNL     1      24.968   0.410  52.602  1.00  0.00     0.039 A 
HETATM    4  C5  UNL     1      24.138   1.376  52.058  1.00  0.00     0.086 A 
HETATM    5  C6  UNL     1      22.809   1.416  52.495  1.00  0.00    -0.006 A 
HETATM    6  C7  UNL     1      22.334   0.525  53.436  1.00  0.00     0.029 A 
HETATM    7  C8  UNL     1      21.776   2.376  52.027  1.00  0.00     0.161 C 
HETATM    8  N1  UNL     1      22.243   3.758  52.133  1.00  0.00    -0.379 N 
HETATM    9  C9  UNL     1      23.364   4.298  51.425  1.00  0.00     0.129 A 
HETATM   10  C10 UNL     1      23.273   5.648  51.188  1.00  0.00     0.170 A 
HETATM   11  N3  UNL     1      24.252   6.282  50.534  1.00  0.00    -0.221 NA
HETATM   12  C11 UNL     1      25.334   5.583  50.105  1.00  0.00     0.238 A 
HETATM   13  N4  UNL     1      25.427   4.258  50.336  1.00  0.00    -0.215 NA
HETATM   14  C12 UNL     1      24.474   3.569  50.988  1.00  0.00     0.202 A 
HETATM   15  O3  UNL     1      24.760   2.196  51.126  1.00  0.00    -0.289 OA
HETATM   16  H7  UNL     1      21.779   4.461  52.747  1.00  0.00     0.160 HD
ENDROOT
BRANCH   1  17
HETATM   17  C1  UNL     1      22.579  -1.301  54.933  1.00  0.00     0.176 C 
HETATM   18  O1  UNL     1      21.344  -1.630  54.982  1.00  0.00    -0.646 OA
BRANCH  17  19
HETATM   19  O2  UNL     1      23.110  -1.984  56.016  1.00  0.00    -0.773 OA
HETATM   20  H1  UNL     1      22.651  -2.084  56.926  1.00  0.00     0.167 HD
ENDBRANCH  17  19
ENDBRANCH   1  17
BRANCH  10  21
HETATM   21  N2  UNL     1      22.113   6.310  51.668  1.00  0.00    -0.281 N 
HETATM   22 CL1  UNL     1      22.046   7.676  50.566  1.00  0.00     0.012 Cl
HETATM   23  H8  UNL     1      21.372   6.244  52.391  1.00  0.00     0.182 HD
ENDBRANCH  10  21
TORSDOF 3
ENDMDL
MODEL 3
REMARK VINA RESULT:      -7.6      4.127      6.455
REMARK  3 active torsions:
REMARK  status: ('A' for Active; 'I' for Inactive)
REMARK    1  A    between atoms: C1_2  and  O2_3 
REMARK    2  A    between atoms: C1_2  and  C2_4 
REMARK    3  A    between atoms: C10_13  and  N2_14 
ROOT
HETATM    1  C2  UNL     1      27.491  -1.169  53.036  1.00  0.00     0.038 A 
HETATM    2  C3  UNL     1      26.171  -1.569  52.965  1.00  0.00     0.021 A 
HETATM    3  C4  UNL     1      25.204  -0.618  52.716  1.00  0.00     0.039 A 
HETATM    4  C5  UNL     1      25.523   0.718  52.536  1.00  0.00     0.086 A 
HETATM    5  C6  UNL     1      26.871   1.082  52.614  1.00  0.00    -0.006 A 
HETATM    6  C7  UNL     1      27.857   0.149  52.862  1.00  0.00     0.029 A 
HETATM    7  C8  UNL     1      27.402   2.461  52.449  1.00  0.00     0.161 C 
HETATM    8  N1  UNL     1      26.922   3.074  51.211  1.00  0.00    -0.379 N 
HETATM    9  C9  UNL     1      25.549   3.344  50.913  1.00  0.00     0.129 A 
HETATM   10  C10 UNL     1      25.364   4.402  50.056  1.00  0.00     0.170 A 
HETATM   11  N3  UNL     1      24.129   4.764  49.693  1.00  0.00    -0.221 NA
HETATM   12  C11 UNL     1      23.061   4.081  50.177  1.00  0.00     0.238 A 
HETATM   13  N4  UNL     1      23.237   3.043  51.018  1.00  0.00    -0.215 NA
HETATM   14  C12 UNL     1      24.455   2.633  51.416  1.00  0.00     0.202 A 
HETATM   15  O3  UNL     1      24.425   1.533  52.295  1.00  0.00    -0.289 OA
HETATM   16  H7  UNL     1      27.565   3.364  50.444  1.00  0.00     0.160 HD
ENDROOT
BRANCH   1  17
HETATM   17  C1  UNL     1      28.621  -2.058  53.290  1.00  0.00     0.176 C 
HETATM   18  O1  UNL     1      29.826  -1.700  53.523  1.00  0.00    -0.646 OA
BRANCH  17  19
HETATM   19  O2  UNL     1      28.706  -3.440  53.349  1.00  0.00    -0.773 OA
HETATM   20  H1  UNL     1      28.728  -4.058  52.534  1.00  0.00     0.167 HD
ENDBRANCH  17  19
ENDBRANCH   1  17
BRANCH  10  21
HETATM   21  N2  UNL     1      26.529   5.066  49.590  1.00  0.00    -0.281 N 
HETATM   22 CL1  UNL     1      25.809   6.282  48.548  1.00  0.00     0.012 Cl
HETATM   23  H8  UNL     1      27.563   5.056  49.668  1.00  0.00     0.182 HD
ENDBRANCH  10  21
TORSDOF 3
ENDMDL
MODEL 4
REMARK VINA RESULT:      -7.5      4.451      7.182
REMARK  3 active torsions:
REMARK  status: ('A' for Active; 'I' for Inactive)
REMARK    1  A    between atoms: C1_2  and  O2_3 
REMARK    2  A    between atoms: C1_2  and  C2_4 
REMARK    3  A    between atoms: C10_13  and  N2_14 
ROOT
HETATM    1  C2  UNL     1      25.319   1.651  53.136  1.00  0.00     0.038 A 
HETATM    2  C3  UNL     1      24.992   2.461  52.066  1.00  0.00     0.021 A 
HETATM    3  C4  UNL     1      23.853   2.174  51.344  1.00  0.00     0.039 A 
HETATM    4  C5  UNL     1      23.036   1.102  51.663  1.00  0.00     0.086 A 
HETATM    5  C6  UNL     1      23.402   0.307  52.755  1.00  0.00    -0.006 A 
HETATM    6  C7  UNL     1      24.537   0.574  53.493  1.00  0.00     0.029 A 
HETATM    7  C8  UNL     1      22.654  -0.881  53.245  1.00  0.00     0.161 C 
HETATM    8  N1  UNL     1      21.242  -0.568  53.469  1.00  0.00    -0.379 N 
HETATM    9  C9  UNL     1      20.326  -0.153  52.450  1.00  0.00     0.129 A 
HETATM   10  C10 UNL     1      19.019  -0.486  52.709  1.00  0.00     0.170 A 
HETATM   11  N3  UNL     1      18.059  -0.159  51.839  1.00  0.00    -0.221 NA
HETATM   12  C11 UNL     1      18.383   0.505  50.700  1.00  0.00     0.238 A 
HETATM   13  N4  UNL     1      19.664   0.835  50.443  1.00  0.00    -0.215 NA
HETATM   14  C12 UNL     1      20.671   0.532  51.281  1.00  0.00     0.202 A 
HETATM   15  O3  UNL     1      21.934   0.963  50.830  1.00  0.00    -0.289 OA
HETATM   16  H7  UNL     1      20.798  -0.630  54.409  1.00  0.00     0.160 HD
ENDROOT
BRANCH   1  17
HETATM   17  C1  UNL     1      26.489   1.830  53.991  1.00  0.00     0.176 C 
HETATM   18  O1  UNL     1      26.819   1.093  54.983  1.00  0.00    -0.646 OA
BRANCH  17  19
HETATM   19  O2  UNL     1      27.500   2.777  53.977  1.00  0.00    -0.773 OA
HETATM   20  H1  UNL     1      28.386   2.693  54.482  1.00  0.00     0.167 HD
ENDBRANCH  17  19
ENDBRANCH   1  17
BRANCH  10  21
HETATM   21  N2  UNL     1      18.758  -1.178  53.921  1.00  0.00    -0.281 N 
HETATM   22 CL1  UNL     1      17.532  -2.315  53.382  1.00  0.00     0.012 Cl
HETATM   23  H8  UNL     1      19.037  -1.216  54.919  1.00  0.00     0.182 HD
ENDBRANCH  10  21
TORSDOF 3
ENDMDL
MODEL 5
REMARK VINA RESULT:      -7.5      2.809      3.903
REMARK  3 active torsions:
REMARK  status: ('A' for Active; 'I' for Inactive)
REMARK    1  A    between atoms: C1_2  and  O2_3 
REMARK    2  A    between atoms: C1_2  and  C2_4 
REMARK    3  A    between atoms: C10_13  and  N2_14 
ROOT
HETATM    1  C2  UNL     1      19.975  -0.755  53.288  1.00  0.00     0.038 A 
HETATM    2  C3  UNL     1      20.656  -1.462  54.260  1.00  0.00     0.021 A 
HETATM    3  C4  UNL     1      22.035  -1.430  54.256  1.00  0.00     0.039 A 
HETATM    4  C5  UNL     1      22.746  -0.711  53.311  1.00  0.00     0.086 A 
HETATM    5  C6  UNL     1      22.020  -0.008  52.344  1.00  0.00    -0.006 A 
HETATM    6  C7  UNL     1      20.640  -0.024  52.326  1.00  0.00     0.029 A 
HETATM    7  C8  UNL     1      22.607   0.815  51.253  1.00  0.00     0.161 C 
HETATM    8  N1  UNL     1      23.569   1.785  51.775  1.00  0.00    -0.379 N 
HETATM    9  C9  UNL     1      24.782   1.448  52.455  1.00  0.00     0.129 A 
HETATM   10  C10 UNL     1      25.774   2.388  52.322  1.00  0.00     0.170 A 
HETATM   11  N3  UNL     1      26.961   2.199  52.907  1.00  0.00    -0.221 NA
HETATM   12  C11 UNL     1      27.179   1.073  53.632  1.00  0.00     0.238 A 
HETATM   13  N4  UNL     1      26.209   0.147  53.766  1.00  0.00    -0.215 NA
HETATM   14  C12 UNL     1      24.996   0.284  53.201  1.00  0.00     0.202 A 
HETATM   15  O3  UNL     1      24.125  -0.792  53.459  1.00  0.00    -0.289 OA
HETATM   16  H7  UNL     1      23.432   2.814  51.681  1.00  0.00     0.160 HD
ENDROOT
BRANCH   1  17
HETATM   17  C1  UNL     1      18.522  -0.693  53.165  1.00  0.00     0.176 C 
HETATM   18  O1  UNL     1      17.867  -0.169  52.199  1.00  0.00    -0.646 OA
BRANCH  17  19
HETATM   19  O2  UNL     1      17.510  -1.150  53.995  1.00  0.00    -0.773 OA
HETATM   20  H1  UNL     1      16.535  -0.841  53.950  1.00  0.00     0.167 HD
ENDBRANCH  17  19
ENDBRANCH   1  17
BRANCH  10  21
HETATM   21  N2  UNL     1      25.470   3.541  51.550  1.00  0.00    -0.281 N 
HETATM   22 CL1  UNL     1      26.549   3.303  50.185  1.00  0.00     0.012 Cl
HETATM   23  H8  UNL     1      24.873   4.388  51.544  1.00  0.00     0.182 HD
ENDBRANCH  10  21
TORSDOF 3
ENDMDL
MODEL 6
REMARK VINA RESULT:      -7.4      3.778      6.569
REMARK  3 active torsions:
REMARK  status: ('A' for Active; 'I' for Inactive)
REMARK    1  A    between atoms: C1_2  and  O2_3 
REMARK    2  A    between atoms: C1_2  and  C2_4 
REMARK    3  A    between atoms: C10_13  and  N2_14 
ROOT
HETATM    1  C2  UNL     1      27.576   1.157  53.197  1.00  0.00     0.038 A 
HETATM    2  C3  UNL     1      27.344   2.109  52.225  1.00  0.00     0.021 A 
HETATM    3  C4  UNL     1      26.098   2.162  51.635  1.00  0.00     0.039 A 
HETATM    4  C5  UNL     1      25.083   1.291  51.993  1.00  0.00     0.086 A 
HETATM    5  C6  UNL     1      25.358   0.341  52.983  1.00  0.00    -0.006 A 
HETATM    6  C7  UNL     1      26.597   0.268  53.587  1.00  0.00     0.029 A 
HETATM    7  C8  UNL     1      24.400  -0.673  53.495  1.00  0.00     0.161 C 
HETATM    8  N1  UNL     1      23.140  -0.057  53.911  1.00  0.00    -0.379 N 
HETATM    9  C9  UNL     1      22.250   0.649  53.040  1.00  0.00     0.129 A 
HETATM   10  C10 UNL     1      20.937   0.613  53.441  1.00  0.00     0.170 A 
HETATM   11  N3  UNL     1      19.997   1.231  52.718  1.00  0.00    -0.221 NA
HETATM   12  C11 UNL     1      20.349   1.894  51.588  1.00  0.00     0.238 A 
HETATM   13  N4  UNL     1      21.637   1.933  51.191  1.00  0.00    -0.215 NA
HETATM   14  C12 UNL     1      22.624   1.330  51.877  1.00  0.00     0.202 A 
HETATM   15  O3  UNL     1      23.898   1.488  51.297  1.00  0.00    -0.289 OA
HETATM   16  H7  UNL     1      22.798  -0.092  54.894  1.00  0.00     0.160 HD
ENDROOT
BRANCH   1  17
HETATM   17  C1  UNL     1      28.839   0.981  53.908  1.00  0.00     0.176 C 
HETATM   18  O1  UNL     1      29.025   1.127  55.165  1.00  0.00    -0.646 OA
BRANCH  17  19
HETATM   19  O2  UNL     1      30.103   0.630  53.461  1.00  0.00    -0.773 OA
HETATM   20  H1  UNL     1      30.525  -0.296  53.572  1.00  0.00     0.167 HD
ENDBRANCH  17  19
ENDBRANCH   1  17
BRANCH  10  21
HETATM   21  N2  UNL     1      20.646  -0.099  54.635  1.00  0.00    -0.281 N 
HETATM   22 CL1  UNL     1      20.015  -1.596  53.968  1.00  0.00     0.012 Cl
HETATM   23  H8  UNL     1      20.687  -0.016  55.667  1.00  0.00     0.182 HD
ENDBRANCH  10  21
TORSDOF 3
ENDMDL
MODEL 7
REMARK VINA RESULT:      -7.4      2.395      3.221
REMARK  3 active torsions:
REMARK  status: ('A' for Active; 'I' for Inactive)
REMARK    1  A    between atoms: C1_2  and  O2_3 
REMARK    2  A    between atoms: C1_2  and  C2_4 
REMARK    3  A    between atoms: C10_13  and  N2_14 
ROOT
HETATM    1  C2  UNL     1      19.466  -0.584  53.177  1.00  0.00     0.038 A 
HETATM    2  C3  UNL     1      19.476   0.402  52.211  1.00  0.00     0.021 A 
HETATM    3  C4  UNL     1      20.642   1.108  51.999  1.00  0.00     0.039 A 
HETATM    4  C5  UNL     1      21.793   0.852  52.725  1.00  0.00     0.086 A 
HETATM    5  C6  UNL     1      21.742  -0.156  53.694  1.00  0.00    -0.006 A 
HETATM    6  C7  UNL     1      20.587  -0.876  53.924  1.00  0.00     0.029 A 
HETATM    7  C8  UNL     1      22.871  -0.570  54.568  1.00  0.00     0.161 C 
HETATM    8  N1  UNL     1      24.071  -0.866  53.786  1.00  0.00    -0.379 N 
HETATM    9  C9  UNL     1      24.773   0.083  52.976  1.00  0.00     0.129 A 
HETATM   10  C10 UNL     1      26.112  -0.190  52.835  1.00  0.00     0.170 A 
HETATM   11  N3  UNL     1      26.888   0.616  52.104  1.00  0.00    -0.221 NA
HETATM   12  C11 UNL     1      26.345   1.706  51.504  1.00  0.00     0.238 A 
HETATM   13  N4  UNL     1      25.032   1.978  51.640  1.00  0.00    -0.215 NA
HETATM   14  C12 UNL     1      24.203   1.202  52.362  1.00  0.00     0.202 A 
HETATM   15  O3  UNL     1      22.870   1.657  52.379  1.00  0.00    -0.289 OA
HETATM   16  H7  UNL     1      24.507  -1.813  53.767  1.00  0.00     0.160 HD
ENDROOT
BRANCH   1  17
HETATM   17  C1  UNL     1      18.311  -1.412  53.512  1.00  0.00     0.176 C 
HETATM   18  O1  UNL     1      18.286  -2.690  53.559  1.00  0.00    -0.646 OA
BRANCH  17  19
HETATM   19  O2  UNL     1      17.010  -1.078  53.851  1.00  0.00    -0.773 OA
HETATM   20  H1  UNL     1      16.750  -0.419  54.590  1.00  0.00     0.167 HD
ENDBRANCH  17  19
ENDBRANCH   1  17
BRANCH  10  21
HETATM   21  N2  UNL     1      26.607  -1.348  53.491  1.00  0.00    -0.281 N 
HETATM   22 CL1  UNL     1      28.332  -1.153  53.226  1.00  0.00     0.012 Cl
HETATM   23  H8  UNL     1      26.297  -2.184  54.021  1.00  0.00     0.182 HD
ENDBRANCH  10  21
TORSDOF 3
ENDMDL
MODEL 8
REMARK VINA RESULT:      -7.2      3.781      6.672
REMARK  3 active torsions:
REMARK  status: ('A' for Active; 'I' for Inactive)
REMARK    1  A    between atoms: C1_2  and  O2_3 
REMARK    2  A    between atoms: C1_2  and  C2_4 
REMARK    3  A    between atoms: C10_13  and  N2_14 
ROOT
HETATM    1  C2  UNL     1      28.023  -0.448  53.331  1.00  0.00     0.038 A 
HETATM    2  C3  UNL     1      27.150  -1.361  52.776  1.00  0.00     0.021 A 
HETATM    3  C4  UNL     1      25.814  -1.029  52.688  1.00  0.00     0.039 A 
HETATM    4  C5  UNL     1      25.333   0.189  53.138  1.00  0.00     0.086 A 
HETATM    5  C6  UNL     1      26.251   1.087  53.693  1.00  0.00    -0.006 A 
HETATM    6  C7  UNL     1      27.592   0.778  53.793  1.00  0.00     0.029 A 
HETATM    7  C8  UNL     1      25.922   2.435  54.228  1.00  0.00     0.161 C 
HETATM    8  N1  UNL     1      25.168   3.226  53.256  1.00  0.00    -0.379 N 
HETATM    9  C9  UNL     1      23.873   2.882  52.752  1.00  0.00     0.129 A 
HETATM   10  C10 UNL     1      23.121   3.965  52.368  1.00  0.00     0.170 A 
HETATM   11  N3  UNL     1      21.890   3.788  51.878  1.00  0.00    -0.221 NA
HETATM   12  C11 UNL     1      21.388   2.532  51.764  1.00  0.00     0.238 A 
HETATM   13  N4  UNL     1      22.123   1.466  52.140  1.00  0.00    -0.215 NA
HETATM   14  C12 UNL     1      23.366   1.584  52.638  1.00  0.00     0.202 A 
HETATM   15  O3  UNL     1      23.964   0.352  52.971  1.00  0.00    -0.289 OA
HETATM   16  H7  UNL     1      25.532   4.117  52.857  1.00  0.00     0.160 HD
ENDROOT
BRANCH   1  17
HETATM   17  C1  UNL     1      29.460  -0.656  53.490  1.00  0.00     0.176 C 
HETATM   18  O1  UNL     1      30.037  -1.766  53.753  1.00  0.00    -0.646 OA
BRANCH  17  19
HETATM   19  O2  UNL     1      30.529   0.222  53.408  1.00  0.00    -0.773 OA
HETATM   20  H1  UNL     1      31.487   0.003  53.695  1.00  0.00     0.167 HD
ENDBRANCH  17  19
ENDBRANCH   1  17
BRANCH  10  21
HETATM   21  N2  UNL     1      23.714   5.247  52.515  1.00  0.00    -0.281 N 
HETATM   22 CL1  UNL     1      24.065   5.631  50.838  1.00  0.00     0.012 Cl
HETATM   23  H8  UNL     1      23.975   5.951  53.231  1.00  0.00     0.182 HD
ENDBRANCH  10  21
TORSDOF 3
ENDMDL
MODEL 9
REMARK VINA RESULT:      -7.2      4.335      5.805
REMARK  3 active torsions:
REMARK  status: ('A' for Active; 'I' for Inactive)
REMARK    1  A    between atoms: C1_2  and  O2_3 
REMARK    2  A    between atoms: C1_2  and  C2_4 
REMARK    3  A    between atoms: C10_13  and  N2_14 
ROOT
HETATM    1  C2  UNL     1      25.300  -0.181  53.919  1.00  0.00     0.038 A 
HETATM    2  C3  UNL     1      26.644  -0.160  53.606  1.00  0.00     0.021 A 
HETATM    3  C4  UNL     1      27.057   0.573  52.514  1.00  0.00     0.039 A 
HETATM    4  C5  UNL     1      26.163   1.285  51.731  1.00  0.00     0.086 A 
HETATM    5  C6  UNL     1      24.809   1.239  52.082  1.00  0.00    -0.006 A 
HETATM    6  C7  UNL     1      24.372   0.512  53.171  1.00  0.00     0.029 A 
HETATM    7  C8  UNL     1      23.709   1.934  51.365  1.00  0.00     0.161 C 
HETATM    8  N1  UNL     1      24.000   3.357  51.189  1.00  0.00    -0.379 N 
HETATM    9  C9  UNL     1      25.099   3.878  50.436  1.00  0.00     0.129 A 
HETATM   10  C10 UNL     1      24.868   5.124  49.905  1.00  0.00     0.170 A 
HETATM   11  N3  UNL     1      25.812   5.729  49.178  1.00  0.00    -0.221 NA
HETATM   12  C11 UNL     1      26.999   5.105  48.967  1.00  0.00     0.238 A 
HETATM   13  N4  UNL     1      27.231   3.883  49.486  1.00  0.00    -0.215 NA
HETATM   14  C12 UNL     1      26.319   3.227  50.225  1.00  0.00     0.202 A 
HETATM   15  O3  UNL     1      26.754   1.964  50.674  1.00  0.00    -0.289 OA
HETATM   16  H7  UNL     1      23.409   4.105  51.610  1.00  0.00     0.160 HD
ENDROOT
BRANCH   1  17
HETATM   17  C1  UNL     1      24.715  -0.909  55.042  1.00  0.00     0.176 C 
HETATM   18  O1  UNL     1      23.484  -1.229  55.175  1.00  0.00    -0.646 OA
BRANCH  17  19
HETATM   19  O2  UNL     1      25.282  -1.423  56.197  1.00  0.00    -0.773 OA
HETATM   20  H1  UNL     1      25.363  -0.916  57.083  1.00  0.00     0.167 HD
ENDBRANCH  17  19
ENDBRANCH   1  17
BRANCH  10  21
HETATM   21  N2  UNL     1      23.604   5.713  50.170  1.00  0.00    -0.281 N 
HETATM   22 CL1  UNL     1      24.099   7.145  51.059  1.00  0.00     0.012 Cl
HETATM   23  H8  UNL     1      22.588   5.574  50.017  1.00  0.00     0.182 HD
ENDBRANCH  10  21
TORSDOF 3
ENDMDL
