MODEL 1
REMARK VINA RESULT:      -6.8      0.000      0.000
REMARK  4 active torsions:
REMARK  status: ('A' for Active; 'I' for Inactive)
REMARK    1  A    between atoms: N1_2  and  C2_3 
REMARK    2  A    between atoms: C2_3  and  N2_4 
REMARK    3  A    between atoms: C13_17  and  O1_18 
REMARK    4  A    between atoms: C15_20  and  O2_21 
ROOT
HETATM    1  C2  UNL     1      25.325   1.941  51.987  1.00  0.00     0.183 C 
HETATM    2  C11 UNL     1      24.845   2.835  53.010  1.00  0.00     0.149 C 
HETATM    3  N3  UNL     1      23.983   3.786  53.314  1.00  0.00    -0.270 NA
HETATM    4  C12 UNL     1      23.026   4.276  52.321  1.00  0.00     0.155 C 
HETATM    5  C13 UNL     1      22.506   3.529  51.322  1.00  0.00     0.118 C 
HETATM    6  C15 UNL     1      22.855   2.099  51.117  1.00  0.00     0.103 C 
HETATM    7  C17 UNL     1      23.983   1.461  51.383  1.00  0.00     0.074 C 
ENDROOT
BRANCH   1   8
HETATM    8  N1  UNL     1      25.864   2.428  50.779  1.00  0.00    -0.271 NA
HETATM    9  C1  UNL     1      26.148   3.608  50.457  1.00  0.00     0.146 C 
ENDBRANCH   1   8
BRANCH   1  10
HETATM   10  N2  UNL     1      25.835   0.679  52.491  1.00  0.00    -0.339 N 
HETATM   11  C3  UNL     1      25.763  -0.790  52.414  1.00  0.00     0.131 C 
HETATM   12  C4  UNL     1      26.826  -1.720  52.575  1.00  0.00     0.048 C 
HETATM   13  C5  UNL     1      28.219  -1.509  53.090  1.00  0.00    -0.006 C 
HETATM   14  C6  UNL     1      28.471  -0.428  53.785  1.00  0.00     0.003 C 
HETATM   15  C7  UNL     1      29.421   0.688  53.833  1.00  0.00     0.018 C 
HETATM   16  S1  UNL     1      27.124   0.232  55.005  1.00  0.00    -0.073 SA
HETATM   17  C8  UNL     1      28.999   1.994  53.783  1.00  0.00     0.004 C 
HETATM   18  C9  UNL     1      27.530   2.334  53.558  1.00  0.00     0.037 C 
HETATM   19  C10 UNL     1      26.722   1.303  53.421  1.00  0.00     0.075 C 
ENDBRANCH   1  10
BRANCH   6  20
HETATM   20  O2  UNL     1      21.831   1.306  50.552  1.00  0.00    -0.353 OA
HETATM   21  C16 UNL     1      21.173   0.276  51.225  1.00  0.00     0.210 C 
ENDBRANCH   6  20
BRANCH   5  22
HETATM   22  O1  UNL     1      21.613   4.031  50.417  1.00  0.00    -0.352 OA
HETATM   23  C14 UNL     1      20.371   4.561  50.833  1.00  0.00     0.210 C 
ENDBRANCH   5  22
TORSDOF 4
ENDMDL
MODEL 2
REMARK VINA RESULT:      -6.4      2.614      3.689
REMARK  4 active torsions:
REMARK  status: ('A' for Active; 'I' for Inactive)
REMARK    1  A    between atoms: N1_2  and  C2_3 
REMARK    2  A    between atoms: C2_3  and  N2_4 
REMARK    3  A    between atoms: C13_17  and  O1_18 
REMARK    4  A    between atoms: C15_20  and  O2_21 
ROOT
HETATM    1  C2  UNL     1      22.038   1.604  51.583  1.00  0.00     0.183 C 
HETATM    2  C11 UNL     1      21.452   2.769  52.195  1.00  0.00     0.149 C 
HETATM    3  N3  UNL     1      20.355   3.485  52.355  1.00  0.00    -0.270 NA
HETATM    4  C12 UNL     1      19.100   3.087  51.715  1.00  0.00     0.155 C 
HETATM    5  C13 UNL     1      18.744   1.811  51.451  1.00  0.00     0.118 C 
HETATM    6  C15 UNL     1      19.604   0.646  51.787  1.00  0.00     0.103 C 
HETATM    7  C17 UNL     1      20.923   0.561  51.841  1.00  0.00     0.074 C 
ENDROOT
BRANCH   1   8
HETATM    8  N1  UNL     1      22.067   1.445  50.183  1.00  0.00    -0.271 NA
HETATM    9  C1  UNL     1      21.700   2.244  49.288  1.00  0.00     0.146 C 
ENDBRANCH   1   8
BRANCH   1  10
HETATM   10  N2  UNL     1      23.116   1.007  52.351  1.00  0.00    -0.339 N 
HETATM   11  C3  UNL     1      23.549  -0.136  53.173  1.00  0.00     0.131 C 
HETATM   12  C4  UNL     1      24.846  -0.712  53.244  1.00  0.00     0.048 C 
HETATM   13  C5  UNL     1      26.155  -0.202  52.718  1.00  0.00    -0.006 C 
HETATM   14  C6  UNL     1      26.253   1.068  52.413  1.00  0.00     0.003 C 
HETATM   15  C7  UNL     1      26.683   1.934  51.310  1.00  0.00     0.018 C 
HETATM   16  S1  UNL     1      25.345   2.367  53.519  1.00  0.00    -0.073 SA
HETATM   17  C8  UNL     1      25.839   2.868  50.759  1.00  0.00     0.004 C 
HETATM   18  C9  UNL     1      24.382   2.961  51.196  1.00  0.00     0.037 C 
HETATM   19  C10 UNL     1      24.008   2.099  52.120  1.00  0.00     0.075 C 
ENDBRANCH   1  10
BRANCH   6  20
HETATM   20  O2  UNL     1      18.909  -0.545  52.090  1.00  0.00    -0.353 OA
HETATM   21  C16 UNL     1      18.710  -1.031  53.383  1.00  0.00     0.210 C 
ENDBRANCH   6  20
BRANCH   5  22
HETATM   22  O1  UNL     1      17.559   1.488  50.851  1.00  0.00    -0.352 OA
HETATM   23  C14 UNL     1      16.323   1.820  51.450  1.00  0.00     0.210 C 
ENDBRANCH   5  22
TORSDOF 4
ENDMDL
MODEL 3
REMARK VINA RESULT:      -6.4      2.217      3.038
REMARK  4 active torsions:
REMARK  status: ('A' for Active; 'I' for Inactive)
REMARK    1  A    between atoms: N1_2  and  C2_3 
REMARK    2  A    between atoms: C2_3  and  N2_4 
REMARK    3  A    between atoms: C13_17  and  O1_18 
REMARK    4  A    between atoms: C15_20  and  O2_21 
ROOT
HETATM    1  C2  UNL     1      22.868   2.849  51.382  1.00  0.00     0.183 C 
HETATM    2  C11 UNL     1      23.291   4.201  51.640  1.00  0.00     0.149 C 
HETATM    3  N3  UNL     1      23.005   5.482  51.498  1.00  0.00    -0.270 NA
HETATM    4  C12 UNL     1      21.781   5.906  50.818  1.00  0.00     0.155 C 
HETATM    5  C13 UNL     1      20.626   5.205  50.807  1.00  0.00     0.118 C 
HETATM    6  C15 UNL     1      20.467   3.899  51.500  1.00  0.00     0.103 C 
HETATM    7  C17 UNL     1      21.363   2.954  51.732  1.00  0.00     0.074 C 
ENDROOT
BRANCH   1   8
HETATM    8  N1  UNL     1      22.681   2.373  50.068  1.00  0.00    -0.271 NA
HETATM    9  C1  UNL     1      22.990   2.916  48.979  1.00  0.00     0.146 C 
ENDBRANCH   1   8
BRANCH   1  10
HETATM   10  N2  UNL     1      23.288   1.891  52.391  1.00  0.00    -0.339 N 
HETATM   11  C3  UNL     1      22.867   0.852  53.344  1.00  0.00     0.131 C 
HETATM   12  C4  UNL     1      23.576  -0.323  53.717  1.00  0.00     0.048 C 
HETATM   13  C5  UNL     1      25.001  -0.711  53.452  1.00  0.00    -0.006 C 
HETATM   14  C6  UNL     1      25.850   0.226  53.108  1.00  0.00     0.003 C 
HETATM   15  C7  UNL     1      26.849   0.519  52.076  1.00  0.00     0.018 C 
HETATM   16  S1  UNL     1      25.699   1.970  53.928  1.00  0.00    -0.073 SA
HETATM   17  C8  UNL     1      26.780   1.659  51.311  1.00  0.00     0.004 C 
HETATM   18  C9  UNL     1      25.593   2.608  51.426  1.00  0.00     0.037 C 
HETATM   19  C10 UNL     1      24.666   2.258  52.295  1.00  0.00     0.075 C 
ENDBRANCH   1  10
BRANCH   6  20
HETATM   20  O2  UNL     1      19.166   3.628  51.977  1.00  0.00    -0.353 OA
HETATM   21  C16 UNL     1      18.386   2.548  51.562  1.00  0.00     0.210 C 
ENDBRANCH   6  20
BRANCH   5  22
HETATM   22  O1  UNL     1      19.507   5.642  50.157  1.00  0.00    -0.352 OA
HETATM   23  C14 UNL     1      19.539   6.798  49.342  1.00  0.00     0.210 C 
ENDBRANCH   5  22
TORSDOF 4
ENDMDL
MODEL 4
REMARK VINA RESULT:      -6.3      3.020      6.306
REMARK  4 active torsions:
REMARK  status: ('A' for Active; 'I' for Inactive)
REMARK    1  A    between atoms: N1_2  and  C2_3 
REMARK    2  A    between atoms: C2_3  and  N2_4 
REMARK    3  A    between atoms: C13_17  and  O1_18 
REMARK    4  A    between atoms: C15_20  and  O2_21 
ROOT
HETATM    1  C2  UNL     1      23.780   1.758  52.151  1.00  0.00     0.183 C 
HETATM    2  C11 UNL     1      24.965   1.719  51.332  1.00  0.00     0.149 C 
HETATM    3  N3  UNL     1      26.280   1.613  51.316  1.00  0.00    -0.270 NA
HETATM    4  C12 UNL     1      27.035   1.467  52.561  1.00  0.00     0.155 C 
HETATM    5  C13 UNL     1      26.570   0.860  53.675  1.00  0.00     0.118 C 
HETATM    6  C15 UNL     1      25.212   0.262  53.762  1.00  0.00     0.103 C 
HETATM    7  C17 UNL     1      24.093   0.620  53.152  1.00  0.00     0.074 C 
ENDROOT
BRANCH   1   8
HETATM    8  N1  UNL     1      23.592   2.762  53.124  1.00  0.00    -0.271 NA
HETATM    9  C1  UNL     1      24.215   3.840  53.279  1.00  0.00     0.146 C 
ENDBRANCH   1   8
BRANCH   1  10
HETATM   10  N2  UNL     1      22.597   1.208  51.514  1.00  0.00    -0.339 N 
HETATM   11  C3  UNL     1      21.522   0.205  51.584  1.00  0.00     0.131 C 
HETATM   12  C4  UNL     1      20.178   0.340  51.142  1.00  0.00     0.048 C 
HETATM   13  C5  UNL     1      19.548   1.402  50.292  1.00  0.00    -0.006 C 
HETATM   14  C6  UNL     1      20.328   2.170  49.571  1.00  0.00     0.003 C 
HETATM   15  C7  UNL     1      20.575   3.589  49.300  1.00  0.00     0.018 C 
HETATM   16  S1  UNL     1      21.896   1.397  48.747  1.00  0.00    -0.073 SA
HETATM   17  C8  UNL     1      21.817   4.150  49.476  1.00  0.00     0.004 C 
HETATM   18  C9  UNL     1      22.962   3.341  50.074  1.00  0.00     0.037 C 
HETATM   19  C10 UNL     1      22.673   2.097  50.398  1.00  0.00     0.075 C 
ENDBRANCH   1  10
BRANCH   6  20
HETATM   20  O2  UNL     1      25.100  -0.850  54.625  1.00  0.00    -0.353 OA
HETATM   21  C16 UNL     1      23.954  -1.165  55.357  1.00  0.00     0.210 C 
ENDBRANCH   6  20
BRANCH   5  22
HETATM   22  O1  UNL     1      27.313   0.748  54.816  1.00  0.00    -0.352 OA
HETATM   23  C14 UNL     1      28.582   0.124  54.803  1.00  0.00     0.210 C 
ENDBRANCH   5  22
TORSDOF 4
ENDMDL
MODEL 5
REMARK VINA RESULT:      -6.2      2.288      3.818
REMARK  4 active torsions:
REMARK  status: ('A' for Active; 'I' for Inactive)
REMARK    1  A    between atoms: N1_2  and  C2_3 
REMARK    2  A    between atoms: C2_3  and  N2_4 
REMARK    3  A    between atoms: C13_17  and  O1_18 
REMARK    4  A    between atoms: C15_20  and  O2_21 
ROOT
HETATM    1  C2  UNL     1      24.662   2.861  51.558  1.00  0.00     0.183 C 
HETATM    2  C11 UNL     1      23.859   2.085  50.648  1.00  0.00     0.149 C 
HETATM    3  N3  UNL     1      23.044   2.116  49.610  1.00  0.00    -0.270 NA
HETATM    4  C12 UNL     1      22.685   3.385  48.977  1.00  0.00     0.155 C 
HETATM    5  C13 UNL     1      23.485   4.472  48.926  1.00  0.00     0.118 C 
HETATM    6  C15 UNL     1      24.849   4.500  49.519  1.00  0.00     0.103 C 
HETATM    7  C17 UNL     1      25.322   3.855  50.572  1.00  0.00     0.074 C 
ENDROOT
BRANCH   1   8
HETATM    8  N1  UNL     1      24.088   3.841  52.394  1.00  0.00    -0.271 NA
HETATM    9  C1  UNL     1      22.877   4.120  52.570  1.00  0.00     0.146 C 
ENDBRANCH   1   8
BRANCH   1  10
HETATM   10  N2  UNL     1      25.845   2.172  52.043  1.00  0.00    -0.339 N 
HETATM   11  C3  UNL     1      27.291   2.257  52.304  1.00  0.00     0.131 C 
HETATM   12  C4  UNL     1      28.021   1.642  53.357  1.00  0.00     0.048 C 
HETATM   13  C5  UNL     1      27.599   0.576  54.325  1.00  0.00    -0.006 C 
HETATM   14  C6  UNL     1      26.546  -0.148  54.037  1.00  0.00     0.003 C 
HETATM   15  C7  UNL     1      25.283  -0.591  54.634  1.00  0.00     0.018 C 
HETATM   16  S1  UNL     1      26.239  -0.657  52.197  1.00  0.00    -0.073 SA
HETATM   17  C8  UNL     1      24.075  -0.350  54.024  1.00  0.00     0.004 C 
HETATM   18  C9  UNL     1      23.994   0.493  52.756  1.00  0.00     0.037 C 
HETATM   19  C10 UNL     1      25.141   0.956  52.305  1.00  0.00     0.075 C 
ENDBRANCH   1  10
BRANCH   6  20
HETATM   20  O2  UNL     1      25.772   5.341  48.860  1.00  0.00    -0.353 OA
HETATM   21  C16 UNL     1      27.138   5.074  48.749  1.00  0.00     0.210 C 
ENDBRANCH   6  20
BRANCH   5  22
HETATM   22  O1  UNL     1      23.105   5.638  48.322  1.00  0.00    -0.352 OA
HETATM   23  C14 UNL     1      22.596   5.645  47.004  1.00  0.00     0.210 C 
ENDBRANCH   5  22
TORSDOF 4
ENDMDL
MODEL 6
REMARK VINA RESULT:      -6.1      3.292      5.713
REMARK  4 active torsions:
REMARK  status: ('A' for Active; 'I' for Inactive)
REMARK    1  A    between atoms: N1_2  and  C2_3 
REMARK    2  A    between atoms: C2_3  and  N2_4 
REMARK    3  A    between atoms: C13_17  and  O1_18 
REMARK    4  A    between atoms: C15_20  and  O2_21 
ROOT
HETATM    1  C2  UNL     1      23.044   2.566  50.720  1.00  0.00     0.183 C 
HETATM    2  C11 UNL     1      22.097   3.118  51.654  1.00  0.00     0.149 C 
HETATM    3  N3  UNL     1      21.167   2.854  52.553  1.00  0.00    -0.270 NA
HETATM    4  C12 UNL     1      20.804   1.473  52.872  1.00  0.00     0.155 C 
HETATM    5  C13 UNL     1      21.651   0.422  52.810  1.00  0.00     0.118 C 
HETATM    6  C15 UNL     1      23.074   0.555  52.403  1.00  0.00     0.103 C 
HETATM    7  C17 UNL     1      23.635   1.413  51.566  1.00  0.00     0.074 C 
ENDROOT
BRANCH   1   8
HETATM    8  N1  UNL     1      22.628   1.760  49.641  1.00  0.00    -0.271 NA
HETATM    9  C1  UNL     1      21.466   1.523  49.232  1.00  0.00     0.146 C 
ENDBRANCH   1   8
BRANCH   1  10
HETATM   10  N2  UNL     1      24.237   3.374  50.535  1.00  0.00    -0.339 N 
HETATM   11  C3  UNL     1      25.709   3.408  50.561  1.00  0.00     0.131 C 
HETATM   12  C4  UNL     1      26.574   4.166  49.726  1.00  0.00     0.048 C 
HETATM   13  C5  UNL     1      26.259   5.288  48.781  1.00  0.00    -0.006 C 
HETATM   14  C6  UNL     1      25.115   5.912  48.912  1.00  0.00     0.003 C 
HETATM   15  C7  UNL     1      23.957   6.326  48.114  1.00  0.00     0.018 C 
HETATM   16  S1  UNL     1      24.419   6.224  50.689  1.00  0.00    -0.073 SA
HETATM   17  C8  UNL     1      22.679   5.950  48.451  1.00  0.00     0.004 C 
HETATM   18  C9  UNL     1      22.426   4.988  49.605  1.00  0.00     0.037 C 
HETATM   19  C10 UNL     1      23.500   4.560  50.237  1.00  0.00     0.075 C 
ENDBRANCH   1  10
BRANCH   6  20
HETATM   20  O2  UNL     1      23.957  -0.375  52.995  1.00  0.00    -0.353 OA
HETATM   21  C16 UNL     1      24.921  -0.045  53.950  1.00  0.00     0.210 C 
ENDBRANCH   6  20
BRANCH   5  22
HETATM   22  O1  UNL     1      21.265  -0.852  53.118  1.00  0.00    -0.352 OA
HETATM   23  C14 UNL     1      21.022  -1.239  54.456  1.00  0.00     0.210 C 
ENDBRANCH   5  22
TORSDOF 4
ENDMDL
MODEL 7
REMARK VINA RESULT:      -5.9      3.742      6.051
REMARK  4 active torsions:
REMARK  status: ('A' for Active; 'I' for Inactive)
REMARK    1  A    between atoms: N1_2  and  C2_3 
REMARK    2  A    between atoms: C2_3  and  N2_4 
REMARK    3  A    between atoms: C13_17  and  O1_18 
REMARK    4  A    between atoms: C15_20  and  O2_21 
ROOT
HETATM    1  C2  UNL     1      22.911   3.832  51.181  1.00  0.00     0.183 C 
HETATM    2  C11 UNL     1      22.815   2.833  50.147  1.00  0.00     0.149 C 
HETATM    3  N3  UNL     1      22.344   1.647  49.813  1.00  0.00    -0.270 NA
HETATM    4  C12 UNL     1      21.565   0.855  50.766  1.00  0.00     0.155 C 
HETATM    5  C13 UNL     1      20.774   1.374  51.732  1.00  0.00     0.118 C 
HETATM    6  C15 UNL     1      20.605   2.837  51.937  1.00  0.00     0.103 C 
HETATM    7  C17 UNL     1      21.459   3.823  51.716  1.00  0.00     0.074 C 
ENDROOT
BRANCH   1   8
HETATM    8  N1  UNL     1      23.527   3.552  52.418  1.00  0.00    -0.271 NA
HETATM    9  C1  UNL     1      24.256   2.582  52.737  1.00  0.00     0.146 C 
ENDBRANCH   1   8
BRANCH   1  10
HETATM   10  N2  UNL     1      22.984   5.195  50.686  1.00  0.00    -0.339 N 
HETATM   11  C3  UNL     1      22.473   6.571  50.807  1.00  0.00     0.131 C 
HETATM   12  C4  UNL     1      23.191   7.783  50.619  1.00  0.00     0.048 C 
HETATM   13  C5  UNL     1      24.551   8.014  50.030  1.00  0.00    -0.006 C 
HETATM   14  C6  UNL     1      25.081   7.069  49.294  1.00  0.00     0.003 C 
HETATM   15  C7  UNL     1      26.322   6.298  49.169  1.00  0.00     0.018 C 
HETATM   16  S1  UNL     1      23.934   6.042  48.125  1.00  0.00    -0.073 SA
HETATM   17  C8  UNL     1      26.322   4.924  49.204  1.00  0.00     0.004 C 
HETATM   18  C9  UNL     1      25.041   4.149  49.492  1.00  0.00     0.037 C 
HETATM   19  C10 UNL     1      23.966   4.882  49.697  1.00  0.00     0.075 C 
ENDBRANCH   1  10
BRANCH   6  20
HETATM   20  O2  UNL     1      19.347   3.229  52.445  1.00  0.00    -0.353 OA
HETATM   21  C16 UNL     1      18.227   3.489  51.653  1.00  0.00     0.210 C 
ENDBRANCH   6  20
BRANCH   5  22
HETATM   22  O1  UNL     1      20.065   0.593  52.600  1.00  0.00    -0.352 OA
HETATM   23  C14 UNL     1      20.579   0.266  53.876  1.00  0.00     0.210 C 
ENDBRANCH   5  22
TORSDOF 4
ENDMDL
MODEL 8
REMARK VINA RESULT:      -5.8      4.332      5.886
REMARK  4 active torsions:
REMARK  status: ('A' for Active; 'I' for Inactive)
REMARK    1  A    between atoms: N1_2  and  C2_3 
REMARK    2  A    between atoms: C2_3  and  N2_4 
REMARK    3  A    between atoms: C13_17  and  O1_18 
REMARK    4  A    between atoms: C15_20  and  O2_21 
ROOT
HETATM    1  C2  UNL     1      21.224   1.929  51.924  1.00  0.00     0.183 C 
HETATM    2  C11 UNL     1      21.847   0.922  52.744  1.00  0.00     0.149 C 
HETATM    3  N3  UNL     1      21.654  -0.092  53.566  1.00  0.00    -0.270 NA
HETATM    4  C12 UNL     1      20.301  -0.526  53.915  1.00  0.00     0.155 C 
HETATM    5  C13 UNL     1      19.227  -0.423  53.102  1.00  0.00     0.118 C 
HETATM    6  C15 UNL     1      19.302   0.154  51.734  1.00  0.00     0.103 C 
HETATM    7  C17 UNL     1      20.102   1.096  51.260  1.00  0.00     0.074 C 
ENDROOT
BRANCH   1   8
HETATM    8  N1  UNL     1      20.373   2.906  52.480  1.00  0.00    -0.271 NA
HETATM    9  C1  UNL     1      19.456   3.562  51.930  1.00  0.00     0.146 C 
ENDBRANCH   1   8
BRANCH   1  10
HETATM   10  N2  UNL     1      21.990   2.295  50.746  1.00  0.00    -0.339 N 
HETATM   11  C3  UNL     1      22.116   2.183  49.283  1.00  0.00     0.131 C 
HETATM   12  C4  UNL     1      22.598   3.165  48.376  1.00  0.00     0.048 C 
HETATM   13  C5  UNL     1      23.316   4.454  48.645  1.00  0.00    -0.006 C 
HETATM   14  C6  UNL     1      23.880   4.622  49.816  1.00  0.00     0.003 C 
HETATM   15  C7  UNL     1      23.932   5.591  50.915  1.00  0.00     0.018 C 
HETATM   16  S1  UNL     1      24.731   3.110  50.668  1.00  0.00    -0.073 SA
HETATM   17  C8  UNL     1      23.618   5.234  52.204  1.00  0.00     0.004 C 
HETATM   18  C9  UNL     1      23.088   3.841  52.523  1.00  0.00     0.037 C 
HETATM   19  C10 UNL     1      22.962   3.030  51.493  1.00  0.00     0.075 C 
ENDBRANCH   1  10
BRANCH   6  20
HETATM   20  O2  UNL     1      18.382  -0.381  50.806  1.00  0.00    -0.353 OA
HETATM   21  C16 UNL     1      17.445   0.378  50.102  1.00  0.00     0.210 C 
ENDBRANCH   6  20
BRANCH   5  22
HETATM   22  O1  UNL     1      17.981  -0.843  53.473  1.00  0.00    -0.352 OA
HETATM   23  C14 UNL     1      17.675  -2.219  53.578  1.00  0.00     0.210 C 
ENDBRANCH   5  22
TORSDOF 4
ENDMDL
MODEL 9
REMARK VINA RESULT:      -5.7      3.788      5.546
REMARK  4 active torsions:
REMARK  status: ('A' for Active; 'I' for Inactive)
REMARK    1  A    between atoms: N1_2  and  C2_3 
REMARK    2  A    between atoms: C2_3  and  N2_4 
REMARK    3  A    between atoms: C13_17  and  O1_18 
REMARK    4  A    between atoms: C15_20  and  O2_21 
ROOT
HETATM    1  C2  UNL     1      23.909   4.095  50.039  1.00  0.00     0.183 C 
HETATM    2  C11 UNL     1      23.881   5.123  51.047  1.00  0.00     0.149 C 
HETATM    3  N3  UNL     1      24.252   6.348  51.371  1.00  0.00    -0.270 NA
HETATM    4  C12 UNL     1      25.030   7.166  50.439  1.00  0.00     0.155 C 
HETATM    5  C13 UNL     1      24.949   7.084  49.093  1.00  0.00     0.118 C 
HETATM    6  C15 UNL     1      24.043   6.134  48.394  1.00  0.00     0.103 C 
HETATM    7  C17 UNL     1      23.625   4.937  48.772  1.00  0.00     0.074 C 
ENDROOT
BRANCH   1   8
HETATM    8  N1  UNL     1      25.124   3.546  49.582  1.00  0.00    -0.271 NA
HETATM    9  C1  UNL     1      26.281   3.685  50.049  1.00  0.00     0.146 C 
ENDBRANCH   1   8
BRANCH   1  10
HETATM   10  N2  UNL     1      22.737   3.236  50.032  1.00  0.00    -0.339 N 
HETATM   11  C3  UNL     1      21.638   2.670  49.233  1.00  0.00     0.131 C 
HETATM   12  C4  UNL     1      21.044   1.385  49.361  1.00  0.00     0.048 C 
HETATM   13  C5  UNL     1      21.185   0.365  50.452  1.00  0.00    -0.006 C 
HETATM   14  C6  UNL     1      21.651   0.753  51.614  1.00  0.00     0.003 C 
HETATM   15  C7  UNL     1      22.678   0.392  52.595  1.00  0.00     0.018 C 
HETATM   16  S1  UNL     1      21.145   2.493  52.289  1.00  0.00    -0.073 SA
HETATM   17  C8  UNL     1      23.627   1.296  53.008  1.00  0.00     0.004 C 
HETATM   18  C9  UNL     1      23.720   2.678  52.372  1.00  0.00     0.037 C 
HETATM   19  C10 UNL     1      22.841   2.929  51.424  1.00  0.00     0.075 C 
ENDBRANCH   1  10
BRANCH   6  20
HETATM   20  O2  UNL     1      23.561   6.576  47.142  1.00  0.00    -0.353 OA
HETATM   21  C16 UNL     1      22.230   6.478  46.734  1.00  0.00     0.210 C 
ENDBRANCH   6  20
BRANCH   5  22
HETATM   22  O1  UNL     1      25.697   7.870  48.262  1.00  0.00    -0.352 OA
HETATM   23  C14 UNL     1      26.966   7.449  47.803  1.00  0.00     0.210 C 
ENDBRANCH   5  22
TORSDOF 4
ENDMDL
