MODEL 1
REMARK VINA RESULT:      -8.1      0.000      0.000
REMARK  4 active torsions:
REMARK  status: ('A' for Active; 'I' for Inactive)
REMARK    1  A    between atoms: C3_4  and  C4_5 
REMARK       I    between atoms: C4_5  and  N2_7 
REMARK    2  A    between atoms: N2_7  and  C5_8 
REMARK    3  A    between atoms: C8_11  and  N3_12 
REMARK    4  A    between atoms: N3_12  and  C9_13 
ROOT
HETATM    1  N1  UNL     1      29.154   7.461  47.354  1.00  0.00    -0.192 NA
HETATM    2  C1  UNL     1      28.659   6.531  47.838  1.00  0.00     0.088 C 
HETATM    3  C2  UNL     1      28.017   5.373  48.437  1.00  0.00     0.099 C 
HETATM    4  C3  UNL     1      26.739   5.367  48.783  1.00  0.00     0.085 C 
ENDROOT
BRANCH   4   5
HETATM    5  C4  UNL     1      26.058   4.215  49.391  1.00  0.00     0.247 C 
HETATM    6  O1  UNL     1      26.664   3.123  49.445  1.00  0.00    -0.268 OA
HETATM    7  N2  UNL     1      24.744   4.432  49.877  1.00  0.00    -0.308 N 
HETATM    8  H3  UNL     1      24.195   5.309  49.860  1.00  0.00     0.170 HD
BRANCH   7   9
HETATM    9  C5  UNL     1      24.108   3.301  50.458  1.00  0.00     0.131 A 
HETATM   10  C6  UNL     1      24.492   2.640  51.579  1.00  0.00     0.068 A 
HETATM   11  C7  UNL     1      23.834   1.560  52.081  1.00  0.00     0.044 A 
HETATM   12  C8  UNL     1      24.199   0.872  53.213  1.00  0.00     0.142 A 
HETATM   13  C16 UNL     1      22.729   1.175  51.362  1.00  0.00     0.089 A 
HETATM   14  N4  UNL     1      23.402  -0.157  53.516  1.00  0.00    -0.224 NA
HETATM   15  C15 UNL     1      22.331  -0.564  52.854  1.00  0.00     0.236 A 
HETATM   16  N5  UNL     1      22.004   0.118  51.769  1.00  0.00    -0.240 NA
HETATM   17  C17 UNL     1      22.299   1.811  50.221  1.00  0.00     0.151 A 
HETATM   18  N6  UNL     1      23.011   2.886  49.779  1.00  0.00    -0.241 NA
BRANCH  12  19
HETATM   19  N3  UNL     1      25.338   1.279  53.935  1.00  0.00    -0.340 N 
HETATM   20  H5  UNL     1      25.263   1.929  54.740  1.00  0.00     0.167 HD
BRANCH  19  21
HETATM   21  C9  UNL     1      26.709   0.950  53.771  1.00  0.00     0.035 A 
HETATM   22  C10 UNL     1      27.776   1.842  53.773  1.00  0.00     0.029 A 
HETATM   23  C11 UNL     1      29.072   1.438  53.610  1.00  0.00     0.004 A 
HETATM   24  C12 UNL     1      29.410   0.133  53.436  1.00  0.00     0.019 A 
HETATM   25  C13 UNL     1      28.378  -0.777  53.429  1.00  0.00     0.013 A 
HETATM   26 BR1  UNL     1      28.894  -2.610  53.179  1.00  0.00    -0.051 Br
HETATM   27  C14 UNL     1      27.074  -0.365  53.593  1.00  0.00     0.048 A 
ENDBRANCH  19  21
ENDBRANCH  12  19
ENDBRANCH   7   9
ENDBRANCH   4   5
TORSDOF 4
ENDMDL
MODEL 2
REMARK VINA RESULT:      -7.8      3.900      4.887
REMARK  4 active torsions:
REMARK  status: ('A' for Active; 'I' for Inactive)
REMARK    1  A    between atoms: C3_4  and  C4_5 
REMARK       I    between atoms: C4_5  and  N2_7 
REMARK    2  A    between atoms: N2_7  and  C5_8 
REMARK    3  A    between atoms: C8_11  and  N3_12 
REMARK    4  A    between atoms: N3_12  and  C9_13 
ROOT
HETATM    1  N1  UNL     1      18.744   5.153  46.670  1.00  0.00    -0.192 NA
HETATM    2  C1  UNL     1      19.209   4.541  47.537  1.00  0.00     0.088 C 
HETATM    3  C2  UNL     1      19.771   3.770  48.635  1.00  0.00     0.099 C 
HETATM    4  C3  UNL     1      19.169   3.659  49.808  1.00  0.00     0.085 C 
ENDROOT
BRANCH   4   5
HETATM    5  C4  UNL     1      19.707   2.889  50.938  1.00  0.00     0.247 C 
HETATM    6  O1  UNL     1      19.702   3.412  52.074  1.00  0.00    -0.268 OA
HETATM    7  N2  UNL     1      20.201   1.591  50.652  1.00  0.00    -0.308 N 
HETATM    8  H3  UNL     1      20.230   1.108  49.737  1.00  0.00     0.170 HD
BRANCH   7   9
HETATM    9  C5  UNL     1      20.715   0.869  51.763  1.00  0.00     0.131 A 
HETATM   10  C6  UNL     1      22.022   0.706  52.091  1.00  0.00     0.068 A 
HETATM   11  C7  UNL     1      22.445  -0.003  53.173  1.00  0.00     0.044 A 
HETATM   12  C8  UNL     1      23.760  -0.183  53.530  1.00  0.00     0.142 A 
HETATM   13  C16 UNL     1      21.440  -0.554  53.929  1.00  0.00     0.089 A 
HETATM   14  N4  UNL     1      23.938  -0.917  54.633  1.00  0.00    -0.224 NA
HETATM   15  C15 UNL     1      23.003  -1.467  55.390  1.00  0.00     0.236 A 
HETATM   16  N5  UNL     1      21.746  -1.276  55.022  1.00  0.00    -0.240 NA
HETATM   17  C17 UNL     1      20.102  -0.418  53.639  1.00  0.00     0.151 A 
HETATM   18  N6  UNL     1      19.756   0.306  52.537  1.00  0.00    -0.241 NA
BRANCH  12  19
HETATM   19  N3  UNL     1      24.777   0.386  52.740  1.00  0.00    -0.340 N 
HETATM   20  H5  UNL     1      24.617   0.623  51.742  1.00  0.00     0.167 HD
BRANCH  19  21
HETATM   21  C9  UNL     1      26.114   0.740  53.059  1.00  0.00     0.035 A 
HETATM   22  C10 UNL     1      26.580   2.018  53.353  1.00  0.00     0.029 A 
HETATM   23  C11 UNL     1      27.890   2.271  53.653  1.00  0.00     0.004 A 
HETATM   24  C12 UNL     1      28.830   1.291  53.689  1.00  0.00     0.019 A 
HETATM   25  C13 UNL     1      28.403   0.014  53.404  1.00  0.00     0.013 A 
HETATM   26 BR1  UNL     1      29.760  -1.344  53.463  1.00  0.00    -0.051 Br
HETATM   27  C14 UNL     1      27.083  -0.237  53.101  1.00  0.00     0.048 A 
ENDBRANCH  19  21
ENDBRANCH  12  19
ENDBRANCH   7   9
ENDBRANCH   4   5
TORSDOF 4
ENDMDL
MODEL 3
REMARK VINA RESULT:      -7.6      3.152      6.341
REMARK  4 active torsions:
REMARK  status: ('A' for Active; 'I' for Inactive)
REMARK    1  A    between atoms: C3_4  and  C4_5 
REMARK       I    between atoms: C4_5  and  N2_7 
REMARK    2  A    between atoms: N2_7  and  C5_8 
REMARK    3  A    between atoms: C8_11  and  N3_12 
REMARK    4  A    between atoms: N3_12  and  C9_13 
ROOT
HETATM    1  N1  UNL     1      35.070   3.136  45.986  1.00  0.00    -0.192 NA
HETATM    2  C1  UNL     1      34.058   3.556  46.363  1.00  0.00     0.088 C 
HETATM    3  C2  UNL     1      32.799   4.099  46.848  1.00  0.00     0.099 C 
HETATM    4  C3  UNL     1      32.721   4.856  47.931  1.00  0.00     0.085 C 
ENDROOT
BRANCH   4   5
HETATM    5  C4  UNL     1      31.468   5.422  48.449  1.00  0.00     0.247 C 
HETATM    6  O1  UNL     1      31.371   5.636  49.677  1.00  0.00    -0.268 OA
HETATM    7  N2  UNL     1      30.445   5.687  47.504  1.00  0.00    -0.308 N 
HETATM    8  H3  UNL     1      30.468   5.533  46.481  1.00  0.00     0.170 HD
BRANCH   7   9
HETATM    9  C5  UNL     1      29.244   6.234  48.031  1.00  0.00     0.131 A 
HETATM   10  C6  UNL     1      28.151   5.544  48.445  1.00  0.00     0.068 A 
HETATM   11  C7  UNL     1      27.030   6.135  48.941  1.00  0.00     0.044 A 
HETATM   12  C8  UNL     1      25.910   5.463  49.368  1.00  0.00     0.142 A 
HETATM   13  C16 UNL     1      27.079   7.507  48.997  1.00  0.00     0.089 A 
HETATM   14  N4  UNL     1      24.930   6.252  49.817  1.00  0.00    -0.224 NA
HETATM   15  C15 UNL     1      24.932   7.573  49.889  1.00  0.00     0.236 A 
HETATM   16  N5  UNL     1      26.024   8.193  49.471  1.00  0.00    -0.240 NA
HETATM   17  C17 UNL     1      28.162   8.251  48.591  1.00  0.00     0.151 A 
HETATM   18  N6  UNL     1      29.249   7.587  48.104  1.00  0.00    -0.241 NA
BRANCH  12  19
HETATM   19  N3  UNL     1      25.877   4.057  49.299  1.00  0.00    -0.340 N 
HETATM   20  H5  UNL     1      26.114   3.554  48.423  1.00  0.00     0.167 HD
BRANCH  19  21
HETATM   21  C9  UNL     1      25.552   3.086  50.282  1.00  0.00     0.035 A 
HETATM   22  C10 UNL     1      24.279   2.613  50.584  1.00  0.00     0.029 A 
HETATM   23  C11 UNL     1      24.055   1.670  51.549  1.00  0.00     0.004 A 
HETATM   24  C12 UNL     1      25.062   1.127  52.281  1.00  0.00     0.019 A 
HETATM   25  C13 UNL     1      26.336   1.571  52.008  1.00  0.00     0.013 A 
HETATM   26 BR1  UNL     1      27.732   0.780  53.063  1.00  0.00    -0.051 Br
HETATM   27  C14 UNL     1      26.557   2.521  51.035  1.00  0.00     0.048 A 
ENDBRANCH  19  21
ENDBRANCH  12  19
ENDBRANCH   7   9
ENDBRANCH   4   5
TORSDOF 4
ENDMDL
MODEL 4
REMARK VINA RESULT:      -7.5      2.577      3.005
REMARK  4 active torsions:
REMARK  status: ('A' for Active; 'I' for Inactive)
REMARK    1  A    between atoms: C3_4  and  C4_5 
REMARK       I    between atoms: C4_5  and  N2_7 
REMARK    2  A    between atoms: N2_7  and  C5_8 
REMARK    3  A    between atoms: C8_11  and  N3_12 
REMARK    4  A    between atoms: N3_12  and  C9_13 
ROOT
HETATM    1  N1  UNL     1      27.287  10.228  49.677  1.00  0.00    -0.192 NA
HETATM    2  C1  UNL     1      26.471   9.405  49.711  1.00  0.00     0.088 C 
HETATM    3  C2  UNL     1      25.457   8.365  49.775  1.00  0.00     0.099 C 
HETATM    4  C3  UNL     1      25.630   7.243  50.455  1.00  0.00     0.085 C 
ENDROOT
BRANCH   4   5
HETATM    5  C4  UNL     1      24.628   6.171  50.542  1.00  0.00     0.247 C 
HETATM    6  O1  UNL     1      24.241   5.629  49.484  1.00  0.00    -0.268 OA
HETATM    7  N2  UNL     1      24.168   5.827  51.837  1.00  0.00    -0.308 N 
HETATM    8  H3  UNL     1      24.452   6.238  52.744  1.00  0.00     0.170 HD
BRANCH   7   9
HETATM    9  C5  UNL     1      23.200   4.788  51.892  1.00  0.00     0.131 A 
HETATM   10  C6  UNL     1      23.440   3.453  51.907  1.00  0.00     0.068 A 
HETATM   11  C7  UNL     1      22.460   2.511  51.959  1.00  0.00     0.044 A 
HETATM   12  C8  UNL     1      22.674   1.153  51.977  1.00  0.00     0.142 A 
HETATM   13  C16 UNL     1      21.182   3.012  51.997  1.00  0.00     0.089 A 
HETATM   14  N4  UNL     1      21.558   0.419  52.030  1.00  0.00    -0.224 NA
HETATM   15  C15 UNL     1      20.310   0.856  52.067  1.00  0.00     0.236 A 
HETATM   16  N5  UNL     1      20.135   2.168  52.049  1.00  0.00    -0.240 NA
HETATM   17  C17 UNL     1      20.886   4.355  51.983  1.00  0.00     0.151 A 
HETATM   18  N6  UNL     1      21.922   5.239  51.929  1.00  0.00    -0.241 NA
BRANCH  12  19
HETATM   19  N3  UNL     1      23.991   0.658  51.934  1.00  0.00    -0.340 N 
HETATM   20  H5  UNL     1      24.427   0.361  51.040  1.00  0.00     0.167 HD
BRANCH  19  21
HETATM   21  C9  UNL     1      24.944   0.462  52.966  1.00  0.00     0.035 A 
HETATM   22  C10 UNL     1      24.809  -0.385  54.062  1.00  0.00     0.029 A 
HETATM   23  C11 UNL     1      25.782  -0.516  55.015  1.00  0.00     0.004 A 
HETATM   24  C12 UNL     1      26.953   0.171  54.956  1.00  0.00     0.019 A 
HETATM   25  C13 UNL     1      27.121   1.018  53.884  1.00  0.00     0.013 A 
HETATM   26 BR1  UNL     1      28.787   1.972  53.837  1.00  0.00    -0.051 Br
HETATM   27  C14 UNL     1      26.138   1.147  52.928  1.00  0.00     0.048 A 
ENDBRANCH  19  21
ENDBRANCH  12  19
ENDBRANCH   7   9
ENDBRANCH   4   5
TORSDOF 4
ENDMDL
MODEL 5
REMARK VINA RESULT:      -7.5      4.168      6.734
REMARK  4 active torsions:
REMARK  status: ('A' for Active; 'I' for Inactive)
REMARK    1  A    between atoms: C3_4  and  C4_5 
REMARK       I    between atoms: C4_5  and  N2_7 
REMARK    2  A    between atoms: N2_7  and  C5_8 
REMARK    3  A    between atoms: C8_11  and  N3_12 
REMARK    4  A    between atoms: N3_12  and  C9_13 
ROOT
HETATM    1  N1  UNL     1      30.221  -0.803  53.718  1.00  0.00    -0.192 NA
HETATM    2  C1  UNL     1      29.075  -0.751  53.550  1.00  0.00     0.088 C 
HETATM    3  C2  UNL     1      27.638  -0.662  53.346  1.00  0.00     0.099 C 
HETATM    4  C3  UNL     1      26.897   0.281  53.904  1.00  0.00     0.085 C 
ENDROOT
BRANCH   4   5
HETATM    5  C4  UNL     1      25.444   0.401  53.719  1.00  0.00     0.247 C 
HETATM    6  O1  UNL     1      24.938   1.544  53.693  1.00  0.00    -0.268 OA
HETATM    7  N2  UNL     1      24.713  -0.806  53.582  1.00  0.00    -0.308 N 
HETATM    8  H3  UNL     1      25.076  -1.774  53.595  1.00  0.00     0.170 HD
BRANCH   7   9
HETATM    9  C5  UNL     1      23.310  -0.661  53.406  1.00  0.00     0.131 A 
HETATM   10  C6  UNL     1      22.675  -0.199  52.299  1.00  0.00     0.068 A 
HETATM   11  C7  UNL     1      21.322  -0.085  52.200  1.00  0.00     0.044 A 
HETATM   12  C8  UNL     1      20.651   0.378  51.093  1.00  0.00     0.142 A 
HETATM   13  C16 UNL     1      20.628  -0.478  53.317  1.00  0.00     0.089 A 
HETATM   14  N4  UNL     1      19.322   0.402  51.223  1.00  0.00    -0.224 NA
HETATM   15  C15 UNL     1      18.611   0.035  52.277  1.00  0.00     0.236 A 
HETATM   16  N5  UNL     1      19.284  -0.406  53.327  1.00  0.00    -0.240 NA
HETATM   17  C17 UNL     1      21.225  -0.952  54.462  1.00  0.00     0.151 A 
HETATM   18  N6  UNL     1      22.585  -1.036  54.487  1.00  0.00    -0.241 NA
BRANCH  12  19
HETATM   19  N3  UNL     1      21.381   0.780  49.958  1.00  0.00    -0.340 N 
HETATM   20  H5  UNL     1      21.635   0.105  49.212  1.00  0.00     0.167 HD
BRANCH  19  21
HETATM   21  C9  UNL     1      21.894   2.050  49.585  1.00  0.00     0.035 A 
HETATM   22  C10 UNL     1      22.685   2.324  48.474  1.00  0.00     0.029 A 
HETATM   23  C11 UNL     1      23.138   3.583  48.186  1.00  0.00     0.004 A 
HETATM   24  C12 UNL     1      22.844   4.656  48.966  1.00  0.00     0.019 A 
HETATM   25  C13 UNL     1      22.063   4.420  50.075  1.00  0.00     0.013 A 
HETATM   26 BR1  UNL     1      21.669   5.961  51.152  1.00  0.00    -0.051 Br
HETATM   27  C14 UNL     1      21.610   3.151  50.360  1.00  0.00     0.048 A 
ENDBRANCH  19  21
ENDBRANCH  12  19
ENDBRANCH   7   9
ENDBRANCH   4   5
TORSDOF 4
ENDMDL
MODEL 6
REMARK VINA RESULT:      -7.5      3.029      6.216
REMARK  4 active torsions:
REMARK  status: ('A' for Active; 'I' for Inactive)
REMARK    1  A    between atoms: C3_4  and  C4_5 
REMARK       I    between atoms: C4_5  and  N2_7 
REMARK    2  A    between atoms: N2_7  and  C5_8 
REMARK    3  A    between atoms: C8_11  and  N3_12 
REMARK    4  A    between atoms: N3_12  and  C9_13 
ROOT
HETATM    1  N1  UNL     1      30.130  -1.079  53.761  1.00  0.00    -0.192 NA
HETATM    2  C1  UNL     1      29.050  -0.721  53.546  1.00  0.00     0.088 C 
HETATM    3  C2  UNL     1      27.700  -0.250  53.281  1.00  0.00     0.099 C 
HETATM    4  C3  UNL     1      27.222   0.870  53.801  1.00  0.00     0.085 C 
ENDROOT
BRANCH   4   5
HETATM    5  C4  UNL     1      25.865   1.376  53.555  1.00  0.00     0.247 C 
HETATM    6  O1  UNL     1      25.572   2.522  53.960  1.00  0.00    -0.268 OA
HETATM    7  N2  UNL     1      24.974   0.515  52.866  1.00  0.00    -0.308 N 
HETATM    8  H3  UNL     1      25.159  -0.438  52.508  1.00  0.00     0.170 HD
BRANCH   7   9
HETATM    9  C5  UNL     1      23.668   1.030  52.642  1.00  0.00     0.131 A 
HETATM   10  C6  UNL     1      23.305   1.948  51.712  1.00  0.00     0.068 A 
HETATM   11  C7  UNL     1      22.031   2.398  51.554  1.00  0.00     0.044 A 
HETATM   12  C8  UNL     1      21.635   3.326  50.620  1.00  0.00     0.142 A 
HETATM   13  C16 UNL     1      21.115   1.848  52.417  1.00  0.00     0.089 A 
HETATM   14  N4  UNL     1      20.330   3.616  50.649  1.00  0.00    -0.224 NA
HETATM   15  C15 UNL     1      19.414   3.114  51.460  1.00  0.00     0.236 A 
HETATM   16  N5  UNL     1      19.825   2.223  52.348  1.00  0.00    -0.240 NA
HETATM   17  C17 UNL     1      21.432   0.915  53.376  1.00  0.00     0.151 A 
HETATM   18  N6  UNL     1      22.732   0.514  53.475  1.00  0.00    -0.241 NA
BRANCH  12  19
HETATM   19  N3  UNL     1      22.589   3.881  49.746  1.00  0.00    -0.340 N 
HETATM   20  H5  UNL     1      22.685   3.547  48.769  1.00  0.00     0.167 HD
BRANCH  19  21
HETATM   21  C9  UNL     1      23.545   4.911  49.947  1.00  0.00     0.035 A 
HETATM   22  C10 UNL     1      23.382   6.042  50.741  1.00  0.00     0.029 A 
HETATM   23  C11 UNL     1      24.361   6.988  50.881  1.00  0.00     0.004 A 
HETATM   24  C12 UNL     1      25.562   6.888  50.256  1.00  0.00     0.019 A 
HETATM   25  C13 UNL     1      25.758   5.781  49.462  1.00  0.00     0.013 A 
HETATM   26 BR1  UNL     1      27.468   5.676  48.594  1.00  0.00    -0.051 Br
HETATM   27  C14 UNL     1      24.769   4.831  49.324  1.00  0.00     0.048 A 
ENDBRANCH  19  21
ENDBRANCH  12  19
ENDBRANCH   7   9
ENDBRANCH   4   5
TORSDOF 4
ENDMDL
MODEL 7
REMARK VINA RESULT:      -7.4      3.097      6.520
REMARK  4 active torsions:
REMARK  status: ('A' for Active; 'I' for Inactive)
REMARK    1  A    between atoms: C3_4  and  C4_5 
REMARK       I    between atoms: C4_5  and  N2_7 
REMARK    2  A    between atoms: N2_7  and  C5_8 
REMARK    3  A    between atoms: C8_11  and  N3_12 
REMARK    4  A    between atoms: N3_12  and  C9_13 
ROOT
HETATM    1  N1  UNL     1      29.422  -1.474  53.713  1.00  0.00    -0.192 NA
HETATM    2  C1  UNL     1      28.471  -0.883  53.413  1.00  0.00     0.088 C 
HETATM    3  C2  UNL     1      27.292  -0.125  53.026  1.00  0.00     0.099 C 
HETATM    4  C3  UNL     1      27.334   1.170  52.759  1.00  0.00     0.085 C 
ENDROOT
BRANCH   4   5
HETATM    5  C4  UNL     1      26.163   1.967  52.365  1.00  0.00     0.247 C 
HETATM    6  O1  UNL     1      25.410   2.404  53.261  1.00  0.00    -0.268 OA
HETATM    7  N2  UNL     1      25.973   2.183  50.977  1.00  0.00    -0.308 N 
HETATM    8  H3  UNL     1      26.560   1.848  50.194  1.00  0.00     0.170 HD
BRANCH   7   9
HETATM    9  C5  UNL     1      24.833   2.956  50.624  1.00  0.00     0.131 A 
HETATM   10  C6  UNL     1      23.572   2.498  50.424  1.00  0.00     0.068 A 
HETATM   11  C7  UNL     1      22.524   3.298  50.085  1.00  0.00     0.044 A 
HETATM   12  C8  UNL     1      21.237   2.862  49.877  1.00  0.00     0.142 A 
HETATM   13  C16 UNL     1      22.835   4.629  49.958  1.00  0.00     0.089 A 
HETATM   14  N4  UNL     1      20.373   3.829  49.553  1.00  0.00    -0.224 NA
HETATM   15  C15 UNL     1      20.626   5.120  49.419  1.00  0.00     0.236 A 
HETATM   16  N5  UNL     1      21.874   5.510  49.625  1.00  0.00    -0.240 NA
HETATM   17  C17 UNL     1      24.096   5.142  50.150  1.00  0.00     0.151 A 
HETATM   18  N6  UNL     1      25.095   4.278  50.487  1.00  0.00    -0.241 NA
BRANCH  12  19
HETATM   19  N3  UNL     1      20.939   1.492  50.008  1.00  0.00    -0.340 N 
HETATM   20  H5  UNL     1      21.146   0.820  49.246  1.00  0.00     0.167 HD
BRANCH  19  21
HETATM   21  C9  UNL     1      20.353   0.767  51.078  1.00  0.00     0.035 A 
HETATM   22  C10 UNL     1      19.018   0.391  51.184  1.00  0.00     0.029 A 
HETATM   23  C11 UNL     1      18.536  -0.312  52.254  1.00  0.00     0.004 A 
HETATM   24  C12 UNL     1      19.328  -0.694  53.290  1.00  0.00     0.019 A 
HETATM   25  C13 UNL     1      20.656  -0.338  53.217  1.00  0.00     0.013 A 
HETATM   26 BR1  UNL     1      21.744  -0.895  54.698  1.00  0.00    -0.051 Br
HETATM   27  C14 UNL     1      21.137   0.370  52.138  1.00  0.00     0.048 A 
ENDBRANCH  19  21
ENDBRANCH  12  19
ENDBRANCH   7   9
ENDBRANCH   4   5
TORSDOF 4
ENDMDL
MODEL 8
REMARK VINA RESULT:      -7.3      2.383      3.379
REMARK  4 active torsions:
REMARK  status: ('A' for Active; 'I' for Inactive)
REMARK    1  A    between atoms: C3_4  and  C4_5 
REMARK       I    between atoms: C4_5  and  N2_7 
REMARK    2  A    between atoms: N2_7  and  C5_8 
REMARK    3  A    between atoms: C8_11  and  N3_12 
REMARK    4  A    between atoms: N3_12  and  C9_13 
ROOT
HETATM    1  N1  UNL     1      31.745   6.795  47.176  1.00  0.00    -0.192 NA
HETATM    2  C1  UNL     1      30.692   6.529  47.579  1.00  0.00     0.088 C 
HETATM    3  C2  UNL     1      29.362   6.217  48.079  1.00  0.00     0.099 C 
HETATM    4  C3  UNL     1      28.499   7.153  48.440  1.00  0.00     0.085 C 
ENDROOT
BRANCH   4   5
HETATM    5  C4  UNL     1      27.149   6.875  48.948  1.00  0.00     0.247 C 
HETATM    6  O1  UNL     1      26.474   7.824  49.403  1.00  0.00    -0.268 OA
HETATM    7  N2  UNL     1      26.705   5.530  48.885  1.00  0.00    -0.308 N 
HETATM    8  H3  UNL     1      27.216   4.707  48.521  1.00  0.00     0.170 HD
BRANCH   7   9
HETATM    9  C5  UNL     1      25.396   5.288  49.383  1.00  0.00     0.131 A 
HETATM   10  C6  UNL     1      25.071   4.687  50.555  1.00  0.00     0.068 A 
HETATM   11  C7  UNL     1      23.791   4.486  50.970  1.00  0.00     0.044 A 
HETATM   12  C8  UNL     1      23.432   3.882  52.151  1.00  0.00     0.142 A 
HETATM   13  C16 UNL     1      22.827   4.945  50.106  1.00  0.00     0.089 A 
HETATM   14  N4  UNL     1      22.114   3.794  52.349  1.00  0.00    -0.224 NA
HETATM   15  C15 UNL     1      21.152   4.220  51.547  1.00  0.00     0.236 A 
HETATM   16  N5  UNL     1      21.527   4.798  50.418  1.00  0.00    -0.240 NA
HETATM   17  C17 UNL     1      23.105   5.560  48.908  1.00  0.00     0.151 A 
HETATM   18  N6  UNL     1      24.412   5.724  48.559  1.00  0.00    -0.241 NA
BRANCH  12  19
HETATM   19  N3  UNL     1      24.435   3.414  53.023  1.00  0.00    -0.340 N 
HETATM   20  H5  UNL     1      24.987   4.068  53.611  1.00  0.00     0.167 HD
BRANCH  19  21
HETATM   21  C9  UNL     1      24.893   2.099  53.292  1.00  0.00     0.035 A 
HETATM   22  C10 UNL     1      24.171   0.923  53.113  1.00  0.00     0.029 A 
HETATM   23  C11 UNL     1      24.692  -0.310  53.396  1.00  0.00     0.004 A 
HETATM   24  C12 UNL     1      25.954  -0.473  53.873  1.00  0.00     0.019 A 
HETATM   25  C13 UNL     1      26.697   0.670  54.062  1.00  0.00     0.013 A 
HETATM   26 BR1  UNL     1      28.475   0.399  54.737  1.00  0.00    -0.051 Br
HETATM   27  C14 UNL     1      26.168   1.909  53.775  1.00  0.00     0.048 A 
ENDBRANCH  19  21
ENDBRANCH  12  19
ENDBRANCH   7   9
ENDBRANCH   4   5
TORSDOF 4
ENDMDL
MODEL 9
REMARK VINA RESULT:      -7.3      2.908      5.266
REMARK  4 active torsions:
REMARK  status: ('A' for Active; 'I' for Inactive)
REMARK    1  A    between atoms: C3_4  and  C4_5 
REMARK       I    between atoms: C4_5  and  N2_7 
REMARK    2  A    between atoms: N2_7  and  C5_8 
REMARK    3  A    between atoms: C8_11  and  N3_12 
REMARK    4  A    between atoms: N3_12  and  C9_13 
ROOT
HETATM    1  N1  UNL     1      29.099   7.053  47.251  1.00  0.00    -0.192 NA
HETATM    2  C1  UNL     1      28.676   6.184  47.890  1.00  0.00     0.088 C 
HETATM    3  C2  UNL     1      28.123   5.096  48.680  1.00  0.00     0.099 C 
HETATM    4  C3  UNL     1      26.826   4.975  48.916  1.00  0.00     0.085 C 
ENDROOT
BRANCH   4   5
HETATM    5  C4  UNL     1      26.233   3.890  49.710  1.00  0.00     0.247 C 
HETATM    6  O1  UNL     1      25.195   3.338  49.285  1.00  0.00    -0.268 OA
HETATM    7  N2  UNL     1      26.892   3.544  50.916  1.00  0.00    -0.308 N 
HETATM    8  H3  UNL     1      27.750   3.963  51.316  1.00  0.00     0.170 HD
BRANCH   7   9
HETATM    9  C5  UNL     1      26.297   2.492  51.664  1.00  0.00     0.131 A 
HETATM   10  C6  UNL     1      24.970   2.274  51.846  1.00  0.00     0.068 A 
HETATM   11  C7  UNL     1      24.469   1.243  52.578  1.00  0.00     0.044 A 
HETATM   12  C8  UNL     1      23.131   0.997  52.779  1.00  0.00     0.142 A 
HETATM   13  C16 UNL     1      25.416   0.417  53.133  1.00  0.00     0.089 A 
HETATM   14  N4  UNL     1      22.873  -0.075  53.534  1.00  0.00    -0.224 NA
HETATM   15  C15 UNL     1      23.750  -0.896  54.088  1.00  0.00     0.236 A 
HETATM   16  N5  UNL     1      25.030  -0.635  53.877  1.00  0.00    -0.240 NA
HETATM   17  C17 UNL     1      26.771   0.595  52.978  1.00  0.00     0.151 A 
HETATM   18  N6  UNL     1      27.197   1.652  52.231  1.00  0.00    -0.241 NA
BRANCH  12  19
HETATM   19  N3  UNL     1      22.175   1.858  52.206  1.00  0.00    -0.340 N 
HETATM   20  H5  UNL     1      21.631   2.523  52.787  1.00  0.00     0.167 HD
BRANCH  19  21
HETATM   21  C9  UNL     1      21.759   2.019  50.859  1.00  0.00     0.035 A 
HETATM   22  C10 UNL     1      21.568   1.002  49.929  1.00  0.00     0.029 A 
HETATM   23  C11 UNL     1      21.162   1.247  48.645  1.00  0.00     0.004 A 
HETATM   24  C12 UNL     1      20.915   2.502  48.188  1.00  0.00     0.019 A 
HETATM   25  C13 UNL     1      21.094   3.533  49.082  1.00  0.00     0.013 A 
HETATM   26 BR1  UNL     1      20.736   5.292  48.400  1.00  0.00    -0.051 Br
HETATM   27  C14 UNL     1      21.503   3.281  50.374  1.00  0.00     0.048 A 
ENDBRANCH  19  21
ENDBRANCH  12  19
ENDBRANCH   7   9
ENDBRANCH   4   5
TORSDOF 4
ENDMDL
