MODEL 1
REMARK VINA RESULT:      -7.2      0.000      0.000
REMARK  10 active torsions:
REMARK  status: ('A' for Active; 'I' for Inactive)
REMARK    1  A    between atoms: C2_2  and  O1_3 
REMARK    2  A    between atoms: C2_2  and  C6_8 
REMARK    3  A    between atoms: O1_3  and  C3_4 
REMARK    4  A    between atoms: C4_5  and  C5_6 
REMARK    5  A    between atoms: C5_6  and  O2_7 
REMARK    6  A    between atoms: C11_15  and  N3_16 
REMARK    7  A    between atoms: N3_16  and  C12_17 
REMARK    8  A    between atoms: C13_18  and  C14_19 
REMARK    9  A    between atoms: C14_19  and  C15_20 
REMARK   10  A    between atoms: C14_19  and  C16_22 
ROOT
HETATM    1  C6  UNL     1      20.979   0.317  51.926  1.00  0.00    -0.027 A 
HETATM    2  C7  UNL     1      20.115  -0.203  52.893  1.00  0.00     0.012 A 
HETATM    3  C8  UNL     1      20.597  -0.770  54.057  1.00  0.00     0.033 A 
HETATM    4  C9  UNL     1      21.978  -0.820  54.267  1.00  0.00     0.072 A 
HETATM    5  N1  UNL     1      22.487  -1.358  55.397  1.00  0.00    -0.241 NA
HETATM    6  C10 UNL     1      23.812  -1.400  55.605  1.00  0.00     0.236 A 
HETATM    7  N2  UNL     1      24.681  -0.901  54.681  1.00  0.00    -0.224 NA
HETATM    8  C11 UNL     1      24.208  -0.352  53.529  1.00  0.00     0.141 A 
HETATM    9  C17 UNL     1      22.846  -0.313  53.325  1.00  0.00     0.039 A 
HETATM   10  C18 UNL     1      22.333   0.256  52.153  1.00  0.00     0.027 A 
ENDROOT
BRANCH   8  11
HETATM   11  N3  UNL     1      25.167   0.163  52.581  1.00  0.00    -0.350 N 
HETATM   12  H11 UNL     1      25.185   0.459  51.579  1.00  0.00     0.166 HD
BRANCH  11  13
HETATM   13  C12 UNL     1      26.335   0.217  53.390  1.00  0.00     0.086 C 
HETATM   14  C13 UNL     1      27.642   0.358  53.285  1.00  0.00    -0.002 C 
BRANCH  14  15
HETATM   15  C14 UNL     1      28.775   0.397  54.211  1.00  0.00     0.052 C 
BRANCH  15  16
HETATM   16  C15 UNL     1      29.299   1.796  54.432  1.00  0.00     0.231 C 
HETATM   17  F1  UNL     1      28.610   2.634  53.578  1.00  0.00    -0.255 F 
ENDBRANCH  15  16
BRANCH  15  18
HETATM   18  C16 UNL     1      29.902  -0.498  53.757  1.00  0.00     0.125 C 
HETATM   19 CL1  UNL     1      29.234  -2.041  53.182  1.00  0.00    -0.130 Cl
ENDBRANCH  15  18
ENDBRANCH  14  15
ENDBRANCH  11  13
ENDBRANCH   8  11
BRANCH   1  20
HETATM   20  C2  UNL     1      20.385   0.907  50.735  1.00  0.00     0.169 C 
HETATM   21  C1  UNL     1      21.262   0.945  49.518  1.00  0.00     0.046 C 
BRANCH  20  22
HETATM   22  O1  UNL     1      19.849   2.212  50.922  1.00  0.00    -0.294 OA
BRANCH  22  23
HETATM   23  C3  UNL     1      20.720   3.256  51.201  1.00  0.00     0.057 C 
HETATM   24  C4  UNL     1      21.484   4.153  51.460  1.00  0.00    -0.051 C 
BRANCH  24  25
HETATM   25  C5  UNL     1      22.427   5.241  51.800  1.00  0.00     0.260 C 
BRANCH  25  26
HETATM   26  O2  UNL     1      21.825   6.505  51.609  1.00  0.00    -0.389 OA
HETATM   27  H7  UNL     1      20.950   6.459  52.083  1.00  0.00     0.210 HD
ENDBRANCH  25  26
ENDBRANCH  24  25
ENDBRANCH  22  23
ENDBRANCH  20  22
ENDBRANCH   1  20
TORSDOF 10
ENDMDL
MODEL 2
REMARK VINA RESULT:      -7.2      4.604      7.258
REMARK  10 active torsions:
REMARK  status: ('A' for Active; 'I' for Inactive)
REMARK    1  A    between atoms: C2_2  and  O1_3 
REMARK    2  A    between atoms: C2_2  and  C6_8 
REMARK    3  A    between atoms: O1_3  and  C3_4 
REMARK    4  A    between atoms: C4_5  and  C5_6 
REMARK    5  A    between atoms: C5_6  and  O2_7 
REMARK    6  A    between atoms: C11_15  and  N3_16 
REMARK    7  A    between atoms: N3_16  and  C12_17 
REMARK    8  A    between atoms: C13_18  and  C14_19 
REMARK    9  A    between atoms: C14_19  and  C15_20 
REMARK   10  A    between atoms: C14_19  and  C16_22 
ROOT
HETATM    1  C6  UNL     1      24.163   1.770  52.552  1.00  0.00    -0.027 A 
HETATM    2  C7  UNL     1      23.105   1.006  52.054  1.00  0.00     0.012 A 
HETATM    3  C8  UNL     1      21.975   1.600  51.526  1.00  0.00     0.033 A 
HETATM    4  C9  UNL     1      21.895   2.995  51.490  1.00  0.00     0.072 A 
HETATM    5  N1  UNL     1      20.812   3.613  50.973  1.00  0.00    -0.241 NA
HETATM    6  C10 UNL     1      20.735   4.952  50.930  1.00  0.00     0.236 A 
HETATM    7  N2  UNL     1      21.751   5.725  51.408  1.00  0.00    -0.224 NA
HETATM    8  C11 UNL     1      22.860   5.142  51.938  1.00  0.00     0.141 A 
HETATM    9  C17 UNL     1      22.929   3.766  51.978  1.00  0.00     0.039 A 
HETATM   10  C18 UNL     1      24.062   3.139  52.508  1.00  0.00     0.027 A 
ENDROOT
BRANCH   8  11
HETATM   11  N3  UNL     1      23.908   6.002  52.432  1.00  0.00    -0.350 N 
HETATM   12  H11 UNL     1      24.318   6.275  53.353  1.00  0.00     0.166 HD
BRANCH  11  13
HETATM   13  C12 UNL     1      24.407   6.538  51.213  1.00  0.00     0.086 C 
HETATM   14  C13 UNL     1      25.262   6.255  50.249  1.00  0.00    -0.002 C 
BRANCH  14  15
HETATM   15  C14 UNL     1      25.704   6.900  49.012  1.00  0.00     0.052 C 
BRANCH  15  16
HETATM   16  C15 UNL     1      24.644   6.883  47.935  1.00  0.00     0.231 C 
HETATM   17  F1  UNL     1      23.972   5.682  48.037  1.00  0.00    -0.255 F 
ENDBRANCH  15  16
BRANCH  15  18
HETATM   18  C16 UNL     1      26.974   6.281  48.479  1.00  0.00     0.125 C 
HETATM   19 CL1  UNL     1      27.050   4.576  48.976  1.00  0.00    -0.130 Cl
ENDBRANCH  15  18
ENDBRANCH  14  15
ENDBRANCH  11  13
ENDBRANCH   8  11
BRANCH   1  20
HETATM   20  C2  UNL     1      25.321   1.061  53.080  1.00  0.00     0.169 C 
HETATM   21  C1  UNL     1      26.335   1.906  53.793  1.00  0.00     0.046 C 
BRANCH  20  22
HETATM   22  O1  UNL     1      26.014   0.264  52.127  1.00  0.00    -0.294 OA
BRANCH  22  23
HETATM   23  C3  UNL     1      27.064  -0.533  52.563  1.00  0.00     0.057 C 
HETATM   24  C4  UNL     1      27.984  -1.226  52.921  1.00  0.00    -0.051 C 
BRANCH  24  25
HETATM   25  C5  UNL     1      29.120  -2.077  53.337  1.00  0.00     0.260 C 
BRANCH  25  26
HETATM   26  O2  UNL     1      28.727  -3.432  53.421  1.00  0.00    -0.389 OA
HETATM   27  H7  UNL     1      27.769  -3.451  53.146  1.00  0.00     0.210 HD
ENDBRANCH  25  26
ENDBRANCH  24  25
ENDBRANCH  22  23
ENDBRANCH  20  22
ENDBRANCH   1  20
TORSDOF 10
ENDMDL
MODEL 3
REMARK VINA RESULT:      -7.0      4.699      7.287
REMARK  10 active torsions:
REMARK  status: ('A' for Active; 'I' for Inactive)
REMARK    1  A    between atoms: C2_2  and  O1_3 
REMARK    2  A    between atoms: C2_2  and  C6_8 
REMARK    3  A    between atoms: O1_3  and  C3_4 
REMARK    4  A    between atoms: C4_5  and  C5_6 
REMARK    5  A    between atoms: C5_6  and  O2_7 
REMARK    6  A    between atoms: C11_15  and  N3_16 
REMARK    7  A    between atoms: N3_16  and  C12_17 
REMARK    8  A    between atoms: C13_18  and  C14_19 
REMARK    9  A    between atoms: C14_19  and  C15_20 
REMARK   10  A    between atoms: C14_19  and  C16_22 
ROOT
HETATM    1  C6  UNL     1      25.293   1.988  53.381  1.00  0.00    -0.027 A 
HETATM    2  C7  UNL     1      24.649   0.749  53.315  1.00  0.00     0.012 A 
HETATM    3  C8  UNL     1      23.332   0.643  52.911  1.00  0.00     0.033 A 
HETATM    4  C9  UNL     1      22.634   1.802  52.561  1.00  0.00     0.072 A 
HETATM    5  N1  UNL     1      21.349   1.739  52.151  1.00  0.00    -0.241 NA
HETATM    6  C10 UNL     1      20.679   2.849  51.807  1.00  0.00     0.236 A 
HETATM    7  N2  UNL     1      21.278   4.072  51.860  1.00  0.00    -0.224 NA
HETATM    8  C11 UNL     1      22.572   4.180  52.268  1.00  0.00     0.141 A 
HETATM    9  C17 UNL     1      23.252   3.033  52.620  1.00  0.00     0.039 A 
HETATM   10  C18 UNL     1      24.587   3.113  53.033  1.00  0.00     0.027 A 
ENDROOT
BRANCH   8  11
HETATM   11  N3  UNL     1      23.163   5.495  52.309  1.00  0.00    -0.350 N 
HETATM   12  H11 UNL     1      23.270   6.277  52.993  1.00  0.00     0.166 HD
BRANCH  11  13
HETATM   13  C12 UNL     1      23.692   5.588  50.992  1.00  0.00     0.086 C 
HETATM   14  C13 UNL     1      24.831   5.804  50.364  1.00  0.00    -0.002 C 
BRANCH  14  15
HETATM   15  C14 UNL     1      25.266   5.880  48.968  1.00  0.00     0.052 C 
BRANCH  15  16
HETATM   16  C15 UNL     1      26.756   5.686  48.811  1.00  0.00     0.231 C 
HETATM   17  F1  UNL     1      26.980   4.334  48.646  1.00  0.00    -0.255 F 
ENDBRANCH  15  16
BRANCH  15  18
HETATM   18  C16 UNL     1      24.857   7.183  48.324  1.00  0.00     0.125 C 
HETATM   19 CL1  UNL     1      25.201   8.524  49.437  1.00  0.00    -0.130 Cl
ENDBRANCH  15  18
ENDBRANCH  14  15
ENDBRANCH  11  13
ENDBRANCH   8  11
BRANCH   1  20
HETATM   20  C2  UNL     1      26.685   2.005  53.806  1.00  0.00     0.169 C 
HETATM   21  C1  UNL     1      27.703   2.064  52.705  1.00  0.00     0.046 C 
BRANCH  20  22
HETATM   22  O1  UNL     1      27.053   0.944  54.679  1.00  0.00    -0.294 OA
BRANCH  22  23
HETATM   23  C3  UNL     1      27.837  -0.087  54.181  1.00  0.00     0.057 C 
HETATM   24  C4  UNL     1      28.515  -0.995  53.766  1.00  0.00    -0.051 C 
BRANCH  24  25
HETATM   25  C5  UNL     1      29.344  -2.120  53.280  1.00  0.00     0.260 C 
BRANCH  25  26
HETATM   26  O2  UNL     1      28.644  -3.343  53.388  1.00  0.00    -0.389 OA
HETATM   27  H7  UNL     1      28.485  -3.475  54.363  1.00  0.00     0.210 HD
ENDBRANCH  25  26
ENDBRANCH  24  25
ENDBRANCH  22  23
ENDBRANCH  20  22
ENDBRANCH   1  20
TORSDOF 10
ENDMDL
MODEL 4
REMARK VINA RESULT:      -6.9      3.024      4.937
REMARK  10 active torsions:
REMARK  status: ('A' for Active; 'I' for Inactive)
REMARK    1  A    between atoms: C2_2  and  O1_3 
REMARK    2  A    between atoms: C2_2  and  C6_8 
REMARK    3  A    between atoms: O1_3  and  C3_4 
REMARK    4  A    between atoms: C4_5  and  C5_6 
REMARK    5  A    between atoms: C5_6  and  O2_7 
REMARK    6  A    between atoms: C11_15  and  N3_16 
REMARK    7  A    between atoms: N3_16  and  C12_17 
REMARK    8  A    between atoms: C13_18  and  C14_19 
REMARK    9  A    between atoms: C14_19  and  C15_20 
REMARK   10  A    between atoms: C14_19  and  C16_22 
ROOT
HETATM    1  C6  UNL     1      21.625   0.432  52.363  1.00  0.00    -0.027 A 
HETATM    2  C7  UNL     1      21.018   0.317  51.110  1.00  0.00     0.012 A 
HETATM    3  C8  UNL     1      21.482   1.027  50.019  1.00  0.00     0.033 A 
HETATM    4  C9  UNL     1      22.581   1.875  50.178  1.00  0.00     0.072 A 
HETATM    5  N1  UNL     1      23.070   2.578  49.133  1.00  0.00    -0.241 NA
HETATM    6  C10 UNL     1      24.130   3.386  49.280  1.00  0.00     0.236 A 
HETATM    7  N2  UNL     1      24.744   3.520  50.490  1.00  0.00    -0.224 NA
HETATM    8  C11 UNL     1      24.283   2.830  51.568  1.00  0.00     0.141 A 
HETATM    9  C17 UNL     1      23.193   2.001  51.407  1.00  0.00     0.039 A 
HETATM   10  C18 UNL     1      22.704   1.272  52.496  1.00  0.00     0.027 A 
ENDROOT
BRANCH   8  11
HETATM   11  N3  UNL     1      24.965   3.005  52.828  1.00  0.00    -0.350 N 
HETATM   12  H11 UNL     1      24.860   3.580  53.693  1.00  0.00     0.166 HD
BRANCH  11  13
HETATM   13  C12 UNL     1      26.032   2.076  52.681  1.00  0.00     0.086 C 
HETATM   14  C13 UNL     1      26.436   0.906  53.137  1.00  0.00    -0.002 C 
BRANCH  14  15
HETATM   15  C14 UNL     1      27.583   0.026  52.909  1.00  0.00     0.052 C 
BRANCH  15  16
HETATM   16  C15 UNL     1      27.173  -1.380  52.540  1.00  0.00     0.231 C 
HETATM   17  F1  UNL     1      25.794  -1.431  52.578  1.00  0.00    -0.255 F 
ENDBRANCH  15  16
BRANCH  15  18
HETATM   18  C16 UNL     1      28.505  -0.015  54.103  1.00  0.00     0.125 C 
HETATM   19 CL1  UNL     1      30.070  -0.699  53.614  1.00  0.00    -0.130 Cl
ENDBRANCH  15  18
ENDBRANCH  14  15
ENDBRANCH  11  13
ENDBRANCH   8  11
BRANCH   1  20
HETATM   20  C2  UNL     1      21.079  -0.362  53.455  1.00  0.00     0.169 C 
HETATM   21  C1  UNL     1      20.753   0.391  54.711  1.00  0.00     0.046 C 
BRANCH  20  22
HETATM   22  O1  UNL     1      21.865  -1.491  53.819  1.00  0.00    -0.294 OA
BRANCH  22  23
HETATM   23  C3  UNL     1      23.024  -1.286  54.555  1.00  0.00     0.057 C 
HETATM   24  C4  UNL     1      24.043  -1.107  55.175  1.00  0.00    -0.051 C 
BRANCH  24  25
HETATM   25  C5  UNL     1      25.306  -0.888  55.915  1.00  0.00     0.260 C 
BRANCH  25  26
HETATM   26  O2  UNL     1      25.158  -1.240  57.275  1.00  0.00    -0.389 OA
HETATM   27  H7  UNL     1      24.247  -1.638  57.352  1.00  0.00     0.210 HD
ENDBRANCH  25  26
ENDBRANCH  24  25
ENDBRANCH  22  23
ENDBRANCH  20  22
ENDBRANCH   1  20
TORSDOF 10
ENDMDL
MODEL 5
REMARK VINA RESULT:      -6.8      1.509      1.996
REMARK  10 active torsions:
REMARK  status: ('A' for Active; 'I' for Inactive)
REMARK    1  A    between atoms: C2_2  and  O1_3 
REMARK    2  A    between atoms: C2_2  and  C6_8 
REMARK    3  A    between atoms: O1_3  and  C3_4 
REMARK    4  A    between atoms: C4_5  and  C5_6 
REMARK    5  A    between atoms: C5_6  and  O2_7 
REMARK    6  A    between atoms: C11_15  and  N3_16 
REMARK    7  A    between atoms: N3_16  and  C12_17 
REMARK    8  A    between atoms: C13_18  and  C14_19 
REMARK    9  A    between atoms: C14_19  and  C15_20 
REMARK   10  A    between atoms: C14_19  and  C16_22 
ROOT
HETATM    1  C6  UNL     1      20.945   0.412  51.785  1.00  0.00    -0.027 A 
HETATM    2  C7  UNL     1      20.071  -0.134  52.729  1.00  0.00     0.012 A 
HETATM    3  C8  UNL     1      20.539  -0.709  53.895  1.00  0.00     0.033 A 
HETATM    4  C9  UNL     1      21.916  -0.742  54.130  1.00  0.00     0.072 A 
HETATM    5  N1  UNL     1      22.412  -1.286  55.262  1.00  0.00    -0.241 NA
HETATM    6  C10 UNL     1      23.733  -1.313  55.495  1.00  0.00     0.236 A 
HETATM    7  N2  UNL     1      24.612  -0.790  54.594  1.00  0.00    -0.224 NA
HETATM    8  C11 UNL     1      24.153  -0.232  53.440  1.00  0.00     0.141 A 
HETATM    9  C17 UNL     1      22.794  -0.210  53.210  1.00  0.00     0.039 A 
HETATM   10  C18 UNL     1      22.295   0.366  52.037  1.00  0.00     0.027 A 
ENDROOT
BRANCH   8  11
HETATM   11  N3  UNL     1      25.122   0.308  52.516  1.00  0.00    -0.350 N 
HETATM   12  H11 UNL     1      25.142   0.668  51.536  1.00  0.00     0.166 HD
BRANCH  11  13
HETATM   13  C12 UNL     1      26.298   0.268  53.315  1.00  0.00     0.086 C 
HETATM   14  C13 UNL     1      27.611   0.283  53.196  1.00  0.00    -0.002 C 
BRANCH  14  15
HETATM   15  C14 UNL     1      28.752   0.233  54.113  1.00  0.00     0.052 C 
BRANCH  15  16
HETATM   16  C15 UNL     1      29.320   1.601  54.409  1.00  0.00     0.231 C 
HETATM   17  F1  UNL     1      28.737   2.489  53.528  1.00  0.00    -0.255 F 
ENDBRANCH  15  16
BRANCH  15  18
HETATM   18  C16 UNL     1      29.848  -0.668  53.597  1.00  0.00     0.125 C 
HETATM   19 CL1  UNL     1      29.169  -2.268  53.229  1.00  0.00    -0.130 Cl
ENDBRANCH  15  18
ENDBRANCH  14  15
ENDBRANCH  11  13
ENDBRANCH   8  11
BRANCH   1  20
HETATM   20  C2  UNL     1      20.365   1.008  50.590  1.00  0.00     0.169 C 
HETATM   21  C1  UNL     1      21.162   0.852  49.329  1.00  0.00     0.046 C 
BRANCH  20  22
HETATM   22  O1  UNL     1      20.023   2.384  50.719  1.00  0.00    -0.294 OA
BRANCH  22  23
HETATM   23  C3  UNL     1      18.732   2.715  51.106  1.00  0.00     0.057 C 
HETATM   24  C4  UNL     1      17.614   3.025  51.438  1.00  0.00    -0.051 C 
BRANCH  24  25
HETATM   25  C5  UNL     1      16.249   3.428  51.842  1.00  0.00     0.260 C 
BRANCH  25  26
HETATM   26  O2  UNL     1      16.000   4.774  51.494  1.00  0.00    -0.389 OA
HETATM   27  H7  UNL     1      16.096   5.292  52.340  1.00  0.00     0.210 HD
ENDBRANCH  25  26
ENDBRANCH  24  25
ENDBRANCH  22  23
ENDBRANCH  20  22
ENDBRANCH   1  20
TORSDOF 10
ENDMDL
MODEL 6
REMARK VINA RESULT:      -6.8      5.562      7.541
REMARK  10 active torsions:
REMARK  status: ('A' for Active; 'I' for Inactive)
REMARK    1  A    between atoms: C2_2  and  O1_3 
REMARK    2  A    between atoms: C2_2  and  C6_8 
REMARK    3  A    between atoms: O1_3  and  C3_4 
REMARK    4  A    between atoms: C4_5  and  C5_6 
REMARK    5  A    between atoms: C5_6  and  O2_7 
REMARK    6  A    between atoms: C11_15  and  N3_16 
REMARK    7  A    between atoms: N3_16  and  C12_17 
REMARK    8  A    between atoms: C13_18  and  C14_19 
REMARK    9  A    between atoms: C14_19  and  C15_20 
REMARK   10  A    between atoms: C14_19  and  C16_22 
ROOT
HETATM    1  C6  UNL     1      24.504   1.540  52.291  1.00  0.00    -0.027 A 
HETATM    2  C7  UNL     1      23.243   2.023  52.650  1.00  0.00     0.012 A 
HETATM    3  C8  UNL     1      22.707   3.148  52.054  1.00  0.00     0.033 A 
HETATM    4  C9  UNL     1      23.447   3.814  51.072  1.00  0.00     0.072 A 
HETATM    5  N1  UNL     1      22.953   4.912  50.459  1.00  0.00    -0.241 NA
HETATM    6  C10 UNL     1      23.657   5.548  49.511  1.00  0.00     0.236 A 
HETATM    7  N2  UNL     1      24.890   5.103  49.139  1.00  0.00    -0.224 NA
HETATM    8  C11 UNL     1      25.424   4.000  49.732  1.00  0.00     0.141 A 
HETATM    9  C17 UNL     1      24.693   3.353  50.705  1.00  0.00     0.039 A 
HETATM   10  C18 UNL     1      25.213   2.211  51.325  1.00  0.00     0.027 A 
ENDROOT
BRANCH   8  11
HETATM   11  N3  UNL     1      26.733   3.567  49.306  1.00  0.00    -0.350 N 
HETATM   12  H11 UNL     1      27.266   2.673  49.223  1.00  0.00     0.166 HD
BRANCH  11  13
HETATM   13  C12 UNL     1      27.314   4.811  48.934  1.00  0.00     0.086 C 
HETATM   14  C13 UNL     1      28.365   5.297  48.304  1.00  0.00    -0.002 C 
BRANCH  14  15
HETATM   15  C14 UNL     1      28.872   6.631  47.976  1.00  0.00     0.052 C 
BRANCH  15  16
HETATM   16  C15 UNL     1      30.299   6.838  48.427  1.00  0.00     0.231 C 
HETATM   17  F1  UNL     1      31.107   6.696  47.317  1.00  0.00    -0.255 F 
ENDBRANCH  15  16
BRANCH  15  18
HETATM   18  C16 UNL     1      27.999   7.720  48.551  1.00  0.00     0.125 C 
HETATM   19 CL1  UNL     1      29.026   8.977  49.274  1.00  0.00    -0.130 Cl
ENDBRANCH  15  18
ENDBRANCH  14  15
ENDBRANCH  11  13
ENDBRANCH   8  11
BRANCH   1  20
HETATM   20  C2  UNL     1      24.986   0.340  52.961  1.00  0.00     0.169 C 
HETATM   21  C1  UNL     1      23.983  -0.378  53.815  1.00  0.00     0.046 C 
BRANCH  20  22
HETATM   22  O1  UNL     1      26.162   0.526  53.739  1.00  0.00    -0.294 OA
BRANCH  22  23
HETATM   23  C3  UNL     1      27.216  -0.363  53.576  1.00  0.00     0.057 C 
HETATM   24  C4  UNL     1      28.122  -1.144  53.417  1.00  0.00    -0.051 C 
BRANCH  24  25
HETATM   25  C5  UNL     1      29.219  -2.112  53.202  1.00  0.00     0.260 C 
BRANCH  25  26
HETATM   26  O2  UNL     1      28.774  -3.434  53.427  1.00  0.00    -0.389 OA
HETATM   27  H7  UNL     1      27.958  -3.541  52.866  1.00  0.00     0.210 HD
ENDBRANCH  25  26
ENDBRANCH  24  25
ENDBRANCH  22  23
ENDBRANCH  20  22
ENDBRANCH   1  20
TORSDOF 10
ENDMDL
MODEL 7
REMARK VINA RESULT:      -6.7      6.609      9.238
REMARK  10 active torsions:
REMARK  status: ('A' for Active; 'I' for Inactive)
REMARK    1  A    between atoms: C2_2  and  O1_3 
REMARK    2  A    between atoms: C2_2  and  C6_8 
REMARK    3  A    between atoms: O1_3  and  C3_4 
REMARK    4  A    between atoms: C4_5  and  C5_6 
REMARK    5  A    between atoms: C5_6  and  O2_7 
REMARK    6  A    between atoms: C11_15  and  N3_16 
REMARK    7  A    between atoms: N3_16  and  C12_17 
REMARK    8  A    between atoms: C13_18  and  C14_19 
REMARK    9  A    between atoms: C14_19  and  C15_20 
REMARK   10  A    between atoms: C14_19  and  C16_22 
ROOT
HETATM    1  C6  UNL     1      28.925   6.146  48.148  1.00  0.00    -0.027 A 
HETATM    2  C7  UNL     1      28.317   7.390  47.951  1.00  0.00     0.012 A 
HETATM    3  C8  UNL     1      26.966   7.573  48.176  1.00  0.00     0.033 A 
HETATM    4  C9  UNL     1      26.196   6.489  48.609  1.00  0.00     0.072 A 
HETATM    5  N1  UNL     1      24.875   6.631  48.849  1.00  0.00    -0.241 NA
HETATM    6  C10 UNL     1      24.135   5.595  49.273  1.00  0.00     0.236 A 
HETATM    7  N2  UNL     1      24.698   4.371  49.473  1.00  0.00    -0.224 NA
HETATM    8  C11 UNL     1      26.027   4.185  49.243  1.00  0.00     0.141 A 
HETATM    9  C17 UNL     1      26.778   5.256  48.808  1.00  0.00     0.039 A 
HETATM   10  C18 UNL     1      28.148   5.096  48.573  1.00  0.00     0.027 A 
ENDROOT
BRANCH   8  11
HETATM   11  N3  UNL     1      26.577   2.870  49.469  1.00  0.00    -0.350 N 
HETATM   12  H11 UNL     1      26.967   2.085  48.902  1.00  0.00     0.166 HD
BRANCH  11  13
HETATM   13  C12 UNL     1      26.488   2.787  50.885  1.00  0.00     0.086 C 
HETATM   14  C13 UNL     1      26.899   2.038  51.890  1.00  0.00    -0.002 C 
BRANCH  14  15
HETATM   15  C14 UNL     1      26.738   2.049  53.345  1.00  0.00     0.052 C 
BRANCH  15  16
HETATM   16  C15 UNL     1      27.192   0.760  53.990  1.00  0.00     0.231 C 
HETATM   17  F1  UNL     1      28.073   0.151  53.120  1.00  0.00    -0.255 F 
ENDBRANCH  15  16
BRANCH  15  18
HETATM   18  C16 UNL     1      25.314   2.341  53.750  1.00  0.00     0.125 C 
HETATM   19 CL1  UNL     1      24.262   1.022  53.193  1.00  0.00    -0.130 Cl
ENDBRANCH  15  18
ENDBRANCH  14  15
ENDBRANCH  11  13
ENDBRANCH   8  11
BRANCH   1  20
HETATM   20  C2  UNL     1      30.356   6.046  47.899  1.00  0.00     0.169 C 
HETATM   21  C1  UNL     1      30.891   6.922  46.806  1.00  0.00     0.046 C 
BRANCH  20  22
HETATM   22  O1  UNL     1      30.826   4.724  47.664  1.00  0.00    -0.294 OA
BRANCH  22  23
HETATM   23  C3  UNL     1      32.186   4.470  47.786  1.00  0.00     0.057 C 
HETATM   24  C4  UNL     1      33.367   4.238  47.873  1.00  0.00    -0.051 C 
BRANCH  24  25
HETATM   25  C5  UNL     1      34.813   3.938  47.959  1.00  0.00     0.260 C 
BRANCH  25  26
HETATM   26  O2  UNL     1      35.338   4.355  49.203  1.00  0.00    -0.389 OA
HETATM   27  H7  UNL     1      36.164   3.815  49.340  1.00  0.00     0.210 HD
ENDBRANCH  25  26
ENDBRANCH  24  25
ENDBRANCH  22  23
ENDBRANCH  20  22
ENDBRANCH   1  20
TORSDOF 10
ENDMDL
MODEL 8
REMARK VINA RESULT:      -6.7      3.862      5.607
REMARK  10 active torsions:
REMARK  status: ('A' for Active; 'I' for Inactive)
REMARK    1  A    between atoms: C2_2  and  O1_3 
REMARK    2  A    between atoms: C2_2  and  C6_8 
REMARK    3  A    between atoms: O1_3  and  C3_4 
REMARK    4  A    between atoms: C4_5  and  C5_6 
REMARK    5  A    between atoms: C5_6  and  O2_7 
REMARK    6  A    between atoms: C11_15  and  N3_16 
REMARK    7  A    between atoms: N3_16  and  C12_17 
REMARK    8  A    between atoms: C13_18  and  C14_19 
REMARK    9  A    between atoms: C14_19  and  C15_20 
REMARK   10  A    between atoms: C14_19  and  C16_22 
ROOT
HETATM    1  C6  UNL     1      24.592   5.328  49.805  1.00  0.00    -0.027 A 
HETATM    2  C7  UNL     1      23.816   4.799  48.770  1.00  0.00     0.012 A 
HETATM    3  C8  UNL     1      23.172   3.585  48.904  1.00  0.00     0.033 A 
HETATM    4  C9  UNL     1      23.301   2.875  50.101  1.00  0.00     0.072 A 
HETATM    5  N1  UNL     1      22.679   1.689  50.274  1.00  0.00    -0.241 NA
HETATM    6  C10 UNL     1      22.795   1.010  51.425  1.00  0.00     0.236 A 
HETATM    7  N2  UNL     1      23.544   1.499  52.452  1.00  0.00    -0.224 NA
HETATM    8  C11 UNL     1      24.188   2.691  52.319  1.00  0.00     0.141 A 
HETATM    9  C17 UNL     1      24.063   3.381  51.133  1.00  0.00     0.039 A 
HETATM   10  C18 UNL     1      24.706   4.613  50.972  1.00  0.00     0.027 A 
ENDROOT
BRANCH   8  11
HETATM   11  N3  UNL     1      24.970   3.167  53.434  1.00  0.00    -0.350 N 
HETATM   12  H11 UNL     1      25.119   4.061  53.952  1.00  0.00     0.166 HD
BRANCH  11  13
HETATM   13  C12 UNL     1      25.658   1.977  53.802  1.00  0.00     0.086 C 
HETATM   14  C13 UNL     1      26.854   1.427  53.728  1.00  0.00    -0.002 C 
BRANCH  14  15
HETATM   15  C14 UNL     1      27.459   0.163  54.151  1.00  0.00     0.052 C 
BRANCH  15  16
HETATM   16  C15 UNL     1      28.731   0.362  54.942  1.00  0.00     0.231 C 
HETATM   17  F1  UNL     1      29.208   1.623  54.646  1.00  0.00    -0.255 F 
ENDBRANCH  15  16
BRANCH  15  18
HETATM   18  C16 UNL     1      27.732  -0.748  52.978  1.00  0.00     0.125 C 
HETATM   19 CL1  UNL     1      29.363  -1.436  53.136  1.00  0.00    -0.130 Cl
ENDBRANCH  15  18
ENDBRANCH  14  15
ENDBRANCH  11  13
ENDBRANCH   8  11
BRANCH   1  20
HETATM   20  C2  UNL     1      25.226   6.620  49.583  1.00  0.00     0.169 C 
HETATM   21  C1  UNL     1      24.334   7.818  49.723  1.00  0.00     0.046 C 
BRANCH  20  22
HETATM   22  O1  UNL     1      25.917   6.738  48.344  1.00  0.00    -0.294 OA
BRANCH  22  23
HETATM   23  C3  UNL     1      27.244   6.336  48.282  1.00  0.00     0.057 C 
HETATM   24  C4  UNL     1      28.396   5.978  48.248  1.00  0.00    -0.051 C 
BRANCH  24  25
HETATM   25  C5  UNL     1      29.806   5.532  48.229  1.00  0.00     0.260 C 
BRANCH  25  26
HETATM   26  O2  UNL     1      30.401   5.694  49.501  1.00  0.00    -0.389 OA
HETATM   27  H7  UNL     1      29.705   5.421  50.159  1.00  0.00     0.210 HD
ENDBRANCH  25  26
ENDBRANCH  24  25
ENDBRANCH  22  23
ENDBRANCH  20  22
ENDBRANCH   1  20
TORSDOF 10
ENDMDL
MODEL 9
REMARK VINA RESULT:      -6.7      5.413      7.874
REMARK  10 active torsions:
REMARK  status: ('A' for Active; 'I' for Inactive)
REMARK    1  A    between atoms: C2_2  and  O1_3 
REMARK    2  A    between atoms: C2_2  and  C6_8 
REMARK    3  A    between atoms: O1_3  and  C3_4 
REMARK    4  A    between atoms: C4_5  and  C5_6 
REMARK    5  A    between atoms: C5_6  and  O2_7 
REMARK    6  A    between atoms: C11_15  and  N3_16 
REMARK    7  A    between atoms: N3_16  and  C12_17 
REMARK    8  A    between atoms: C13_18  and  C14_19 
REMARK    9  A    between atoms: C14_19  and  C15_20 
REMARK   10  A    between atoms: C14_19  and  C16_22 
ROOT
HETATM    1  C6  UNL     1      26.556   6.975  48.097  1.00  0.00    -0.027 A 
HETATM    2  C7  UNL     1      25.315   7.386  47.604  1.00  0.00     0.012 A 
HETATM    3  C8  UNL     1      24.153   6.712  47.930  1.00  0.00     0.033 A 
HETATM    4  C9  UNL     1      24.227   5.598  48.771  1.00  0.00     0.072 A 
HETATM    5  N1  UNL     1      23.113   4.919  49.120  1.00  0.00    -0.241 NA
HETATM    6  C10 UNL     1      23.180   3.855  49.933  1.00  0.00     0.236 A 
HETATM    7  N2  UNL     1      24.375   3.429  50.430  1.00  0.00    -0.224 NA
HETATM    8  C11 UNL     1      25.522   4.085  50.103  1.00  0.00     0.141 A 
HETATM    9  C17 UNL     1      25.443   5.178  49.266  1.00  0.00     0.039 A 
HETATM   10  C18 UNL     1      26.605   5.877  48.921  1.00  0.00     0.027 A 
ENDROOT
BRANCH   8  11
HETATM   11  N3  UNL     1      26.763   3.597  50.653  1.00  0.00    -0.350 N 
HETATM   12  H11 UNL     1      27.761   3.900  50.705  1.00  0.00     0.166 HD
BRANCH  11  13
HETATM   13  C12 UNL     1      26.329   2.377  51.242  1.00  0.00     0.086 C 
HETATM   14  C13 UNL     1      26.809   1.231  51.684  1.00  0.00    -0.002 C 
BRANCH  14  15
HETATM   15  C14 UNL     1      26.251   0.017  52.283  1.00  0.00     0.052 C 
BRANCH  15  16
HETATM   16  C15 UNL     1      24.909   0.254  52.935  1.00  0.00     0.231 C 
HETATM   17  F1  UNL     1      24.560  -0.909  53.592  1.00  0.00    -0.255 F 
ENDBRANCH  15  16
BRANCH  15  18
HETATM   18  C16 UNL     1      27.197  -0.600  53.284  1.00  0.00     0.125 C 
HETATM   19 CL1  UNL     1      28.060   0.690  54.150  1.00  0.00    -0.130 Cl
ENDBRANCH  15  18
ENDBRANCH  14  15
ENDBRANCH  11  13
ENDBRANCH   8  11
BRANCH   1  20
HETATM   20  C2  UNL     1      27.727   7.751  47.713  1.00  0.00     0.169 C 
HETATM   21  C1  UNL     1      27.469   8.916  46.805  1.00  0.00     0.046 C 
BRANCH  20  22
HETATM   22  O1  UNL     1      28.786   6.987  47.148  1.00  0.00    -0.294 OA
BRANCH  22  23
HETATM   23  C3  UNL     1      29.835   6.594  47.969  1.00  0.00     0.057 C 
HETATM   24  C4  UNL     1      30.760   6.263  48.669  1.00  0.00    -0.051 C 
BRANCH  24  25
HETATM   25  C5  UNL     1      31.910   5.869  49.512  1.00  0.00     0.260 C 
BRANCH  25  26
HETATM   26  O2  UNL     1      31.476   5.448  50.789  1.00  0.00    -0.389 OA
HETATM   27  H7  UNL     1      31.219   4.491  50.683  1.00  0.00     0.210 HD
ENDBRANCH  25  26
ENDBRANCH  24  25
ENDBRANCH  22  23
ENDBRANCH  20  22
ENDBRANCH   1  20
TORSDOF 10
ENDMDL
