MODEL 1
REMARK VINA RESULT:      -8.8      0.000      0.000
REMARK  6 active torsions:
REMARK  status: ('A' for Active; 'I' for Inactive)
REMARK    1  A    between atoms: C2_2  and  C3_3 
REMARK    2  A    between atoms: C3_3  and  C5_5 
REMARK    3  A    between atoms: C6_6  and  C7_7 
REMARK    4  A    between atoms: C8_8  and  O1_9 
REMARK    5  A    between atoms: O1_9  and  C9_10 
REMARK    6  A    between atoms: N3_16  and  C13_17 
ROOT
HETATM    1  C9  UNL     1      26.657   1.842  52.506  1.00  0.00     0.199 A 
HETATM    2  N1  UNL     1      27.899   2.353  52.498  1.00  0.00    -0.215 NA
HETATM    3  C10 UNL     1      28.743   2.031  53.495  1.00  0.00     0.236 A 
HETATM    4  N2  UNL     1      28.326   1.193  54.491  1.00  0.00    -0.242 NA
HETATM    5  C11 UNL     1      27.083   0.683  54.494  1.00  0.00     0.085 A 
HETATM    6  C12 UNL     1      26.202   1.000  53.484  1.00  0.00     0.116 A 
HETATM    7  N3  UNL     1      25.203   0.196  54.091  1.00  0.00    -0.336 N 
HETATM    8  C19 UNL     1      26.091  -0.188  55.173  1.00  0.00     0.191 A 
ENDROOT
BRANCH   1   9
HETATM    9  O1  UNL     1      25.730   2.122  51.521  1.00  0.00    -0.302 OA
BRANCH   9  10
HETATM   10  C8  UNL     1      25.998   3.145  50.641  1.00  0.00     0.144 C 
HETATM   11  C7  UNL     1      26.356   3.572  49.443  1.00  0.00     0.021 C 
BRANCH  11  12
HETATM   12  C6  UNL     1      26.479   5.002  49.073  1.00  0.00    -0.019 C 
HETATM   13  C5  UNL     1      27.709   4.891  48.720  1.00  0.00     0.026 C 
BRANCH  13  14
HETATM   14  C3  UNL     1      28.920   5.448  48.219  1.00  0.00    -0.020 C 
HETATM   15  C4  UNL     1      28.606   6.700  47.859  1.00  0.00     0.012 C 
BRANCH  14  16
HETATM   16  C2  UNL     1      30.270   5.687  47.795  1.00  0.00     0.018 C 
HETATM   17  C1  UNL     1      31.417   5.045  47.746  1.00  0.00    -0.012 C 
ENDBRANCH  14  16
ENDBRANCH  13  14
ENDBRANCH  11  12
ENDBRANCH   9  10
ENDBRANCH   1   9
BRANCH   7  18
HETATM   18  C13 UNL     1      23.851  -0.173  53.862  1.00  0.00     0.036 A 
HETATM   19  C14 UNL     1      23.161  -1.005  54.718  1.00  0.00     0.030 A 
HETATM   20  C15 UNL     1      21.854  -1.412  54.584  1.00  0.00     0.004 A 
HETATM   21  C16 UNL     1      21.141  -0.958  53.497  1.00  0.00     0.019 A 
HETATM   22  C17 UNL     1      21.762  -0.132  52.612  1.00  0.00     0.013 A 
HETATM   23 BR1  UNL     1      20.761   0.488  51.111  1.00  0.00    -0.051 Br
HETATM   24  C18 UNL     1      23.069   0.235  52.807  1.00  0.00     0.048 A 
ENDBRANCH   7  18
TORSDOF 6
ENDMDL
MODEL 2
REMARK VINA RESULT:      -8.7      1.393      2.303
REMARK  6 active torsions:
REMARK  status: ('A' for Active; 'I' for Inactive)
REMARK    1  A    between atoms: C2_2  and  C3_3 
REMARK    2  A    between atoms: C3_3  and  C5_5 
REMARK    3  A    between atoms: C6_6  and  C7_7 
REMARK    4  A    between atoms: C8_8  and  O1_9 
REMARK    5  A    between atoms: O1_9  and  C9_10 
REMARK    6  A    between atoms: N3_16  and  C13_17 
ROOT
HETATM    1  C9  UNL     1      26.316   2.013  53.799  1.00  0.00     0.199 A 
HETATM    2  N1  UNL     1      27.602   2.393  53.855  1.00  0.00    -0.215 NA
HETATM    3  C10 UNL     1      28.563   1.456  53.774  1.00  0.00     0.236 A 
HETATM    4  N2  UNL     1      28.217   0.141  53.635  1.00  0.00    -0.242 NA
HETATM    5  C11 UNL     1      26.928  -0.235  53.579  1.00  0.00     0.085 A 
HETATM    6  C12 UNL     1      25.927   0.708  53.660  1.00  0.00     0.116 A 
HETATM    7  N3  UNL     1      24.946  -0.311  53.552  1.00  0.00    -0.336 N 
HETATM    8  C19 UNL     1      25.955  -1.348  53.444  1.00  0.00     0.191 A 
ENDROOT
BRANCH   1   9
HETATM    9  O1  UNL     1      25.269   2.912  53.874  1.00  0.00    -0.302 OA
BRANCH   9  10
HETATM   10  C8  UNL     1      24.594   3.229  52.718  1.00  0.00     0.144 C 
HETATM   11  C7  UNL     1      23.496   3.614  52.093  1.00  0.00     0.021 C 
BRANCH  11  12
HETATM   12  C6  UNL     1      23.394   3.793  50.625  1.00  0.00    -0.019 C 
HETATM   13  C5  UNL     1      24.632   4.107  50.493  1.00  0.00     0.026 C 
BRANCH  13  14
HETATM   14  C3  UNL     1      25.746   4.484  49.691  1.00  0.00    -0.020 C 
HETATM   15  C4  UNL     1      26.488   3.375  49.578  1.00  0.00     0.012 C 
BRANCH  14  16
HETATM   16  C2  UNL     1      26.706   5.182  48.883  1.00  0.00     0.018 C 
HETATM   17  C1  UNL     1      27.966   5.063  48.526  1.00  0.00    -0.012 C 
ENDBRANCH  14  16
ENDBRANCH  13  14
ENDBRANCH  11  12
ENDBRANCH   9  10
ENDBRANCH   1   9
BRANCH   7  18
HETATM   18  C13 UNL     1      23.531  -0.427  53.544  1.00  0.00     0.036 A 
HETATM   19  C14 UNL     1      22.838  -1.033  54.570  1.00  0.00     0.030 A 
HETATM   20  C15 UNL     1      21.474  -1.188  54.654  1.00  0.00     0.004 A 
HETATM   21  C16 UNL     1      20.700  -0.698  53.626  1.00  0.00     0.019 A 
HETATM   22  C17 UNL     1      21.320  -0.087  52.581  1.00  0.00     0.013 A 
HETATM   23 BR1  UNL     1      20.236   0.586  51.164  1.00  0.00    -0.051 Br
HETATM   24  C18 UNL     1      22.687   0.034  52.561  1.00  0.00     0.048 A 
ENDBRANCH   7  18
TORSDOF 6
ENDMDL
MODEL 3
REMARK VINA RESULT:      -8.5      2.820      5.333
REMARK  6 active torsions:
REMARK  status: ('A' for Active; 'I' for Inactive)
REMARK    1  A    between atoms: C2_2  and  C3_3 
REMARK    2  A    between atoms: C3_3  and  C5_5 
REMARK    3  A    between atoms: C6_6  and  C7_7 
REMARK    4  A    between atoms: C8_8  and  O1_9 
REMARK    5  A    between atoms: O1_9  and  C9_10 
REMARK    6  A    between atoms: N3_16  and  C13_17 
ROOT
HETATM    1  C9  UNL     1      22.386  -0.128  52.834  1.00  0.00     0.199 A 
HETATM    2  N1  UNL     1      21.100  -0.508  52.892  1.00  0.00    -0.215 NA
HETATM    3  C10 UNL     1      20.674  -1.211  53.956  1.00  0.00     0.236 A 
HETATM    4  N2  UNL     1      21.552  -1.524  54.956  1.00  0.00    -0.242 NA
HETATM    5  C11 UNL     1      22.839  -1.141  54.895  1.00  0.00     0.085 A 
HETATM    6  C12 UNL     1      23.297  -0.421  53.813  1.00  0.00     0.116 A 
HETATM    7  N3  UNL     1      24.599  -0.388  54.375  1.00  0.00    -0.336 N 
HETATM    8  C19 UNL     1      24.172  -1.130  55.547  1.00  0.00     0.191 A 
ENDROOT
BRANCH   1   9
HETATM    9  O1  UNL     1      22.903   0.596  51.777  1.00  0.00    -0.302 OA
BRANCH   9  10
HETATM   10  C8  UNL     1      23.088   1.950  51.940  1.00  0.00     0.144 C 
HETATM   11  C7  UNL     1      23.057   3.036  52.691  1.00  0.00     0.021 C 
BRANCH  11  12
HETATM   12  C6  UNL     1      23.427   4.389  52.211  1.00  0.00    -0.019 C 
HETATM   13  C5  UNL     1      24.291   3.947  51.370  1.00  0.00     0.026 C 
BRANCH  13  14
HETATM   14  C3  UNL     1      25.272   4.156  50.360  1.00  0.00    -0.020 C 
HETATM   15  C4  UNL     1      26.108   3.114  50.462  1.00  0.00     0.012 C 
BRANCH  14  16
HETATM   16  C2  UNL     1      26.068   4.660  49.276  1.00  0.00     0.018 C 
HETATM   17  C1  UNL     1      27.306   4.577  48.840  1.00  0.00    -0.012 C 
ENDBRANCH  14  16
ENDBRANCH  13  14
ENDBRANCH  11  12
ENDBRANCH   9  10
ENDBRANCH   1   9
BRANCH   7  18
HETATM   18  C13 UNL     1      25.886   0.114  54.046  1.00  0.00     0.036 A 
HETATM   19  C14 UNL     1      26.120   1.456  53.841  1.00  0.00     0.030 A 
HETATM   20  C15 UNL     1      27.328   2.035  53.526  1.00  0.00     0.004 A 
HETATM   21  C16 UNL     1      28.426   1.216  53.396  1.00  0.00     0.019 A 
HETATM   22  C17 UNL     1      28.265  -0.122  53.585  1.00  0.00     0.013 A 
HETATM   23 BR1  UNL     1      29.796  -1.244  53.402  1.00  0.00    -0.051 Br
HETATM   24  C18 UNL     1      27.031  -0.633  53.899  1.00  0.00     0.048 A 
ENDBRANCH   7  18
TORSDOF 6
ENDMDL
MODEL 4
REMARK VINA RESULT:      -8.3      2.784      5.051
REMARK  6 active torsions:
REMARK  status: ('A' for Active; 'I' for Inactive)
REMARK    1  A    between atoms: C2_2  and  C3_3 
REMARK    2  A    between atoms: C3_3  and  C5_5 
REMARK    3  A    between atoms: C6_6  and  C7_7 
REMARK    4  A    between atoms: C8_8  and  O1_9 
REMARK    5  A    between atoms: O1_9  and  C9_10 
REMARK    6  A    between atoms: N3_16  and  C13_17 
ROOT
HETATM    1  C9  UNL     1      21.755   0.608  51.771  1.00  0.00     0.199 A 
HETATM    2  N1  UNL     1      20.417   0.672  51.685  1.00  0.00    -0.215 NA
HETATM    3  C10 UNL     1      19.674   0.133  52.668  1.00  0.00     0.236 A 
HETATM    4  N2  UNL     1      20.289  -0.466  53.731  1.00  0.00    -0.242 NA
HETATM    5  C11 UNL     1      21.629  -0.527  53.814  1.00  0.00     0.085 A 
HETATM    6  C12 UNL     1      22.410   0.017  52.819  1.00  0.00     0.116 A 
HETATM    7  N3  UNL     1      23.583  -0.388  53.505  1.00  0.00    -0.336 N 
HETATM    8  C19 UNL     1      22.814  -0.965  54.592  1.00  0.00     0.191 A 
ENDROOT
BRANCH   1   9
HETATM    9  O1  UNL     1      22.590   1.136  50.806  1.00  0.00    -0.302 OA
BRANCH   9  10
HETATM   10  C8  UNL     1      23.095   2.402  50.998  1.00  0.00     0.144 C 
HETATM   11  C7  UNL     1      23.377   3.423  51.787  1.00  0.00     0.021 C 
BRANCH  11  12
HETATM   12  C6  UNL     1      24.006   4.683  51.323  1.00  0.00    -0.019 C 
HETATM   13  C5  UNL     1      24.931   4.078  50.667  1.00  0.00     0.026 C 
BRANCH  13  14
HETATM   14  C3  UNL     1      26.088   4.094  49.839  1.00  0.00    -0.020 C 
HETATM   15  C4  UNL     1      26.647   2.886  49.995  1.00  0.00     0.012 C 
BRANCH  14  16
HETATM   16  C2  UNL     1      27.144   4.440  48.929  1.00  0.00     0.018 C 
HETATM   17  C1  UNL     1      27.755   5.519  48.493  1.00  0.00    -0.012 C 
ENDBRANCH  14  16
ENDBRANCH  13  14
ENDBRANCH  11  12
ENDBRANCH   9  10
ENDBRANCH   1   9
BRANCH   7  18
HETATM   18  C13 UNL     1      24.991  -0.334  53.327  1.00  0.00     0.036 A 
HETATM   19  C14 UNL     1      25.732  -1.446  52.992  1.00  0.00     0.030 A 
HETATM   20  C15 UNL     1      27.093  -1.491  52.794  1.00  0.00     0.004 A 
HETATM   21  C16 UNL     1      27.808  -0.324  52.939  1.00  0.00     0.019 A 
HETATM   22  C17 UNL     1      27.138   0.813  53.269  1.00  0.00     0.013 A 
HETATM   23 BR1  UNL     1      28.143   2.422  53.466  1.00  0.00    -0.051 Br
HETATM   24  C18 UNL     1      25.778   0.787  53.451  1.00  0.00     0.048 A 
ENDBRANCH   7  18
TORSDOF 6
ENDMDL
MODEL 5
REMARK VINA RESULT:      -8.3      2.585      4.695
REMARK  6 active torsions:
REMARK  status: ('A' for Active; 'I' for Inactive)
REMARK    1  A    between atoms: C2_2  and  C3_3 
REMARK    2  A    between atoms: C3_3  and  C5_5 
REMARK    3  A    between atoms: C6_6  and  C7_7 
REMARK    4  A    between atoms: C8_8  and  O1_9 
REMARK    5  A    between atoms: O1_9  and  C9_10 
REMARK    6  A    between atoms: N3_16  and  C13_17 
ROOT
HETATM    1  C9  UNL     1      23.091   2.715  52.490  1.00  0.00     0.199 A 
HETATM    2  N1  UNL     1      21.771   2.868  52.301  1.00  0.00    -0.215 NA
HETATM    3  C10 UNL     1      20.948   1.844  52.589  1.00  0.00     0.236 A 
HETATM    4  N2  UNL     1      21.465   0.673  53.067  1.00  0.00    -0.242 NA
HETATM    5  C11 UNL     1      22.788   0.524  53.255  1.00  0.00     0.085 A 
HETATM    6  C12 UNL     1      23.649   1.559  52.967  1.00  0.00     0.116 A 
HETATM    7  N3  UNL     1      24.754   0.761  53.360  1.00  0.00    -0.336 N 
HETATM    8  C19 UNL     1      23.895  -0.359  53.697  1.00  0.00     0.191 A 
ENDROOT
BRANCH   1   9
HETATM    9  O1  UNL     1      24.003   3.716  52.221  1.00  0.00    -0.302 OA
BRANCH   9  10
HETATM   10  C8  UNL     1      24.928   3.509  51.224  1.00  0.00     0.144 C 
HETATM   11  C7  UNL     1      25.227   3.231  49.968  1.00  0.00     0.021 C 
BRANCH  11  12
HETATM   12  C6  UNL     1      26.611   3.135  49.444  1.00  0.00    -0.019 C 
HETATM   13  C5  UNL     1      26.680   4.386  49.161  1.00  0.00     0.026 C 
BRANCH  13  14
HETATM   14  C3  UNL     1      27.384   5.515  48.654  1.00  0.00    -0.020 C 
HETATM   15  C4  UNL     1      26.447   6.451  48.453  1.00  0.00     0.012 C 
BRANCH  14  16
HETATM   16  C2  UNL     1      28.376   6.439  48.181  1.00  0.00     0.018 C 
HETATM   17  C1  UNL     1      29.569   6.407  47.628  1.00  0.00    -0.012 C 
ENDBRANCH  14  16
ENDBRANCH  13  14
ENDBRANCH  11  12
ENDBRANCH   9  10
ENDBRANCH   1   9
BRANCH   7  18
HETATM   18  C13 UNL     1      26.168   0.868  53.438  1.00  0.00     0.036 A 
HETATM   19  C14 UNL     1      26.805   2.081  53.587  1.00  0.00     0.030 A 
HETATM   20  C15 UNL     1      28.163   2.284  53.678  1.00  0.00     0.004 A 
HETATM   21  C16 UNL     1      28.989   1.184  53.616  1.00  0.00     0.019 A 
HETATM   22  C17 UNL     1      28.425  -0.045  53.470  1.00  0.00     0.013 A 
HETATM   23 BR1  UNL     1      29.582  -1.559  53.385  1.00  0.00    -0.051 Br
HETATM   24  C18 UNL     1      27.062  -0.175  53.386  1.00  0.00     0.048 A 
ENDBRANCH   7  18
TORSDOF 6
ENDMDL
MODEL 6
REMARK VINA RESULT:      -8.1      1.448      1.964
REMARK  6 active torsions:
REMARK  status: ('A' for Active; 'I' for Inactive)
REMARK    1  A    between atoms: C2_2  and  C3_3 
REMARK    2  A    between atoms: C3_3  and  C5_5 
REMARK    3  A    between atoms: C6_6  and  C7_7 
REMARK    4  A    between atoms: C8_8  and  O1_9 
REMARK    5  A    between atoms: O1_9  and  C9_10 
REMARK    6  A    between atoms: N3_16  and  C13_17 
ROOT
HETATM    1  C9  UNL     1      26.962   1.251  52.654  1.00  0.00     0.199 A 
HETATM    2  N1  UNL     1      28.247   1.635  52.722  1.00  0.00    -0.215 NA
HETATM    3  C10 UNL     1      28.949   1.368  53.837  1.00  0.00     0.236 A 
HETATM    4  N2  UNL     1      28.349   0.713  54.875  1.00  0.00    -0.242 NA
HETATM    5  C11 UNL     1      27.062   0.330  54.803  1.00  0.00     0.085 A 
HETATM    6  C12 UNL     1      26.324   0.593  53.671  1.00  0.00     0.116 A 
HETATM    7  N3  UNL     1      25.189  -0.024  54.257  1.00  0.00    -0.336 N 
HETATM    8  C19 UNL     1      25.920  -0.344  55.469  1.00  0.00     0.191 A 
ENDROOT
BRANCH   1   9
HETATM    9  O1  UNL     1      26.172   1.486  51.546  1.00  0.00    -0.302 OA
BRANCH   9  10
HETATM   10  C8  UNL     1      26.538   2.492  50.682  1.00  0.00     0.144 C 
HETATM   11  C7  UNL     1      26.224   3.484  49.868  1.00  0.00     0.021 C 
BRANCH  11  12
HETATM   12  C6  UNL     1      27.217   4.298  49.128  1.00  0.00    -0.019 C 
HETATM   13  C5  UNL     1      26.392   5.258  48.908  1.00  0.00     0.026 C 
BRANCH  13  14
HETATM   14  C3  UNL     1      26.078   6.533  48.361  1.00  0.00    -0.020 C 
HETATM   15  C4  UNL     1      24.744   6.631  48.444  1.00  0.00     0.012 C 
BRANCH  14  16
HETATM   16  C2  UNL     1      26.114   7.840  47.767  1.00  0.00     0.018 C 
HETATM   17  C1  UNL     1      26.307   8.381  46.584  1.00  0.00    -0.012 C 
ENDBRANCH  14  16
ENDBRANCH  13  14
ENDBRANCH  11  12
ENDBRANCH   9  10
ENDBRANCH   1   9
BRANCH   7  18
HETATM   18  C13 UNL     1      23.833  -0.287  53.926  1.00  0.00     0.036 A 
HETATM   19  C14 UNL     1      23.008  -1.026  54.746  1.00  0.00     0.030 A 
HETATM   20  C15 UNL     1      21.686  -1.328  54.515  1.00  0.00     0.004 A 
HETATM   21  C16 UNL     1      21.105  -0.859  53.358  1.00  0.00     0.019 A 
HETATM   22  C17 UNL     1      21.864  -0.122  52.503  1.00  0.00     0.013 A 
HETATM   23 BR1  UNL     1      21.047   0.520  50.904  1.00  0.00    -0.051 Br
HETATM   24  C18 UNL     1      23.178   0.143  52.796  1.00  0.00     0.048 A 
ENDBRANCH   7  18
TORSDOF 6
ENDMDL
MODEL 7
REMARK VINA RESULT:      -8.0      3.524      6.139
REMARK  6 active torsions:
REMARK  status: ('A' for Active; 'I' for Inactive)
REMARK    1  A    between atoms: C2_2  and  C3_3 
REMARK    2  A    between atoms: C3_3  and  C5_5 
REMARK    3  A    between atoms: C6_6  and  C7_7 
REMARK    4  A    between atoms: C8_8  and  O1_9 
REMARK    5  A    between atoms: O1_9  and  C9_10 
REMARK    6  A    between atoms: N3_16  and  C13_17 
ROOT
HETATM    1  C9  UNL     1      19.600   0.896  52.085  1.00  0.00     0.199 A 
HETATM    2  N1  UNL     1      18.327   0.475  52.022  1.00  0.00    -0.215 NA
HETATM    3  C10 UNL     1      17.976  -0.640  52.687  1.00  0.00     0.236 A 
HETATM    4  N2  UNL     1      18.914  -1.322  53.410  1.00  0.00    -0.242 NA
HETATM    5  C11 UNL     1      20.187  -0.897  53.471  1.00  0.00     0.085 A 
HETATM    6  C12 UNL     1      20.570   0.243  52.798  1.00  0.00     0.116 A 
HETATM    7  N3  UNL     1      21.900   0.083  53.263  1.00  0.00    -0.336 N 
HETATM    8  C19 UNL     1      21.554  -1.115  54.006  1.00  0.00     0.191 A 
ENDROOT
BRANCH   1   9
HETATM    9  O1  UNL     1      20.043   2.031  51.433  1.00  0.00    -0.302 OA
BRANCH   9  10
HETATM   10  C8  UNL     1      20.766   1.880  50.273  1.00  0.00     0.144 C 
HETATM   11  C7  UNL     1      21.183   1.139  49.262  1.00  0.00     0.021 C 
BRANCH  11  12
HETATM   12  C6  UNL     1      22.078   1.628  48.186  1.00  0.00    -0.019 C 
HETATM   13  C5  UNL     1      22.806   2.317  48.989  1.00  0.00     0.026 C 
BRANCH  13  14
HETATM   14  C3  UNL     1      23.901   3.190  49.244  1.00  0.00    -0.020 C 
HETATM   15  C4  UNL     1      23.370   4.419  49.272  1.00  0.00     0.012 C 
BRANCH  14  16
HETATM   16  C2  UNL     1      25.190   3.765  49.505  1.00  0.00     0.018 C 
HETATM   17  C1  UNL     1      26.450   3.388  49.536  1.00  0.00    -0.012 C 
ENDBRANCH  14  16
ENDBRANCH  13  14
ENDBRANCH  11  12
ENDBRANCH   9  10
ENDBRANCH   1   9
BRANCH   7  18
HETATM   18  C13 UNL     1      23.156   0.732  53.135  1.00  0.00     0.036 A 
HETATM   19  C14 UNL     1      23.268   2.102  53.040  1.00  0.00     0.030 A 
HETATM   20  C15 UNL     1      24.436   2.819  52.920  1.00  0.00     0.004 A 
HETATM   21  C16 UNL     1      25.624   2.124  52.888  1.00  0.00     0.019 A 
HETATM   22  C17 UNL     1      25.586   0.768  52.978  1.00  0.00     0.013 A 
HETATM   23 BR1  UNL     1      27.240  -0.181  52.934  1.00  0.00    -0.051 Br
HETATM   24  C18 UNL     1      24.385   0.115  53.097  1.00  0.00     0.048 A 
ENDBRANCH   7  18
TORSDOF 6
ENDMDL
MODEL 8
REMARK VINA RESULT:      -7.9      2.757      3.761
REMARK  6 active torsions:
REMARK  status: ('A' for Active; 'I' for Inactive)
REMARK    1  A    between atoms: C2_2  and  C3_3 
REMARK    2  A    between atoms: C3_3  and  C5_5 
REMARK    3  A    between atoms: C6_6  and  C7_7 
REMARK    4  A    between atoms: C8_8  and  O1_9 
REMARK    5  A    between atoms: O1_9  and  C9_10 
REMARK    6  A    between atoms: N3_16  and  C13_17 
ROOT
HETATM    1  C9  UNL     1      26.223   2.041  53.613  1.00  0.00     0.199 A 
HETATM    2  N1  UNL     1      27.506   2.419  53.733  1.00  0.00    -0.215 NA
HETATM    3  C10 UNL     1      28.429   1.498  54.064  1.00  0.00     0.236 A 
HETATM    4  N2  UNL     1      28.049   0.201  54.269  1.00  0.00    -0.242 NA
HETATM    5  C11 UNL     1      26.764  -0.173  54.147  1.00  0.00     0.085 A 
HETATM    6  C12 UNL     1      25.802   0.753  53.810  1.00  0.00     0.116 A 
HETATM    7  N3  UNL     1      24.801  -0.251  53.869  1.00  0.00    -0.336 N 
HETATM    8  C19 UNL     1      25.772  -1.275  54.210  1.00  0.00     0.191 A 
ENDROOT
BRANCH   1   9
HETATM    9  O1  UNL     1      25.215   2.923  53.277  1.00  0.00    -0.302 OA
BRANCH   9  10
HETATM   10  C8  UNL     1      24.980   3.171  51.944  1.00  0.00     0.144 C 
HETATM   11  C7  UNL     1      24.381   2.875  50.804  1.00  0.00     0.021 C 
BRANCH  11  12
HETATM   12  C6  UNL     1      24.571   3.633  49.544  1.00  0.00    -0.019 C 
HETATM   13  C5  UNL     1      23.495   3.180  49.011  1.00  0.00     0.026 C 
BRANCH  13  14
HETATM   14  C3  UNL     1      22.573   3.104  47.928  1.00  0.00    -0.020 C 
HETATM   15  C4  UNL     1      22.223   1.813  47.856  1.00  0.00     0.012 C 
BRANCH  14  16
HETATM   16  C2  UNL     1      21.705   3.379  46.819  1.00  0.00     0.018 C 
HETATM   17  C1  UNL     1      21.800   3.750  45.561  1.00  0.00    -0.012 C 
ENDBRANCH  14  16
ENDBRANCH  13  14
ENDBRANCH  11  12
ENDBRANCH   9  10
ENDBRANCH   1   9
BRANCH   7  18
HETATM   18  C13 UNL     1      23.396  -0.362  53.700  1.00  0.00     0.036 A 
HETATM   19  C14 UNL     1      22.592  -0.988  54.628  1.00  0.00     0.030 A 
HETATM   20  C15 UNL     1      21.226  -1.139  54.555  1.00  0.00     0.004 A 
HETATM   21  C16 UNL     1      20.574  -0.625  53.457  1.00  0.00     0.019 A 
HETATM   22  C17 UNL     1      21.308   0.006  52.501  1.00  0.00     0.013 A 
HETATM   23 BR1  UNL     1      20.391   0.712  50.986  1.00  0.00    -0.051 Br
HETATM   24  C18 UNL     1      22.668   0.122  52.638  1.00  0.00     0.048 A 
ENDBRANCH   7  18
TORSDOF 6
ENDMDL
MODEL 9
REMARK VINA RESULT:      -7.7      4.362      9.082
REMARK  6 active torsions:
REMARK  status: ('A' for Active; 'I' for Inactive)
REMARK    1  A    between atoms: C2_2  and  C3_3 
REMARK    2  A    between atoms: C3_3  and  C5_5 
REMARK    3  A    between atoms: C6_6  and  C7_7 
REMARK    4  A    between atoms: C8_8  and  O1_9 
REMARK    5  A    between atoms: O1_9  and  C9_10 
REMARK    6  A    between atoms: N3_16  and  C13_17 
ROOT
HETATM    1  C9  UNL     1      26.616   5.093  48.928  1.00  0.00     0.199 A 
HETATM    2  N1  UNL     1      25.291   5.295  48.997  1.00  0.00    -0.215 NA
HETATM    3  C10 UNL     1      24.791   6.482  48.609  1.00  0.00     0.236 A 
HETATM    4  N2  UNL     1      25.635   7.456  48.153  1.00  0.00    -0.242 NA
HETATM    5  C11 UNL     1      26.961   7.249  48.085  1.00  0.00     0.085 A 
HETATM    6  C12 UNL     1      27.495   6.041  48.477  1.00  0.00     0.116 A 
HETATM    7  N3  UNL     1      28.799   6.507  48.170  1.00  0.00    -0.336 N 
HETATM    8  C19 UNL     1      28.294   7.794  47.727  1.00  0.00     0.191 A 
ENDROOT
BRANCH   1   9
HETATM    9  O1  UNL     1      27.209   3.904  49.305  1.00  0.00    -0.302 OA
BRANCH   9  10
HETATM   10  C8  UNL     1      26.696   3.232  50.391  1.00  0.00     0.144 C 
HETATM   11  C7  UNL     1      25.847   2.367  50.915  1.00  0.00     0.021 C 
BRANCH  11  12
HETATM   12  C6  UNL     1      25.785   2.034  52.359  1.00  0.00    -0.019 C 
HETATM   13  C5  UNL     1      26.661   1.100  52.267  1.00  0.00     0.026 C 
BRANCH  13  14
HETATM   14  C3  UNL     1      27.453   0.069  52.847  1.00  0.00    -0.020 C 
HETATM   15  C4  UNL     1      26.797  -1.068  52.582  1.00  0.00     0.012 C 
BRANCH  14  16
HETATM   16  C2  UNL     1      28.462  -0.696  53.524  1.00  0.00     0.018 C 
HETATM   17  C1  UNL     1      29.758  -0.907  53.446  1.00  0.00    -0.012 C 
ENDBRANCH  14  16
ENDBRANCH  13  14
ENDBRANCH  11  12
ENDBRANCH   9  10
ENDBRANCH   1   9
BRANCH   7  18
HETATM   18  C13 UNL     1      30.137   6.035  48.225  1.00  0.00     0.036 A 
HETATM   19  C14 UNL     1      31.106   6.662  48.978  1.00  0.00     0.030 A 
HETATM   20  C15 UNL     1      32.422   6.278  49.099  1.00  0.00     0.004 A 
HETATM   21  C16 UNL     1      32.837   5.161  48.410  1.00  0.00     0.019 A 
HETATM   22  C17 UNL     1      31.931   4.493  47.647  1.00  0.00     0.013 A 
HETATM   23 BR1  UNL     1      32.522   2.948  46.698  1.00  0.00    -0.051 Br
HETATM   24  C18 UNL     1      30.633   4.931  47.572  1.00  0.00     0.048 A 
ENDBRANCH   7  18
TORSDOF 6
ENDMDL
