MODEL 1
REMARK VINA RESULT:      -9.3      0.000      0.000
REMARK  2 active torsions:
REMARK  status: ('A' for Active; 'I' for Inactive)
REMARK    1  A    between atoms: O1_1  and  C1_2 
REMARK    2  A    between atoms: C3_5  and  N1_6 
ROOT
HETATM    1  N1  UNL     1      25.389   0.021  52.765  1.00  0.00    -0.232 N 
HETATM    2  N2  UNL     1      24.345  -0.777  53.243  1.00  0.00    -0.295 N 
HETATM    3  C4  UNL     1      23.014  -0.322  53.399  1.00  0.00     0.041 C 
HETATM    4  C5  UNL     1      22.292  -1.302  53.905  1.00  0.00    -0.004 C 
HETATM    5  C6  UNL     1      21.281  -0.951  54.681  1.00  0.00    -0.012 C 
HETATM    6  C7  UNL     1      20.334  -0.135  53.878  1.00  0.00     0.029 C 
HETATM    7  C8  UNL     1      21.025   1.156  53.538  1.00  0.00     0.015 C 
HETATM    8  C9  UNL     1      22.423   0.999  53.085  1.00  0.00     0.042 C 
HETATM    9  C10 UNL     1      22.683   1.346  51.643  1.00  0.00     0.051 C 
HETATM   10  C11 UNL     1      24.096   1.723  51.383  1.00  0.00    -0.029 A 
HETATM   11  C12 UNL     1      24.220   2.810  50.527  1.00  0.00     0.009 A 
HETATM   12  C13 UNL     1      25.433   3.343  50.141  1.00  0.00     0.001 A 
HETATM   13  C14 UNL     1      26.592   2.759  50.639  1.00  0.00     0.002 A 
HETATM   14  C15 UNL     1      26.480   1.684  51.486  1.00  0.00     0.032 A 
HETATM   15  C16 UNL     1      25.273   1.149  51.872  1.00  0.00     0.065 A 
HETATM   16  H3  UNL     1      24.671  -1.736  53.472  1.00  0.00     0.187 HD
ENDROOT
BRANCH   1  17
HETATM   17  C3  UNL     1      26.778  -0.226  53.150  1.00  0.00     0.195 A 
HETATM   18  S1  UNL     1      28.169   0.632  53.759  1.00  0.00    -0.058 SA
HETATM   19  C2  UNL     1      29.240  -0.936  53.782  1.00  0.00     0.111 A 
HETATM   20  C1  UNL     1      28.307  -1.864  53.301  1.00  0.00     0.171 A 
HETATM   21  N3  UNL     1      27.096  -1.439  53.006  1.00  0.00    -0.198 NA
BRANCH  20  22
HETATM   22  O1  UNL     1      28.845  -3.169  53.207  1.00  0.00    -0.344 OA
HETATM   23  H1  UNL     1      29.385  -3.444  52.398  1.00  0.00     0.219 HD
ENDBRANCH  20  22
ENDBRANCH   1  17
TORSDOF 2
ENDMDL
MODEL 2
REMARK VINA RESULT:      -8.9      2.305      4.540
REMARK  2 active torsions:
REMARK  status: ('A' for Active; 'I' for Inactive)
REMARK    1  A    between atoms: O1_1  and  C1_2 
REMARK    2  A    between atoms: C3_5  and  N1_6 
ROOT
HETATM    1  N1  UNL     1      24.203   1.026  52.235  1.00  0.00    -0.232 N 
HETATM    2  N2  UNL     1      24.015   1.912  51.170  1.00  0.00    -0.295 N 
HETATM    3  C4  UNL     1      22.928   1.838  50.267  1.00  0.00     0.041 C 
HETATM    4  C5  UNL     1      23.068   2.788  49.363  1.00  0.00    -0.004 C 
HETATM    5  C6  UNL     1      22.591   2.530  48.157  1.00  0.00    -0.012 C 
HETATM    6  C7  UNL     1      21.127   2.303  48.269  1.00  0.00     0.029 C 
HETATM    7  C8  UNL     1      20.925   1.030  49.044  1.00  0.00     0.015 C 
HETATM    8  C9  UNL     1      21.780   0.902  50.242  1.00  0.00     0.042 C 
HETATM    9  C10 UNL     1      21.059   0.942  51.564  1.00  0.00     0.051 C 
HETATM   10  C11 UNL     1      21.810   0.267  52.654  1.00  0.00    -0.029 A 
HETATM   11  C12 UNL     1      20.997  -0.502  53.477  1.00  0.00     0.009 A 
HETATM   12  C13 UNL     1      21.468  -1.223  54.556  1.00  0.00     0.001 A 
HETATM   13  C14 UNL     1      22.831  -1.177  54.829  1.00  0.00     0.002 A 
HETATM   14  C15 UNL     1      23.642  -0.420  54.020  1.00  0.00     0.032 A 
HETATM   15  C16 UNL     1      23.176   0.301  52.945  1.00  0.00     0.065 A 
HETATM   16  H3  UNL     1      24.772   2.621  51.123  1.00  0.00     0.187 HD
ENDROOT
BRANCH   1  17
HETATM   17  C3  UNL     1      25.535   0.733  52.760  1.00  0.00     0.195 A 
HETATM   18  S1  UNL     1      26.600  -0.624  53.024  1.00  0.00    -0.058 SA
HETATM   19  C2  UNL     1      27.969   0.474  53.750  1.00  0.00     0.111 A 
HETATM   20  C1  UNL     1      27.341   1.724  53.656  1.00  0.00     0.171 A 
HETATM   21  N3  UNL     1      26.126   1.778  53.151  1.00  0.00    -0.198 NA
BRANCH  20  22
HETATM   22  O1  UNL     1      28.155   2.772  54.144  1.00  0.00    -0.344 OA
HETATM   23  H1  UNL     1      27.740   3.630  54.482  1.00  0.00     0.219 HD
ENDBRANCH  20  22
ENDBRANCH   1  17
TORSDOF 2
ENDMDL
MODEL 3
REMARK VINA RESULT:      -8.8      2.164      4.589
REMARK  2 active torsions:
REMARK  status: ('A' for Active; 'I' for Inactive)
REMARK    1  A    between atoms: O1_1  and  C1_2 
REMARK    2  A    between atoms: C3_5  and  N1_6 
ROOT
HETATM    1  N1  UNL     1      25.886   1.841  52.577  1.00  0.00    -0.232 N 
HETATM    2  N2  UNL     1      25.934   3.018  51.825  1.00  0.00    -0.295 N 
HETATM    3  C4  UNL     1      24.964   3.374  50.858  1.00  0.00     0.041 C 
HETATM    4  C5  UNL     1      25.322   4.516  50.304  1.00  0.00    -0.004 C 
HETATM    5  C6  UNL     1      24.970   4.697  49.043  1.00  0.00    -0.012 C 
HETATM    6  C7  UNL     1      23.486   4.665  48.961  1.00  0.00     0.029 C 
HETATM    7  C8  UNL     1      23.046   3.265  49.287  1.00  0.00     0.015 C 
HETATM    8  C9  UNL     1      23.728   2.666  50.453  1.00  0.00     0.042 C 
HETATM    9  C10 UNL     1      22.860   2.421  51.659  1.00  0.00     0.051 C 
HETATM   10  C11 UNL     1      23.389   1.353  52.546  1.00  0.00    -0.029 A 
HETATM   11  C12 UNL     1      22.398   0.505  53.024  1.00  0.00     0.009 A 
HETATM   12  C13 UNL     1      22.647  -0.563  53.863  1.00  0.00     0.001 A 
HETATM   13  C14 UNL     1      23.962  -0.800  54.246  1.00  0.00     0.002 A 
HETATM   14  C15 UNL     1      24.948   0.033  53.779  1.00  0.00     0.032 A 
HETATM   15  C16 UNL     1      24.704   1.098  52.944  1.00  0.00     0.065 A 
HETATM   16  H3  UNL     1      26.768   3.590  52.060  1.00  0.00     0.187 HD
ENDROOT
BRANCH   1  17
HETATM   17  C3  UNL     1      27.102   1.213  53.092  1.00  0.00     0.195 A 
HETATM   18  S1  UNL     1      27.888  -0.343  53.136  1.00  0.00    -0.058 SA
HETATM   19  C2  UNL     1      29.368   0.328  54.118  1.00  0.00     0.111 A 
HETATM   20  C1  UNL     1      28.978   1.669  54.241  1.00  0.00     0.171 A 
HETATM   21  N3  UNL     1      27.834   2.041  53.704  1.00  0.00    -0.198 NA
BRANCH  20  22
HETATM   22  O1  UNL     1      29.922   2.441  54.956  1.00  0.00    -0.344 OA
HETATM   23  H1  UNL     1      29.673   3.350  55.321  1.00  0.00     0.219 HD
ENDBRANCH  20  22
ENDBRANCH   1  17
TORSDOF 2
ENDMDL
MODEL 4
REMARK VINA RESULT:      -8.5      3.502      6.458
REMARK  2 active torsions:
REMARK  status: ('A' for Active; 'I' for Inactive)
REMARK    1  A    between atoms: O1_1  and  C1_2 
REMARK    2  A    between atoms: C3_5  and  N1_6 
ROOT
HETATM    1  N1  UNL     1      23.726   1.459  52.196  1.00  0.00    -0.232 N 
HETATM    2  N2  UNL     1      25.098   1.460  51.932  1.00  0.00    -0.295 N 
HETATM    3  C4  UNL     1      26.077   1.003  52.847  1.00  0.00     0.041 C 
HETATM    4  C5  UNL     1      27.268   1.177  52.309  1.00  0.00    -0.004 C 
HETATM    5  C6  UNL     1      28.264   1.421  53.144  1.00  0.00    -0.012 C 
HETATM    6  C7  UNL     1      28.407   0.257  54.057  1.00  0.00     0.029 C 
HETATM    7  C8  UNL     1      27.179   0.208  54.924  1.00  0.00     0.015 C 
HETATM    8  C9  UNL     1      25.909   0.417  54.196  1.00  0.00     0.042 C 
HETATM    9  C10 UNL     1      24.996  -0.778  54.126  1.00  0.00     0.051 C 
HETATM   10  C11 UNL     1      23.572  -0.407  53.920  1.00  0.00    -0.029 A 
HETATM   11  C12 UNL     1      22.698  -1.161  54.693  1.00  0.00     0.009 A 
HETATM   12  C13 UNL     1      21.327  -0.996  54.675  1.00  0.00     0.001 A 
HETATM   13  C14 UNL     1      20.797  -0.022  53.837  1.00  0.00     0.002 A 
HETATM   14  C15 UNL     1      21.653   0.728  53.069  1.00  0.00     0.032 A 
HETATM   15  C16 UNL     1      23.019   0.566  53.084  1.00  0.00     0.065 A 
HETATM   16  H3  UNL     1      25.307   1.842  50.989  1.00  0.00     0.187 HD
ENDROOT
BRANCH   1  17
HETATM   17  C3  UNL     1      22.824   2.419  51.563  1.00  0.00     0.195 A 
HETATM   18  S1  UNL     1      21.621   2.493  50.302  1.00  0.00    -0.058 SA
HETATM   19  C2  UNL     1      21.294   4.341  50.595  1.00  0.00     0.111 A 
HETATM   20  C1  UNL     1      22.198   4.575  51.640  1.00  0.00     0.171 A 
HETATM   21  N3  UNL     1      22.930   3.570  52.073  1.00  0.00    -0.198 NA
BRANCH  20  22
HETATM   22  O1  UNL     1      22.176   5.919  52.080  1.00  0.00    -0.344 OA
HETATM   23  H1  UNL     1      21.811   6.649  51.483  1.00  0.00     0.219 HD
ENDBRANCH  20  22
ENDBRANCH   1  17
TORSDOF 2
ENDMDL
MODEL 5
REMARK VINA RESULT:      -8.4      3.425      4.920
REMARK  2 active torsions:
REMARK  status: ('A' for Active; 'I' for Inactive)
REMARK    1  A    between atoms: O1_1  and  C1_2 
REMARK    2  A    between atoms: C3_5  and  N1_6 
ROOT
HETATM    1  N1  UNL     1      23.527   2.215  52.302  1.00  0.00    -0.232 N 
HETATM    2  N2  UNL     1      22.287   1.925  52.878  1.00  0.00    -0.295 N 
HETATM    3  C4  UNL     1      21.882   0.625  53.262  1.00  0.00     0.041 C 
HETATM    4  C5  UNL     1      20.651   0.690  53.732  1.00  0.00    -0.004 C 
HETATM    5  C6  UNL     1      19.892  -0.378  53.551  1.00  0.00    -0.012 C 
HETATM    6  C7  UNL     1      20.524  -1.527  54.251  1.00  0.00     0.029 C 
HETATM    7  C8  UNL     1      21.809  -1.841  53.536  1.00  0.00     0.015 C 
HETATM    8  C9  UNL     1      22.622  -0.656  53.193  1.00  0.00     0.042 C 
HETATM    9  C10 UNL     1      23.931  -0.530  53.926  1.00  0.00     0.051 C 
HETATM   10  C11 UNL     1      24.930   0.288  53.192  1.00  0.00    -0.029 A 
HETATM   11  C12 UNL     1      26.211  -0.248  53.239  1.00  0.00     0.009 A 
HETATM   12  C13 UNL     1      27.305   0.333  52.629  1.00  0.00     0.001 A 
HETATM   13  C14 UNL     1      27.110   1.518  51.929  1.00  0.00     0.002 A 
HETATM   14  C15 UNL     1      25.847   2.055  51.876  1.00  0.00     0.032 A 
HETATM   15  C16 UNL     1      24.755   1.480  52.484  1.00  0.00     0.065 A 
HETATM   16  H3  UNL     1      21.704   2.778  52.983  1.00  0.00     0.187 HD
ENDROOT
BRANCH   1  17
HETATM   17  C3  UNL     1      23.705   3.357  51.407  1.00  0.00     0.195 A 
HETATM   18  S1  UNL     1      23.761   3.724  49.702  1.00  0.00    -0.058 SA
HETATM   19  C2  UNL     1      24.047   5.575  50.016  1.00  0.00     0.111 A 
HETATM   20  C1  UNL     1      24.050   5.576  51.418  1.00  0.00     0.171 A 
HETATM   21  N3  UNL     1      23.874   4.433  52.046  1.00  0.00    -0.198 NA
BRANCH  20  22
HETATM   22  O1  UNL     1      24.253   6.869  51.954  1.00  0.00    -0.344 OA
HETATM   23  H1  UNL     1      23.987   7.079  52.906  1.00  0.00     0.219 HD
ENDBRANCH  20  22
ENDBRANCH   1  17
TORSDOF 2
ENDMDL
MODEL 6
REMARK VINA RESULT:      -7.7      3.954      5.681
REMARK  2 active torsions:
REMARK  status: ('A' for Active; 'I' for Inactive)
REMARK    1  A    between atoms: O1_1  and  C1_2 
REMARK    2  A    between atoms: C3_5  and  N1_6 
ROOT
HETATM    1  N1  UNL     1      21.829   2.554  51.911  1.00  0.00    -0.232 N 
HETATM    2  N2  UNL     1      20.466   2.826  51.763  1.00  0.00    -0.295 N 
HETATM    3  C4  UNL     1      19.459   1.832  51.775  1.00  0.00     0.041 C 
HETATM    4  C5  UNL     1      18.293   2.413  51.572  1.00  0.00    -0.004 C 
HETATM    5  C6  UNL     1      17.378   1.696  50.942  1.00  0.00    -0.012 C 
HETATM    6  C7  UNL     1      17.083   0.489  51.757  1.00  0.00     0.029 C 
HETATM    7  C8  UNL     1      18.316  -0.371  51.754  1.00  0.00     0.015 C 
HETATM    8  C9  UNL     1      19.577   0.369  51.970  1.00  0.00     0.042 C 
HETATM    9  C10 UNL     1      20.286   0.081  53.267  1.00  0.00     0.051 C 
HETATM   10  C11 UNL     1      21.743   0.365  53.206  1.00  0.00    -0.029 A 
HETATM   11  C12 UNL     1      22.512  -0.604  53.838  1.00  0.00     0.009 A 
HETATM   12  C13 UNL     1      23.890  -0.557  53.910  1.00  0.00     0.001 A 
HETATM   13  C14 UNL     1      24.540   0.518  53.315  1.00  0.00     0.002 A 
HETATM   14  C15 UNL     1      23.788   1.481  52.688  1.00  0.00     0.032 A 
HETATM   15  C16 UNL     1      22.415   1.439  52.615  1.00  0.00     0.065 A 
HETATM   16  H3  UNL     1      20.289   3.842  51.639  1.00  0.00     0.187 HD
ENDROOT
BRANCH   1  17
HETATM   17  C3  UNL     1      22.850   3.426  51.331  1.00  0.00     0.195 A 
HETATM   18  S1  UNL     1      23.928   3.495  49.961  1.00  0.00    -0.058 SA
HETATM   19  C2  UNL     1      24.644   5.171  50.492  1.00  0.00     0.111 A 
HETATM   20  C1  UNL     1      23.903   5.381  51.664  1.00  0.00     0.171 A 
HETATM   21  N3  UNL     1      23.025   4.468  52.022  1.00  0.00    -0.198 NA
BRANCH  20  22
HETATM   22  O1  UNL     1      24.238   6.599  52.300  1.00  0.00    -0.344 OA
HETATM   23  H1  UNL     1      23.864   7.475  51.962  1.00  0.00     0.219 HD
ENDBRANCH  20  22
ENDBRANCH   1  17
TORSDOF 2
ENDMDL
MODEL 7
REMARK VINA RESULT:      -7.6      4.257      5.767
REMARK  2 active torsions:
REMARK  status: ('A' for Active; 'I' for Inactive)
REMARK    1  A    between atoms: O1_1  and  C1_2 
REMARK    2  A    between atoms: C3_5  and  N1_6 
ROOT
HETATM    1  N1  UNL     1      22.271   2.713  51.228  1.00  0.00    -0.232 N 
HETATM    2  N2  UNL     1      21.536   2.161  52.281  1.00  0.00    -0.295 N 
HETATM    3  C4  UNL     1      21.951   1.030  53.022  1.00  0.00     0.041 C 
HETATM    4  C5  UNL     1      21.019   0.745  53.910  1.00  0.00    -0.004 C 
HETATM    5  C6  UNL     1      20.882  -0.530  54.235  1.00  0.00    -0.012 C 
HETATM    6  C7  UNL     1      22.158  -1.001  54.835  1.00  0.00     0.029 C 
HETATM    7  C8  UNL     1      23.199  -0.988  53.750  1.00  0.00     0.015 C 
HETATM    8  C9  UNL     1      23.190   0.226  52.908  1.00  0.00     0.042 C 
HETATM    9  C10 UNL     1      24.394   1.121  53.043  1.00  0.00     0.051 C 
HETATM   10  C11 UNL     1      24.624   1.966  51.843  1.00  0.00    -0.029 A 
HETATM   11  C12 UNL     1      25.965   2.053  51.490  1.00  0.00     0.009 A 
HETATM   12  C13 UNL     1      26.424   2.779  50.410  1.00  0.00     0.001 A 
HETATM   13  C14 UNL     1      25.491   3.459  49.635  1.00  0.00     0.002 A 
HETATM   14  C15 UNL     1      24.164   3.379  49.976  1.00  0.00     0.032 A 
HETATM   15  C16 UNL     1      23.703   2.657  51.052  1.00  0.00     0.065 A 
HETATM   16  H3  UNL     1      20.651   2.680  52.444  1.00  0.00     0.187 HD
ENDROOT
BRANCH   1  17
HETATM   17  C3  UNL     1      21.620   3.441  50.140  1.00  0.00     0.195 A 
HETATM   18  S1  UNL     1      21.461   5.066  49.525  1.00  0.00    -0.058 SA
HETATM   19  C2  UNL     1      20.348   4.513  48.090  1.00  0.00     0.111 A 
HETATM   20  C1  UNL     1      20.296   3.137  48.351  1.00  0.00     0.171 A 
HETATM   21  N3  UNL     1      20.956   2.671  49.391  1.00  0.00    -0.198 NA
BRANCH  20  22
HETATM   22  O1  UNL     1      19.505   2.439  47.408  1.00  0.00    -0.344 OA
HETATM   23  H1  UNL     1      19.499   1.429  47.390  1.00  0.00     0.219 HD
ENDBRANCH  20  22
ENDBRANCH   1  17
TORSDOF 2
ENDMDL
MODEL 8
REMARK VINA RESULT:      -7.5      2.930      5.541
REMARK  2 active torsions:
REMARK  status: ('A' for Active; 'I' for Inactive)
REMARK    1  A    between atoms: O1_1  and  C1_2 
REMARK    2  A    between atoms: C3_5  and  N1_6 
ROOT
HETATM    1  N1  UNL     1      23.816   0.885  52.072  1.00  0.00    -0.232 N 
HETATM    2  N2  UNL     1      23.319   1.540  50.941  1.00  0.00    -0.295 N 
HETATM    3  C4  UNL     1      23.855   2.747  50.432  1.00  0.00     0.041 C 
HETATM    4  C5  UNL     1      23.137   3.118  49.390  1.00  0.00    -0.004 C 
HETATM    5  C6  UNL     1      23.037   4.419  49.173  1.00  0.00    -0.012 C 
HETATM    6  C7  UNL     1      24.399   4.960  48.929  1.00  0.00     0.029 C 
HETATM    7  C8  UNL     1      25.170   4.841  50.215  1.00  0.00     0.015 C 
HETATM    8  C9  UNL     1      25.010   3.543  50.904  1.00  0.00     0.042 C 
HETATM    9  C10 UNL     1      26.241   2.678  50.956  1.00  0.00     0.051 C 
HETATM   10  C11 UNL     1      26.223   1.712  52.084  1.00  0.00    -0.029 A 
HETATM   11  C12 UNL     1      27.452   1.598  52.721  1.00  0.00     0.009 A 
HETATM   12  C13 UNL     1      27.680   0.765  53.798  1.00  0.00     0.001 A 
HETATM   13  C14 UNL     1      26.619  -0.000  54.268  1.00  0.00     0.002 A 
HETATM   14  C15 UNL     1      25.400   0.105  53.645  1.00  0.00     0.032 A 
HETATM   15  C16 UNL     1      25.170   0.934  52.571  1.00  0.00     0.065 A 
HETATM   16  H3  UNL     1      22.510   1.035  50.530  1.00  0.00     0.187 HD
ENDROOT
BRANCH   1  17
HETATM   17  C3  UNL     1      22.961   0.041  52.904  1.00  0.00     0.195 A 
HETATM   18  S1  UNL     1      22.685  -1.644  53.260  1.00  0.00    -0.058 SA
HETATM   19  C2  UNL     1      21.304  -1.251  54.502  1.00  0.00     0.111 A 
HETATM   20  C1  UNL     1      21.302   0.148  54.415  1.00  0.00     0.171 A 
HETATM   21  N3  UNL     1      22.157   0.726  53.597  1.00  0.00    -0.198 NA
BRANCH  20  22
HETATM   22  O1  UNL     1      20.336   0.739  55.261  1.00  0.00    -0.344 OA
HETATM   23  H1  UNL     1      19.828   0.178  55.932  1.00  0.00     0.219 HD
ENDBRANCH  20  22
ENDBRANCH   1  17
TORSDOF 2
ENDMDL
MODEL 9
REMARK VINA RESULT:      -7.5      5.363      7.323
REMARK  2 active torsions:
REMARK  status: ('A' for Active; 'I' for Inactive)
REMARK    1  A    between atoms: O1_1  and  C1_2 
REMARK    2  A    between atoms: C3_5  and  N1_6 
ROOT
HETATM    1  N1  UNL     1      25.340   5.841  49.848  1.00  0.00    -0.232 N 
HETATM    2  N2  UNL     1      26.000   4.610  49.913  1.00  0.00    -0.295 N 
HETATM    3  C4  UNL     1      25.644   3.573  50.809  1.00  0.00     0.041 C 
HETATM    4  C5  UNL     1      26.483   2.570  50.643  1.00  0.00    -0.004 C 
HETATM    5  C6  UNL     1      26.742   1.834  51.712  1.00  0.00    -0.012 C 
HETATM    6  C7  UNL     1      25.472   1.217  52.175  1.00  0.00     0.029 C 
HETATM    7  C8  UNL     1      24.587   2.325  52.675  1.00  0.00     0.015 C 
HETATM    8  C9  UNL     1      24.546   3.515  51.800  1.00  0.00     0.042 C 
HETATM    9  C10 UNL     1      23.228   3.778  51.121  1.00  0.00     0.051 C 
HETATM   10  C11 UNL     1      23.046   5.203  50.743  1.00  0.00    -0.029 A 
HETATM   11  C12 UNL     1      21.762   5.671  50.994  1.00  0.00     0.009 A 
HETATM   12  C13 UNL     1      21.354   6.963  50.729  1.00  0.00     0.001 A 
HETATM   13  C14 UNL     1      22.283   7.842  50.181  1.00  0.00     0.002 A 
HETATM   14  C15 UNL     1      23.554   7.389  49.930  1.00  0.00     0.032 A 
HETATM   15  C16 UNL     1      23.963   6.102  50.192  1.00  0.00     0.065 A 
HETATM   16  H3  UNL     1      26.781   4.557  49.231  1.00  0.00     0.187 HD
ENDROOT
BRANCH   1  17
HETATM   17  C3  UNL     1      26.026   7.052  49.400  1.00  0.00     0.195 A 
HETATM   18  S1  UNL     1      26.474   7.867  47.923  1.00  0.00    -0.058 SA
HETATM   19  C2  UNL     1      27.295   9.302  48.856  1.00  0.00     0.111 A 
HETATM   20  C1  UNL     1      27.071   8.883  50.175  1.00  0.00     0.171 A 
HETATM   21  N3  UNL     1      26.430   7.750  50.372  1.00  0.00    -0.198 NA
BRANCH  20  22
HETATM   22  O1  UNL     1      27.595   9.791  51.124  1.00  0.00    -0.344 OA
HETATM   23  H1  UNL     1      27.691  10.772  50.899  1.00  0.00     0.219 HD
ENDBRANCH  20  22
ENDBRANCH   1  17
TORSDOF 2
ENDMDL
