MODEL 1
REMARK VINA RESULT:      -8.2      0.000      0.000
REMARK  10 active torsions:
REMARK  status: ('A' for Active; 'I' for Inactive)
REMARK    1  A    between atoms: C2_2  and  S1_3 
REMARK    2  A    between atoms: S1_3  and  N1_6 
REMARK    3  A    between atoms: N1_6  and  C3_7 
REMARK    4  A    between atoms: C4_8  and  O3_9 
REMARK    5  A    between atoms: O3_9  and  C5_10 
REMARK    6  A    between atoms: C10_15  and  N2_16 
REMARK    7  A    between atoms: N2_16  and  C11_17 
REMARK    8  A    between atoms: C14_20  and  O4_21 
REMARK    9  A    between atoms: O4_21  and  C15_22 
REMARK   10  A    between atoms: C15_22  and  C16_23 
ROOT
HETATM    1  N2  UNL     1      23.670   1.251  51.865  1.00  0.00    -0.383 N 
HETATM    2  H17 UNL     1      23.933   1.014  50.869  1.00  0.00     0.160 HD
ENDROOT
BRANCH   1   3
HETATM    3  C10 UNL     1      24.609   2.141  52.530  1.00  0.00     0.112 C 
HETATM    4  C3  UNL     1      25.794   2.424  51.582  1.00  0.00     0.172 C 
HETATM    5  C4  UNL     1      25.347   3.549  50.740  1.00  0.00     0.068 C 
HETATM    6  C7  UNL     1      24.280   4.334  50.730  1.00  0.00     0.008 C 
HETATM    7  C8  UNL     1      23.246   4.078  51.796  1.00  0.00     0.032 C 
HETATM    8  C9  UNL     1      23.985   3.455  52.943  1.00  0.00     0.031 C 
BRANCH   4   9
HETATM    9  N1  UNL     1      26.910   2.667  52.393  1.00  0.00    -0.303 N 
HETATM   10  H4  UNL     1      26.966   3.584  52.872  1.00  0.00     0.173 HD
BRANCH   9  11
HETATM   11  S1  UNL     1      27.590   1.342  53.198  1.00  0.00     0.248 S 
HETATM   12  O1  UNL     1      27.105   1.194  54.610  1.00  0.00    -0.201 OA
HETATM   13  O2  UNL     1      29.076   1.440  53.114  1.00  0.00    -0.201 OA
BRANCH  11  14
HETATM   14  C2  UNL     1      27.104  -0.113  52.344  1.00  0.00     0.121 C 
HETATM   15  C1  UNL     1      26.355  -1.047  52.967  1.00  0.00     0.025 C 
ENDBRANCH  11  14
ENDBRANCH   9  11
ENDBRANCH   4   9
BRANCH   5  16
HETATM   16  O3  UNL     1      26.366   3.686  49.812  1.00  0.00    -0.354 OA
BRANCH  16  17
HETATM   17  C5  UNL     1      26.550   4.836  49.025  1.00  0.00     0.171 C 
HETATM   18  C6  UNL     1      27.978   4.944  48.574  1.00  0.00     0.034 C 
ENDBRANCH  16  17
ENDBRANCH   5  16
ENDBRANCH   1   3
BRANCH   1  19
HETATM   19  C11 UNL     1      22.461   0.654  52.337  1.00  0.00     0.030 A 
HETATM   20  C12 UNL     1      22.438   0.043  53.571  1.00  0.00     0.032 A 
HETATM   21  C13 UNL     1      21.277  -0.504  54.017  1.00  0.00     0.041 A 
HETATM   22  C14 UNL     1      20.095  -0.500  53.328  1.00  0.00     0.091 A 
HETATM   23  C22 UNL     1      20.120   0.125  52.067  1.00  0.00     0.069 A 
HETATM   24 CL1  UNL     1      18.795   0.315  50.918  1.00  0.00    -0.081 Cl
HETATM   25  C23 UNL     1      21.297   0.699  51.576  1.00  0.00     0.056 A 
BRANCH  22  26
HETATM   26  O4  UNL     1      18.829  -0.941  53.502  1.00  0.00    -0.345 OA
BRANCH  26  27
HETATM   27  C15 UNL     1      18.403  -2.195  53.894  1.00  0.00     0.214 C 
BRANCH  27  28
HETATM   28  C16 UNL     1      17.162  -2.678  53.248  1.00  0.00    -0.034 A 
HETATM   29  C17 UNL     1      16.174  -2.104  52.485  1.00  0.00     0.009 A 
HETATM   30  C18 UNL     1      15.091  -2.819  52.027  1.00  0.00     0.001 A 
HETATM   31  C19 UNL     1      14.923  -4.160  52.302  1.00  0.00     0.000 A 
HETATM   32  C20 UNL     1      15.903  -4.775  53.071  1.00  0.00     0.001 A 
HETATM   33  C21 UNL     1      16.983  -4.044  53.523  1.00  0.00     0.009 A 
ENDBRANCH  27  28
ENDBRANCH  26  27
ENDBRANCH  22  26
ENDBRANCH   1  19
TORSDOF 10
ENDMDL
MODEL 2
REMARK VINA RESULT:      -7.9      4.748      7.007
REMARK  10 active torsions:
REMARK  status: ('A' for Active; 'I' for Inactive)
REMARK    1  A    between atoms: C2_2  and  S1_3 
REMARK    2  A    between atoms: S1_3  and  N1_6 
REMARK    3  A    between atoms: N1_6  and  C3_7 
REMARK    4  A    between atoms: C4_8  and  O3_9 
REMARK    5  A    between atoms: O3_9  and  C5_10 
REMARK    6  A    between atoms: C10_15  and  N2_16 
REMARK    7  A    between atoms: N2_16  and  C11_17 
REMARK    8  A    between atoms: C14_20  and  O4_21 
REMARK    9  A    between atoms: O4_21  and  C15_22 
REMARK   10  A    between atoms: C15_22  and  C16_23 
ROOT
HETATM    1  N2  UNL     1      21.932   5.340  51.710  1.00  0.00    -0.383 N 
HETATM    2  H17 UNL     1      21.119   5.619  52.327  1.00  0.00     0.160 HD
ENDROOT
BRANCH   1   3
HETATM    3  C10 UNL     1      22.279   6.332  50.704  1.00  0.00     0.112 C 
HETATM    4  C3  UNL     1      22.978   5.627  49.522  1.00  0.00     0.172 C 
HETATM    5  C4  UNL     1      21.880   5.157  48.658  1.00  0.00     0.068 C 
HETATM    6  C7  UNL     1      20.564   5.310  48.662  1.00  0.00     0.008 C 
HETATM    7  C8  UNL     1      19.988   6.148  49.774  1.00  0.00     0.032 C 
HETATM    8  C9  UNL     1      21.079   7.091  50.185  1.00  0.00     0.031 C 
BRANCH   4   9
HETATM    9  N1  UNL     1      23.852   6.563  48.954  1.00  0.00    -0.303 N 
HETATM   10  H4  UNL     1      23.481   7.511  48.760  1.00  0.00     0.173 HD
BRANCH   9  11
HETATM   11  S1  UNL     1      25.489   6.452  49.371  1.00  0.00     0.248 S 
HETATM   12  O1  UNL     1      25.888   7.401  50.463  1.00  0.00    -0.201 OA
HETATM   13  O2  UNL     1      26.311   6.625  48.138  1.00  0.00    -0.201 OA
BRANCH  11  14
HETATM   14  C2  UNL     1      25.780   4.832  49.981  1.00  0.00     0.121 C 
HETATM   15  C1  UNL     1      26.625   4.003  49.332  1.00  0.00     0.025 C 
ENDBRANCH  11  14
ENDBRANCH   9  11
ENDBRANCH   4   9
BRANCH   5  16
HETATM   16  O3  UNL     1      22.527   4.410  47.687  1.00  0.00    -0.354 OA
BRANCH  16  17
HETATM   17  C5  UNL     1      21.977   3.258  47.098  1.00  0.00     0.171 C 
HETATM   18  C6  UNL     1      22.343   2.035  47.889  1.00  0.00     0.034 C 
ENDBRANCH  16  17
ENDBRANCH   5  16
ENDBRANCH   1   3
BRANCH   1  19
HETATM   19  C11 UNL     1      22.509   4.065  51.996  1.00  0.00     0.030 A 
HETATM   20  C12 UNL     1      23.667   3.989  52.737  1.00  0.00     0.032 A 
HETATM   21  C13 UNL     1      24.195   2.770  53.018  1.00  0.00     0.041 A 
HETATM   22  C14 UNL     1      23.661   1.575  52.618  1.00  0.00     0.091 A 
HETATM   23  C22 UNL     1      22.478   1.653  51.860  1.00  0.00     0.069 A 
HETATM   24 CL1  UNL     1      21.527   0.330  51.185  1.00  0.00    -0.081 Cl
HETATM   25  C23 UNL     1      21.906   2.892  51.552  1.00  0.00     0.056 A 
BRANCH  22  26
HETATM   26  O4  UNL     1      23.943   0.259  52.737  1.00  0.00    -0.345 OA
BRANCH  26  27
HETATM   27  C15 UNL     1      24.442  -0.417  53.834  1.00  0.00     0.214 C 
BRANCH  27  28
HETATM   28  C16 UNL     1      25.911  -0.353  54.008  1.00  0.00    -0.034 A 
HETATM   29  C17 UNL     1      26.762   0.288  54.876  1.00  0.00     0.009 A 
HETATM   30  C18 UNL     1      28.130   0.175  54.780  1.00  0.00     0.001 A 
HETATM   31  C19 UNL     1      28.740  -0.589  53.809  1.00  0.00     0.000 A 
HETATM   32  C20 UNL     1      27.912  -1.253  52.913  1.00  0.00     0.001 A 
HETATM   33  C21 UNL     1      26.541  -1.130  53.022  1.00  0.00     0.009 A 
ENDBRANCH  27  28
ENDBRANCH  26  27
ENDBRANCH  22  26
ENDBRANCH   1  19
TORSDOF 10
ENDMDL
MODEL 3
REMARK VINA RESULT:      -7.7      3.877     10.882
REMARK  10 active torsions:
REMARK  status: ('A' for Active; 'I' for Inactive)
REMARK    1  A    between atoms: C2_2  and  S1_3 
REMARK    2  A    between atoms: S1_3  and  N1_6 
REMARK    3  A    between atoms: N1_6  and  C3_7 
REMARK    4  A    between atoms: C4_8  and  O3_9 
REMARK    5  A    between atoms: O3_9  and  C5_10 
REMARK    6  A    between atoms: C10_15  and  N2_16 
REMARK    7  A    between atoms: N2_16  and  C11_17 
REMARK    8  A    between atoms: C14_20  and  O4_21 
REMARK    9  A    between atoms: O4_21  and  C15_22 
REMARK   10  A    between atoms: C15_22  and  C16_23 
ROOT
HETATM    1  N2  UNL     1      24.245   3.011  50.616  1.00  0.00    -0.383 N 
HETATM    2  H17 UNL     1      24.190   2.076  50.127  1.00  0.00     0.160 HD
ENDROOT
BRANCH   1   3
HETATM    3  C10 UNL     1      23.358   3.134  51.762  1.00  0.00     0.112 C 
HETATM    4  C3  UNL     1      22.446   1.890  51.828  1.00  0.00     0.172 C 
HETATM    5  C4  UNL     1      23.231   0.882  52.563  1.00  0.00     0.068 C 
HETATM    6  C7  UNL     1      24.396   0.890  53.194  1.00  0.00     0.008 C 
HETATM    7  C8  UNL     1      25.144   2.198  53.207  1.00  0.00     0.032 C 
HETATM    8  C9  UNL     1      24.101   3.268  53.072  1.00  0.00     0.031 C 
BRANCH   4   9
HETATM    9  N1  UNL     1      21.249   2.299  52.433  1.00  0.00    -0.303 N 
HETATM   10  H4  UNL     1      21.317   2.897  53.276  1.00  0.00     0.173 HD
BRANCH   9  11
HETATM   11  S1  UNL     1      19.914   2.549  51.423  1.00  0.00     0.248 S 
HETATM   12  O1  UNL     1      20.270   3.209  50.123  1.00  0.00    -0.201 OA
HETATM   13  O2  UNL     1      18.874   3.305  52.179  1.00  0.00    -0.201 OA
BRANCH  11  14
HETATM   14  C2  UNL     1      19.241   0.977  51.021  1.00  0.00     0.121 C 
HETATM   15  C1  UNL     1      18.849   0.137  52.002  1.00  0.00     0.025 C 
ENDBRANCH  11  14
ENDBRANCH   9  11
ENDBRANCH   4   9
BRANCH   5  16
HETATM   16  O3  UNL     1      22.450  -0.261  52.483  1.00  0.00    -0.354 OA
BRANCH  16  17
HETATM   17  C5  UNL     1      22.296  -1.172  53.542  1.00  0.00     0.171 C 
HETATM   18  C6  UNL     1      21.408  -0.597  54.608  1.00  0.00     0.034 C 
ENDBRANCH  16  17
ENDBRANCH   5  16
ENDBRANCH   1   3
BRANCH   1  19
HETATM   19  C11 UNL     1      25.172   3.943  50.055  1.00  0.00     0.030 A 
HETATM   20  C12 UNL     1      26.354   3.489  49.515  1.00  0.00     0.032 A 
HETATM   21  C13 UNL     1      27.218   4.383  48.967  1.00  0.00     0.041 A 
HETATM   22  C14 UNL     1      27.010   5.733  48.903  1.00  0.00     0.091 A 
HETATM   23  C22 UNL     1      25.801   6.196  49.456  1.00  0.00     0.069 A 
HETATM   24 CL1  UNL     1      25.210   7.855  49.547  1.00  0.00    -0.081 Cl
HETATM   25  C23 UNL     1      24.888   5.305  50.028  1.00  0.00     0.056 A 
BRANCH  22  26
HETATM   26  O4  UNL     1      27.653   6.828  48.440  1.00  0.00    -0.345 OA
BRANCH  26  27
HETATM   27  C15 UNL     1      28.647   6.900  47.483  1.00  0.00     0.214 C 
BRANCH  27  28
HETATM   28  C16 UNL     1      29.995   6.484  47.931  1.00  0.00    -0.034 A 
HETATM   29  C17 UNL     1      30.741   5.334  47.838  1.00  0.00     0.009 A 
HETATM   30  C18 UNL     1      31.998   5.228  48.388  1.00  0.00     0.001 A 
HETATM   31  C19 UNL     1      32.596   6.267  49.068  1.00  0.00     0.000 A 
HETATM   32  C20 UNL     1      31.872   7.447  49.182  1.00  0.00     0.001 A 
HETATM   33  C21 UNL     1      30.612   7.538  48.625  1.00  0.00     0.009 A 
ENDBRANCH  27  28
ENDBRANCH  26  27
ENDBRANCH  22  26
ENDBRANCH   1  19
TORSDOF 10
ENDMDL
MODEL 4
REMARK VINA RESULT:      -7.5      4.408     11.200
REMARK  10 active torsions:
REMARK  status: ('A' for Active; 'I' for Inactive)
REMARK    1  A    between atoms: C2_2  and  S1_3 
REMARK    2  A    between atoms: S1_3  and  N1_6 
REMARK    3  A    between atoms: N1_6  and  C3_7 
REMARK    4  A    between atoms: C4_8  and  O3_9 
REMARK    5  A    between atoms: O3_9  and  C5_10 
REMARK    6  A    between atoms: C10_15  and  N2_16 
REMARK    7  A    between atoms: N2_16  and  C11_17 
REMARK    8  A    between atoms: C14_20  and  O4_21 
REMARK    9  A    between atoms: O4_21  and  C15_22 
REMARK   10  A    between atoms: C15_22  and  C16_23 
ROOT
HETATM    1  N2  UNL     1      24.991   4.898  50.867  1.00  0.00    -0.383 N 
HETATM    2  H17 UNL     1      24.308   4.924  51.674  1.00  0.00     0.160 HD
ENDROOT
BRANCH   1   3
HETATM    3  C10 UNL     1      25.521   3.574  50.580  1.00  0.00     0.112 C 
HETATM    4  C3  UNL     1      25.371   2.689  51.836  1.00  0.00     0.172 C 
HETATM    5  C4  UNL     1      24.004   2.144  51.755  1.00  0.00     0.068 C 
HETATM    6  C7  UNL     1      23.039   2.187  50.849  1.00  0.00     0.008 C 
HETATM    7  C8  UNL     1      23.337   2.949  49.584  1.00  0.00     0.032 C 
HETATM    8  C9  UNL     1      24.827   2.900  49.418  1.00  0.00     0.031 C 
BRANCH   4   9
HETATM    9  N1  UNL     1      26.412   1.752  51.795  1.00  0.00    -0.303 N 
HETATM   10  H4  UNL     1      26.818   1.524  50.869  1.00  0.00     0.173 HD
BRANCH   9  11
HETATM   11  S1  UNL     1      27.459   1.695  53.124  1.00  0.00     0.248 S 
HETATM   12  O1  UNL     1      26.789   2.039  54.422  1.00  0.00    -0.201 OA
HETATM   13  O2  UNL     1      28.638   2.565  52.844  1.00  0.00    -0.201 OA
BRANCH  11  14
HETATM   14  C2  UNL     1      28.041   0.046  53.280  1.00  0.00     0.121 C 
HETATM   15  C1  UNL     1      29.002  -0.253  54.180  1.00  0.00     0.025 C 
ENDBRANCH  11  14
ENDBRANCH   9  11
ENDBRANCH   4   9
BRANCH   5  16
HETATM   16  O3  UNL     1      23.850   1.473  52.958  1.00  0.00    -0.354 OA
BRANCH  16  17
HETATM   17  C5  UNL     1      23.401   0.145  53.054  1.00  0.00     0.171 C 
HETATM   18  C6  UNL     1      22.088   0.082  53.780  1.00  0.00     0.034 C 
ENDBRANCH  16  17
ENDBRANCH   5  16
ENDBRANCH   1   3
BRANCH   1  19
HETATM   19  C11 UNL     1      25.241   6.156  50.236  1.00  0.00     0.030 A 
HETATM   20  C12 UNL     1      24.547   7.274  50.642  1.00  0.00     0.032 A 
HETATM   21  C13 UNL     1      24.808   8.467  50.047  1.00  0.00     0.041 A 
HETATM   22  C14 UNL     1      25.726   8.661  49.052  1.00  0.00     0.091 A 
HETATM   23  C22 UNL     1      26.435   7.517  48.637  1.00  0.00     0.069 A 
HETATM   24 CL1  UNL     1      27.679   7.398  47.393  1.00  0.00    -0.081 Cl
HETATM   25  C23 UNL     1      26.192   6.272  49.227  1.00  0.00     0.056 A 
BRANCH  22  26
HETATM   26  O4  UNL     1      26.190   9.682  48.298  1.00  0.00    -0.345 OA
BRANCH  26  27
HETATM   27  C15 UNL     1      26.665  10.911  48.714  1.00  0.00     0.214 C 
BRANCH  27  28
HETATM   28  C16 UNL     1      28.136  11.013  48.850  1.00  0.00    -0.034 A 
HETATM   29  C17 UNL     1      29.157  10.124  49.083  1.00  0.00     0.009 A 
HETATM   30  C18 UNL     1      30.470  10.523  49.183  1.00  0.00     0.001 A 
HETATM   31  C19 UNL     1      30.851  11.842  49.057  1.00  0.00     0.000 A 
HETATM   32  C20 UNL     1      29.845  12.771  48.820  1.00  0.00     0.001 A 
HETATM   33  C21 UNL     1      28.533  12.354  48.721  1.00  0.00     0.009 A 
ENDBRANCH  27  28
ENDBRANCH  26  27
ENDBRANCH  22  26
ENDBRANCH   1  19
TORSDOF 10
ENDMDL
MODEL 5
REMARK VINA RESULT:      -7.4      5.859      8.960
REMARK  10 active torsions:
REMARK  status: ('A' for Active; 'I' for Inactive)
REMARK    1  A    between atoms: C2_2  and  S1_3 
REMARK    2  A    between atoms: S1_3  and  N1_6 
REMARK    3  A    between atoms: N1_6  and  C3_7 
REMARK    4  A    between atoms: C4_8  and  O3_9 
REMARK    5  A    between atoms: O3_9  and  C5_10 
REMARK    6  A    between atoms: C10_15  and  N2_16 
REMARK    7  A    between atoms: N2_16  and  C11_17 
REMARK    8  A    between atoms: C14_20  and  O4_21 
REMARK    9  A    between atoms: O4_21  and  C15_22 
REMARK   10  A    between atoms: C15_22  and  C16_23 
ROOT
HETATM    1  N2  UNL     1      28.493   7.710  48.276  1.00  0.00    -0.383 N 
HETATM    2  H17 UNL     1      28.132   8.348  47.515  1.00  0.00     0.160 HD
ENDROOT
BRANCH   1   3
HETATM    3  C10 UNL     1      29.827   8.047  48.749  1.00  0.00     0.112 C 
HETATM    4  C3  UNL     1      30.843   7.790  47.615  1.00  0.00     0.172 C 
HETATM    5  C4  UNL     1      30.832   9.025  46.810  1.00  0.00     0.068 C 
HETATM    6  C7  UNL     1      30.256  10.212  46.936  1.00  0.00     0.008 C 
HETATM    7  C8  UNL     1      29.404  10.418  48.161  1.00  0.00     0.032 C 
HETATM    8  C9  UNL     1      29.947   9.485  49.201  1.00  0.00     0.031 C 
BRANCH   4   9
HETATM    9  N1  UNL     1      32.060   7.466  48.230  1.00  0.00    -0.303 N 
HETATM   10  H4  UNL     1      32.496   8.181  48.839  1.00  0.00     0.173 HD
BRANCH   9  11
HETATM   11  S1  UNL     1      32.309   5.846  48.652  1.00  0.00     0.248 S 
HETATM   12  O1  UNL     1      31.672   5.468  49.957  1.00  0.00    -0.201 OA
HETATM   13  O2  UNL     1      33.775   5.565  48.632  1.00  0.00    -0.201 OA
BRANCH  11  14
HETATM   14  C2  UNL     1      31.560   4.846  47.418  1.00  0.00     0.121 C 
HETATM   15  C1  UNL     1      32.121   3.672  47.063  1.00  0.00     0.025 C 
ENDBRANCH  11  14
ENDBRANCH   9  11
ENDBRANCH   4   9
BRANCH   5  16
HETATM   16  O3  UNL     1      31.640   8.715  45.728  1.00  0.00    -0.354 OA
BRANCH  16  17
HETATM   17  C5  UNL     1      31.394   7.638  44.859  1.00  0.00     0.171 C 
HETATM   18  C6  UNL     1      32.680   6.966  44.473  1.00  0.00     0.034 C 
ENDBRANCH  16  17
ENDBRANCH   5  16
ENDBRANCH   1   3
BRANCH   1  19
HETATM   19  C11 UNL     1      27.602   6.666  48.674  1.00  0.00     0.030 A 
HETATM   20  C12 UNL     1      27.990   5.351  48.547  1.00  0.00     0.032 A 
HETATM   21  C13 UNL     1      27.141   4.368  48.947  1.00  0.00     0.041 A 
HETATM   22  C14 UNL     1      25.899   4.578  49.480  1.00  0.00     0.091 A 
HETATM   23  C22 UNL     1      25.503   5.922  49.609  1.00  0.00     0.069 A 
HETATM   24 CL1  UNL     1      23.986   6.555  50.249  1.00  0.00    -0.081 Cl
HETATM   25  C23 UNL     1      26.351   6.960  49.208  1.00  0.00     0.056 A 
BRANCH  22  26
HETATM   26  O4  UNL     1      24.871   3.838  49.951  1.00  0.00    -0.345 OA
BRANCH  26  27
HETATM   27  C15 UNL     1      24.618   3.448  51.252  1.00  0.00     0.214 C 
BRANCH  27  28
HETATM   28  C16 UNL     1      25.263   2.185  51.676  1.00  0.00    -0.034 A 
HETATM   29  C17 UNL     1      26.484   1.594  51.459  1.00  0.00     0.009 A 
HETATM   30  C18 UNL     1      26.807   0.362  51.980  1.00  0.00     0.001 A 
HETATM   31  C19 UNL     1      25.929  -0.363  52.757  1.00  0.00     0.000 A 
HETATM   32  C20 UNL     1      24.683   0.203  52.999  1.00  0.00     0.001 A 
HETATM   33  C21 UNL     1      24.375   1.439  52.469  1.00  0.00     0.009 A 
ENDBRANCH  27  28
ENDBRANCH  26  27
ENDBRANCH  22  26
ENDBRANCH   1  19
TORSDOF 10
ENDMDL
MODEL 6
REMARK VINA RESULT:      -7.4      3.891     11.084
REMARK  10 active torsions:
REMARK  status: ('A' for Active; 'I' for Inactive)
REMARK    1  A    between atoms: C2_2  and  S1_3 
REMARK    2  A    between atoms: S1_3  and  N1_6 
REMARK    3  A    between atoms: N1_6  and  C3_7 
REMARK    4  A    between atoms: C4_8  and  O3_9 
REMARK    5  A    between atoms: O3_9  and  C5_10 
REMARK    6  A    between atoms: C10_15  and  N2_16 
REMARK    7  A    between atoms: N2_16  and  C11_17 
REMARK    8  A    between atoms: C14_20  and  O4_21 
REMARK    9  A    between atoms: O4_21  and  C15_22 
REMARK   10  A    between atoms: C15_22  and  C16_23 
ROOT
HETATM    1  N2  UNL     1      24.254   2.972  50.486  1.00  0.00    -0.383 N 
HETATM    2  H17 UNL     1      24.188   2.010  50.052  1.00  0.00     0.160 HD
ENDROOT
BRANCH   1   3
HETATM    3  C10 UNL     1      23.376   3.169  51.628  1.00  0.00     0.112 C 
HETATM    4  C3  UNL     1      22.415   1.966  51.738  1.00  0.00     0.172 C 
HETATM    5  C4  UNL     1      23.161   0.952  52.506  1.00  0.00     0.068 C 
HETATM    6  C7  UNL     1      24.327   0.936  53.134  1.00  0.00     0.008 C 
HETATM    7  C8  UNL     1      25.127   2.212  53.101  1.00  0.00     0.032 C 
HETATM    8  C9  UNL     1      24.129   3.318  52.932  1.00  0.00     0.031 C 
BRANCH   4   9
HETATM    9  N1  UNL     1      21.238   2.443  52.330  1.00  0.00    -0.303 N 
HETATM   10  H4  UNL     1      21.331   3.130  53.101  1.00  0.00     0.173 HD
BRANCH   9  11
HETATM   11  S1  UNL     1      19.872   2.585  51.340  1.00  0.00     0.248 S 
HETATM   12  O1  UNL     1      20.135   3.345  50.073  1.00  0.00    -0.201 OA
HETATM   13  O2  UNL     1      18.760   3.178  52.139  1.00  0.00    -0.201 OA
BRANCH  11  14
HETATM   14  C2  UNL     1      19.382   0.968  50.864  1.00  0.00     0.121 C 
HETATM   15  C1  UNL     1      18.831   0.132  51.769  1.00  0.00     0.025 C 
ENDBRANCH  11  14
ENDBRANCH   9  11
ENDBRANCH   4   9
BRANCH   5  16
HETATM   16  O3  UNL     1      22.335  -0.160  52.466  1.00  0.00    -0.354 OA
BRANCH  16  17
HETATM   17  C5  UNL     1      22.207  -1.070  53.529  1.00  0.00     0.171 C 
HETATM   18  C6  UNL     1      21.295  -0.520  54.588  1.00  0.00     0.034 C 
ENDBRANCH  16  17
ENDBRANCH   5  16
ENDBRANCH   1   3
BRANCH   1  19
HETATM   19  C11 UNL     1      25.184   3.861  49.864  1.00  0.00     0.030 A 
HETATM   20  C12 UNL     1      26.466   3.434  49.601  1.00  0.00     0.032 A 
HETATM   21  C13 UNL     1      27.335   4.283  48.992  1.00  0.00     0.041 A 
HETATM   22  C14 UNL     1      27.039   5.561  48.607  1.00  0.00     0.091 A 
HETATM   23  C22 UNL     1      25.728   5.997  48.877  1.00  0.00     0.069 A 
HETATM   24 CL1  UNL     1      25.007   7.567  48.522  1.00  0.00    -0.081 Cl
HETATM   25  C23 UNL     1      24.807   5.150  49.502  1.00  0.00     0.056 A 
BRANCH  22  26
HETATM   26  O4  UNL     1      27.662   6.599  48.006  1.00  0.00    -0.345 OA
BRANCH  26  27
HETATM   27  C15 UNL     1      28.922   7.108  48.259  1.00  0.00     0.214 C 
BRANCH  27  28
HETATM   28  C16 UNL     1      28.988   8.571  48.473  1.00  0.00    -0.034 A 
HETATM   29  C17 UNL     1      28.110   9.617  48.328  1.00  0.00     0.009 A 
HETATM   30  C18 UNL     1      28.470  10.919  48.590  1.00  0.00     0.001 A 
HETATM   31  C19 UNL     1      29.735  11.263  49.017  1.00  0.00     0.000 A 
HETATM   32  C20 UNL     1      30.651  10.231  49.175  1.00  0.00     0.001 A 
HETATM   33  C21 UNL     1      30.275   8.930  48.908  1.00  0.00     0.009 A 
ENDBRANCH  27  28
ENDBRANCH  26  27
ENDBRANCH  22  26
ENDBRANCH   1  19
TORSDOF 10
ENDMDL
MODEL 7
REMARK VINA RESULT:      -7.4      6.200      9.451
REMARK  10 active torsions:
REMARK  status: ('A' for Active; 'I' for Inactive)
REMARK    1  A    between atoms: C2_2  and  S1_3 
REMARK    2  A    between atoms: S1_3  and  N1_6 
REMARK    3  A    between atoms: N1_6  and  C3_7 
REMARK    4  A    between atoms: C4_8  and  O3_9 
REMARK    5  A    between atoms: O3_9  and  C5_10 
REMARK    6  A    between atoms: C10_15  and  N2_16 
REMARK    7  A    between atoms: N2_16  and  C11_17 
REMARK    8  A    between atoms: C14_20  and  O4_21 
REMARK    9  A    between atoms: O4_21  and  C15_22 
REMARK   10  A    between atoms: C15_22  and  C16_23 
ROOT
HETATM    1  N2  UNL     1      29.905   6.210  47.971  1.00  0.00    -0.383 N 
HETATM    2  H17 UNL     1      30.106   6.703  47.058  1.00  0.00     0.160 HD
ENDROOT
BRANCH   1   3
HETATM    3  C10 UNL     1      31.096   5.794  48.696  1.00  0.00     0.112 C 
HETATM    4  C3  UNL     1      32.255   5.605  47.693  1.00  0.00     0.172 C 
HETATM    5  C4  UNL     1      32.840   6.949  47.532  1.00  0.00     0.068 C 
HETATM    6  C7  UNL     1      32.640   8.124  48.110  1.00  0.00     0.008 C 
HETATM    7  C8  UNL     1      31.591   8.173  49.189  1.00  0.00     0.032 C 
HETATM    8  C9  UNL     1      31.519   6.786  49.755  1.00  0.00     0.031 C 
BRANCH   4   9
HETATM    9  N1  UNL     1      33.099   4.626  48.233  1.00  0.00    -0.303 N 
HETATM   10  H4  UNL     1      33.118   4.522  49.264  1.00  0.00     0.173 HD
BRANCH   9  11
HETATM   11  S1  UNL     1      33.346   3.223  47.319  1.00  0.00     0.248 S 
HETATM   12  O1  UNL     1      32.411   3.104  46.151  1.00  0.00    -0.201 OA
HETATM   13  O2  UNL     1      33.276   2.040  48.225  1.00  0.00    -0.201 OA
BRANCH  11  14
HETATM   14  C2  UNL     1      34.971   3.290  46.657  1.00  0.00     0.121 C 
HETATM   15  C1  UNL     1      35.173   3.723  45.395  1.00  0.00     0.025 C 
ENDBRANCH  11  14
ENDBRANCH   9  11
ENDBRANCH   4   9
BRANCH   5  16
HETATM   16  O3  UNL     1      33.778   6.776  46.527  1.00  0.00    -0.354 OA
BRANCH  16  17
HETATM   17  C5  UNL     1      33.531   7.073  45.176  1.00  0.00     0.171 C 
HETATM   18  C6  UNL     1      34.267   8.315  44.764  1.00  0.00     0.034 C 
ENDBRANCH  16  17
ENDBRANCH   5  16
ENDBRANCH   1   3
BRANCH   1  19
HETATM   19  C11 UNL     1      28.521   6.064  48.296  1.00  0.00     0.030 A 
HETATM   20  C12 UNL     1      28.023   4.823  48.623  1.00  0.00     0.032 A 
HETATM   21  C13 UNL     1      26.710   4.700  48.949  1.00  0.00     0.041 A 
HETATM   22  C14 UNL     1      25.813   5.732  48.981  1.00  0.00     0.091 A 
HETATM   23  C22 UNL     1      26.322   7.001  48.646  1.00  0.00     0.069 A 
HETATM   24 CL1  UNL     1      25.461   8.539  48.585  1.00  0.00    -0.081 Cl
HETATM   25  C23 UNL     1      27.669   7.165  48.307  1.00  0.00     0.056 A 
BRANCH  22  26
HETATM   26  O4  UNL     1      24.503   5.916  49.255  1.00  0.00    -0.345 OA
BRANCH  26  27
HETATM   27  C15 UNL     1      23.510   4.963  49.383  1.00  0.00     0.214 C 
BRANCH  27  28
HETATM   28  C16 UNL     1      23.602   4.103  50.584  1.00  0.00    -0.034 A 
HETATM   29  C17 UNL     1      23.809   4.321  51.925  1.00  0.00     0.009 A 
HETATM   30  C18 UNL     1      23.869   3.291  52.835  1.00  0.00     0.001 A 
HETATM   31  C19 UNL     1      23.725   1.971  52.466  1.00  0.00     0.000 A 
HETATM   32  C20 UNL     1      23.513   1.711  51.118  1.00  0.00     0.001 A 
HETATM   33  C21 UNL     1      23.455   2.755  50.217  1.00  0.00     0.009 A 
ENDBRANCH  27  28
ENDBRANCH  26  27
ENDBRANCH  22  26
ENDBRANCH   1  19
TORSDOF 10
ENDMDL
MODEL 8
REMARK VINA RESULT:      -7.2      4.110      9.376
REMARK  10 active torsions:
REMARK  status: ('A' for Active; 'I' for Inactive)
REMARK    1  A    between atoms: C2_2  and  S1_3 
REMARK    2  A    between atoms: S1_3  and  N1_6 
REMARK    3  A    between atoms: N1_6  and  C3_7 
REMARK    4  A    between atoms: C4_8  and  O3_9 
REMARK    5  A    between atoms: O3_9  and  C5_10 
REMARK    6  A    between atoms: C10_15  and  N2_16 
REMARK    7  A    between atoms: N2_16  and  C11_17 
REMARK    8  A    between atoms: C14_20  and  O4_21 
REMARK    9  A    between atoms: O4_21  and  C15_22 
REMARK   10  A    between atoms: C15_22  and  C16_23 
ROOT
HETATM    1  N2  UNL     1      19.690   2.474  51.908  1.00  0.00    -0.383 N 
HETATM    2  H17 UNL     1      19.483   3.427  52.317  1.00  0.00     0.160 HD
ENDROOT
BRANCH   1   3
HETATM    3  C10 UNL     1      18.677   1.992  50.984  1.00  0.00     0.112 C 
HETATM    4  C3  UNL     1      17.320   1.917  51.717  1.00  0.00     0.172 C 
HETATM    5  C4  UNL     1      16.754   3.273  51.607  1.00  0.00     0.068 C 
HETATM    6  C7  UNL     1      17.110   4.381  50.974  1.00  0.00     0.008 C 
HETATM    7  C8  UNL     1      18.373   4.309  50.155  1.00  0.00     0.032 C 
HETATM    8  C9  UNL     1      18.527   2.870  49.762  1.00  0.00     0.031 C 
BRANCH   4   9
HETATM    9  N1  UNL     1      16.587   0.892  51.104  1.00  0.00    -0.303 N 
HETATM   10  H4  UNL     1      16.734   0.734  50.091  1.00  0.00     0.173 HD
BRANCH   9  11
HETATM   11  S1  UNL     1      16.217  -0.468  52.043  1.00  0.00     0.248 S 
HETATM   12  O1  UNL     1      15.539  -1.558  51.266  1.00  0.00    -0.201 OA
HETATM   13  O2  UNL     1      15.419  -0.031  53.226  1.00  0.00    -0.201 OA
BRANCH  11  14
HETATM   14  C2  UNL     1      17.726  -1.138  52.638  1.00  0.00     0.121 C 
HETATM   15  C1  UNL     1      17.715  -2.183  53.493  1.00  0.00     0.025 C 
ENDBRANCH  11  14
ENDBRANCH   9  11
ENDBRANCH   4   9
BRANCH   5  16
HETATM   16  O3  UNL     1      15.612   3.213  52.391  1.00  0.00    -0.354 OA
BRANCH  16  17
HETATM   17  C5  UNL     1      14.380   3.771  52.010  1.00  0.00     0.171 C 
HETATM   18  C6  UNL     1      13.437   2.700  51.543  1.00  0.00     0.034 C 
ENDBRANCH  16  17
ENDBRANCH   5  16
ENDBRANCH   1   3
BRANCH   1  19
HETATM   19  C11 UNL     1      20.910   1.872  52.346  1.00  0.00     0.030 A 
HETATM   20  C12 UNL     1      22.116   2.420  51.969  1.00  0.00     0.032 A 
HETATM   21  C13 UNL     1      23.269   1.850  52.408  1.00  0.00     0.041 A 
HETATM   22  C14 UNL     1      23.338   0.748  53.215  1.00  0.00     0.091 A 
HETATM   23  C22 UNL     1      22.105   0.188  53.599  1.00  0.00     0.069 A 
HETATM   24 CL1  UNL     1      21.819  -1.219  54.623  1.00  0.00    -0.081 Cl
HETATM   25  C23 UNL     1      20.899   0.749  53.167  1.00  0.00     0.056 A 
BRANCH  22  26
HETATM   26  O4  UNL     1      24.292  -0.016  53.792  1.00  0.00    -0.345 OA
BRANCH  26  27
HETATM   27  C15 UNL     1      25.486  -0.452  53.253  1.00  0.00     0.214 C 
BRANCH  27  28
HETATM   28  C16 UNL     1      26.638   0.459  53.432  1.00  0.00    -0.034 A 
HETATM   29  C17 UNL     1      27.017   1.668  52.898  1.00  0.00     0.009 A 
HETATM   30  C18 UNL     1      28.193   2.289  53.250  1.00  0.00     0.001 A 
HETATM   31  C19 UNL     1      29.072   1.744  54.162  1.00  0.00     0.000 A 
HETATM   32  C20 UNL     1      28.722   0.522  54.723  1.00  0.00     0.001 A 
HETATM   33  C21 UNL     1      27.539  -0.089  54.361  1.00  0.00     0.009 A 
ENDBRANCH  27  28
ENDBRANCH  26  27
ENDBRANCH  22  26
ENDBRANCH   1  19
TORSDOF 10
ENDMDL
MODEL 9
REMARK VINA RESULT:      -7.2      5.112      8.665
REMARK  10 active torsions:
REMARK  status: ('A' for Active; 'I' for Inactive)
REMARK    1  A    between atoms: C2_2  and  S1_3 
REMARK    2  A    between atoms: S1_3  and  N1_6 
REMARK    3  A    between atoms: N1_6  and  C3_7 
REMARK    4  A    between atoms: C4_8  and  O3_9 
REMARK    5  A    between atoms: O3_9  and  C5_10 
REMARK    6  A    between atoms: C10_15  and  N2_16 
REMARK    7  A    between atoms: N2_16  and  C11_17 
REMARK    8  A    between atoms: C14_20  and  O4_21 
REMARK    9  A    between atoms: O4_21  and  C15_22 
REMARK   10  A    between atoms: C15_22  and  C16_23 
ROOT
HETATM    1  N2  UNL     1      27.226   6.994  49.375  1.00  0.00    -0.383 N 
HETATM    2  H17 UNL     1      27.791   7.248  50.232  1.00  0.00     0.160 HD
ENDROOT
BRANCH   1   3
HETATM    3  C10 UNL     1      27.625   7.702  48.169  1.00  0.00     0.112 C 
HETATM    4  C3  UNL     1      28.159   9.097  48.557  1.00  0.00     0.172 C 
HETATM    5  C4  UNL     1      29.581   8.882  48.884  1.00  0.00     0.068 C 
HETATM    6  C7  UNL     1      30.406   7.849  48.807  1.00  0.00     0.008 C 
HETATM    7  C8  UNL     1      29.827   6.566  48.268  1.00  0.00     0.032 C 
HETATM    8  C9  UNL     1      28.688   6.970  47.380  1.00  0.00     0.031 C 
BRANCH   4   9
HETATM    9  N1  UNL     1      27.898   9.945  47.472  1.00  0.00    -0.303 N 
HETATM   10  H4  UNL     1      28.008   9.554  46.519  1.00  0.00     0.173 HD
BRANCH   9  11
HETATM   11  S1  UNL     1      26.707  11.130  47.681  1.00  0.00     0.248 S 
HETATM   12  O1  UNL     1      25.963  11.000  48.977  1.00  0.00    -0.201 OA
HETATM   13  O2  UNL     1      25.798  11.110  46.498  1.00  0.00    -0.201 OA
BRANCH  11  14
HETATM   14  C2  UNL     1      27.504  12.694  47.713  1.00  0.00     0.121 C 
HETATM   15  C1  UNL     1      26.836  13.787  48.140  1.00  0.00     0.025 C 
ENDBRANCH  11  14
ENDBRANCH   9  11
ENDBRANCH   4   9
BRANCH   5  16
HETATM   16  O3  UNL     1      29.995  10.115  49.363  1.00  0.00    -0.354 OA
BRANCH  16  17
HETATM   17  C5  UNL     1      30.966  10.908  48.727  1.00  0.00     0.171 C 
HETATM   18  C6  UNL     1      30.809  12.350  49.117  1.00  0.00     0.034 C 
ENDBRANCH  16  17
ENDBRANCH   5  16
ENDBRANCH   1   3
BRANCH   1  19
HETATM   19  C11 UNL     1      26.203   6.018  49.584  1.00  0.00     0.030 A 
HETATM   20  C12 UNL     1      26.428   4.706  49.232  1.00  0.00     0.032 A 
HETATM   21  C13 UNL     1      25.455   3.784  49.454  1.00  0.00     0.041 A 
HETATM   22  C14 UNL     1      24.235   4.054  50.013  1.00  0.00     0.091 A 
HETATM   23  C22 UNL     1      24.006   5.396  50.371  1.00  0.00     0.069 A 
HETATM   24 CL1  UNL     1      22.564   6.095  51.107  1.00  0.00    -0.081 Cl
HETATM   25  C23 UNL     1      24.985   6.371  50.158  1.00  0.00     0.056 A 
BRANCH  22  26
HETATM   26  O4  UNL     1      23.113   3.380  50.346  1.00  0.00    -0.345 OA
BRANCH  26  27
HETATM   27  C15 UNL     1      22.776   2.073  50.052  1.00  0.00     0.214 C 
BRANCH  27  28
HETATM   28  C16 UNL     1      22.641   1.171  51.218  1.00  0.00    -0.034 A 
HETATM   29  C17 UNL     1      21.655   0.347  51.704  1.00  0.00     0.009 A 
HETATM   30  C18 UNL     1      21.809  -0.379  52.863  1.00  0.00     0.001 A 
HETATM   31  C19 UNL     1      22.963  -0.331  53.615  1.00  0.00     0.000 A 
HETATM   32  C20 UNL     1      23.984   0.492  53.155  1.00  0.00     0.001 A 
HETATM   33  C21 UNL     1      23.814   1.214  51.991  1.00  0.00     0.009 A 
ENDBRANCH  27  28
ENDBRANCH  26  27
ENDBRANCH  22  26
ENDBRANCH   1  19
TORSDOF 10
ENDMDL
