MODEL 1
REMARK VINA RESULT:      -8.1      0.000      0.000
REMARK  3 active torsions:
REMARK  status: ('A' for Active; 'I' for Inactive)
REMARK    1  A    between atoms: O1_2  and  C2_3 
REMARK    2  A    between atoms: C6_8  and  N2_9 
REMARK    3  A    between atoms: C20_27  and  O3_28 
ROOT
HETATM    1  C2  UNL     1      22.560   6.868  50.085  1.00  0.00     0.075 C 
HETATM    2  C3  UNL     1      23.023   6.042  51.017  1.00  0.00     0.053 C 
HETATM    3  C4  UNL     1      23.723   4.877  51.612  1.00  0.00     0.113 C 
HETATM    4  N1  UNL     1      24.313   4.026  50.898  1.00  0.00    -0.296 NA
HETATM    5  C5  UNL     1      25.006   2.891  51.367  1.00  0.00     0.205 C 
HETATM    6  C6  UNL     1      24.202   1.860  52.062  1.00  0.00     0.029 C 
HETATM    7  C12 UNL     1      22.922   1.694  52.376  1.00  0.00     0.027 C 
HETATM    8  C13 UNL     1      21.492   1.944  52.492  1.00  0.00     0.016 C 
HETATM    9  C14 UNL     1      20.647   1.148  51.831  1.00  0.00    -0.002 C 
HETATM   10  C15 UNL     1      21.262   0.192  51.141  1.00  0.00     0.149 C 
HETATM   11  O2  UNL     1      21.921   1.021  50.174  1.00  0.00    -0.333 OA
HETATM   12  C16 UNL     1      21.080   1.632  49.192  1.00  0.00     0.443 C 
HETATM   13  N3  UNL     1      21.643   2.096  48.018  1.00  0.00     0.106 N 
HETATM   14  C17 UNL     1      22.600   3.120  47.965  1.00  0.00     0.272 C 
HETATM   15  C18 UNL     1      22.119   4.467  48.381  1.00  0.00     0.033 C 
HETATM   16  C19 UNL     1      23.160   5.517  48.091  1.00  0.00     0.040 C 
HETATM   17  C20 UNL     1      22.656   6.872  48.619  1.00  0.00     0.174 C 
HETATM   18  H19 UNL     1      21.989   1.291  47.445  1.00  0.00     0.318 HD
ENDROOT
BRANCH   6  19
HETATM   19  N2  UNL     1      25.125   0.810  52.463  1.00  0.00    -0.348 N 
HETATM   20  C7  UNL     1      26.365   0.529  51.776  1.00  0.00     0.154 C 
HETATM   21  C8  UNL     1      27.507   0.657  52.705  1.00  0.00     0.012 C 
HETATM   22  C9  UNL     1      27.210   0.119  53.867  1.00  0.00     0.014 C 
HETATM   23 CL1  UNL     1      28.496   0.201  55.085  1.00  0.00    -0.089 Cl
HETATM   24  C10 UNL     1      25.974  -0.553  54.339  1.00  0.00     0.110 C 
HETATM   25  C11 UNL     1      24.798   0.007  53.601  1.00  0.00     0.277 C 
HETATM   26  F1  UNL     1      24.000  -1.042  53.166  1.00  0.00    -0.226 F 
ENDBRANCH   6  19
BRANCH   1  27
HETATM   27  O1  UNL     1      21.805   8.036  50.331  1.00  0.00    -0.358 OA
HETATM   28  C1  UNL     1      20.484   8.220  49.923  1.00  0.00     0.209 C 
ENDBRANCH   1  27
BRANCH  17  29
HETATM   29  O3  UNL     1      23.585   7.823  48.233  1.00  0.00    -0.389 OA
HETATM   30  H27 UNL     1      23.342   8.663  48.715  1.00  0.00     0.210 HD
ENDBRANCH  17  29
TORSDOF 3
ENDMDL
MODEL 2
REMARK VINA RESULT:      -7.9      3.573      7.245
REMARK  3 active torsions:
REMARK  status: ('A' for Active; 'I' for Inactive)
REMARK    1  A    between atoms: O1_2  and  C2_3 
REMARK    2  A    between atoms: C6_8  and  N2_9 
REMARK    3  A    between atoms: C20_27  and  O3_28 
ROOT
HETATM    1  C2  UNL     1      25.862  -0.238  52.966  1.00  0.00     0.075 C 
HETATM    2  C3  UNL     1      25.862   0.962  52.396  1.00  0.00     0.053 C 
HETATM    3  C4  UNL     1      25.408   2.332  52.051  1.00  0.00     0.113 C 
HETATM    4  N1  UNL     1      24.353   2.818  52.532  1.00  0.00    -0.296 NA
HETATM    5  C5  UNL     1      23.842   4.106  52.269  1.00  0.00     0.205 C 
HETATM    6  C6  UNL     1      23.422   4.384  50.876  1.00  0.00     0.029 C 
HETATM    7  C12 UNL     1      23.382   3.706  49.734  1.00  0.00     0.027 C 
HETATM    8  C13 UNL     1      23.524   2.618  48.777  1.00  0.00     0.016 C 
HETATM    9  C14 UNL     1      22.419   2.078  48.254  1.00  0.00    -0.002 C 
HETATM   10  C15 UNL     1      21.301   2.647  48.696  1.00  0.00     0.149 C 
HETATM   11  O2  UNL     1      21.380   2.229  50.066  1.00  0.00    -0.333 OA
HETATM   12  C16 UNL     1      21.150   0.840  50.315  1.00  0.00     0.443 C 
HETATM   13  N3  UNL     1      20.808   0.431  51.590  1.00  0.00     0.106 N 
HETATM   14  C17 UNL     1      21.644   0.586  52.707  1.00  0.00     0.272 C 
HETATM   15  C18 UNL     1      22.899  -0.215  52.681  1.00  0.00     0.033 C 
HETATM   16  C19 UNL     1      23.611  -0.132  54.006  1.00  0.00     0.040 C 
HETATM   17  C20 UNL     1      24.942  -0.899  53.901  1.00  0.00     0.174 C 
HETATM   18  H19 UNL     1      19.857   0.791  51.839  1.00  0.00     0.318 HD
ENDROOT
BRANCH   6  19
HETATM   19  N2  UNL     1      22.953   5.760  50.848  1.00  0.00    -0.348 N 
HETATM   20  C7  UNL     1      23.629   6.850  51.513  1.00  0.00     0.154 C 
HETATM   21  C8  UNL     1      24.000   7.896  50.536  1.00  0.00     0.012 C 
HETATM   22  C9  UNL     1      23.016   8.092  49.687  1.00  0.00     0.014 C 
HETATM   23 CL1  UNL     1      23.324   9.328  48.452  1.00  0.00    -0.089 Cl
HETATM   24  C10 UNL     1      21.680   7.456  49.582  1.00  0.00     0.110 C 
HETATM   25  C11 UNL     1      21.757   6.062  50.123  1.00  0.00     0.277 C 
HETATM   26  F1  UNL     1      20.679   5.849  50.972  1.00  0.00    -0.226 F 
ENDBRANCH   6  19
BRANCH   1  27
HETATM   27  O1  UNL     1      26.849  -1.231  52.778  1.00  0.00    -0.358 OA
HETATM   28  C1  UNL     1      28.200  -1.065  53.083  1.00  0.00     0.209 C 
ENDBRANCH   1  27
BRANCH  17  29
HETATM   29  O3  UNL     1      25.508  -0.894  55.166  1.00  0.00    -0.389 OA
HETATM   30  H27 UNL     1      26.124  -1.678  55.198  1.00  0.00     0.210 HD
ENDBRANCH  17  29
TORSDOF 3
ENDMDL
MODEL 3
REMARK VINA RESULT:      -7.7      4.119      7.408
REMARK  3 active torsions:
REMARK  status: ('A' for Active; 'I' for Inactive)
REMARK    1  A    between atoms: O1_2  and  C2_3 
REMARK    2  A    between atoms: C6_8  and  N2_9 
REMARK    3  A    between atoms: C20_27  and  O3_28 
ROOT
HETATM    1  C2  UNL     1      26.392   1.777  51.992  1.00  0.00     0.075 C 
HETATM    2  C3  UNL     1      26.159   2.357  50.820  1.00  0.00     0.053 C 
HETATM    3  C4  UNL     1      25.596   3.315  49.835  1.00  0.00     0.113 C 
HETATM    4  N1  UNL     1      24.815   4.237  50.184  1.00  0.00    -0.296 NA
HETATM    5  C5  UNL     1      24.233   5.195  49.328  1.00  0.00     0.205 C 
HETATM    6  C6  UNL     1      23.293   4.686  48.302  1.00  0.00     0.029 C 
HETATM    7  C12 UNL     1      22.809   3.501  47.950  1.00  0.00     0.027 C 
HETATM    8  C13 UNL     1      22.566   2.065  47.936  1.00  0.00     0.016 C 
HETATM    9  C14 UNL     1      21.348   1.618  48.256  1.00  0.00    -0.002 C 
HETATM   10  C15 UNL     1      20.493   2.596  48.543  1.00  0.00     0.149 C 
HETATM   11  O2  UNL     1      21.111   3.069  49.748  1.00  0.00    -0.333 OA
HETATM   12  C16 UNL     1      21.008   2.211  50.887  1.00  0.00     0.443 C 
HETATM   13  N3  UNL     1      21.203   2.740  52.149  1.00  0.00     0.106 N 
HETATM   14  C17 UNL     1      22.412   3.310  52.576  1.00  0.00     0.272 C 
HETATM   15  C18 UNL     1      23.559   2.367  52.688  1.00  0.00     0.033 C 
HETATM   16  C19 UNL     1      24.737   3.038  53.344  1.00  0.00     0.040 C 
HETATM   17  C20 UNL     1      25.922   2.056  53.355  1.00  0.00     0.174 C 
HETATM   18  H19 UNL     1      20.425   3.401  52.384  1.00  0.00     0.318 HD
ENDROOT
BRANCH   6  19
HETATM   19  N2  UNL     1      22.843   5.840  47.540  1.00  0.00    -0.348 N 
HETATM   20  C7  UNL     1      23.376   7.172  47.714  1.00  0.00     0.154 C 
HETATM   21  C8  UNL     1      23.936   7.671  46.440  1.00  0.00     0.012 C 
HETATM   22  C9  UNL     1      23.141   7.356  45.441  1.00  0.00     0.014 C 
HETATM   23 CL1  UNL     1      23.691   7.895  43.844  1.00  0.00    -0.089 Cl
HETATM   24  C10 UNL     1      21.851   6.624  45.419  1.00  0.00     0.110 C 
HETATM   25  C11 UNL     1      21.816   5.657  46.561  1.00  0.00     0.277 C 
HETATM   26  F1  UNL     1      20.590   5.767  47.205  1.00  0.00    -0.226 F 
ENDBRANCH   6  19
BRANCH   1  27
HETATM   27  O1  UNL     1      27.230   0.657  52.196  1.00  0.00    -0.358 OA
HETATM   28  C1  UNL     1      26.776  -0.606  52.576  1.00  0.00     0.209 C 
ENDBRANCH   1  27
BRANCH  17  29
HETATM   29  O3  UNL     1      26.943   2.667  54.065  1.00  0.00    -0.389 OA
HETATM   30  H27 UNL     1      27.496   3.156  53.393  1.00  0.00     0.210 HD
ENDBRANCH  17  29
TORSDOF 3
ENDMDL
MODEL 4
REMARK VINA RESULT:      -7.5      3.541      5.835
REMARK  3 active torsions:
REMARK  status: ('A' for Active; 'I' for Inactive)
REMARK    1  A    between atoms: O1_2  and  C2_3 
REMARK    2  A    between atoms: C6_8  and  N2_9 
REMARK    3  A    between atoms: C20_27  and  O3_28 
ROOT
HETATM    1  C2  UNL     1      16.265   0.739  50.780  1.00  0.00     0.075 C 
HETATM    2  C3  UNL     1      17.472   0.245  51.030  1.00  0.00     0.053 C 
HETATM    3  C4  UNL     1      18.864   0.178  51.542  1.00  0.00     0.113 C 
HETATM    4  N1  UNL     1      19.381   1.135  52.172  1.00  0.00    -0.296 NA
HETATM    5  C5  UNL     1      20.689   1.167  52.700  1.00  0.00     0.205 C 
HETATM    6  C6  UNL     1      21.801   1.112  51.723  1.00  0.00     0.029 C 
HETATM    7  C12 UNL     1      21.914   1.047  50.402  1.00  0.00     0.027 C 
HETATM    8  C13 UNL     1      21.549   0.982  48.994  1.00  0.00     0.016 C 
HETATM    9  C14 UNL     1      21.847   2.020  48.206  1.00  0.00    -0.002 C 
HETATM   10  C15 UNL     1      22.472   3.001  48.852  1.00  0.00     0.149 C 
HETATM   11  O2  UNL     1      21.398   3.405  49.712  1.00  0.00    -0.333 OA
HETATM   12  C16 UNL     1      20.307   4.082  49.082  1.00  0.00     0.443 C 
HETATM   13  N3  UNL     1      19.452   4.846  49.854  1.00  0.00     0.106 N 
HETATM   14  C17 UNL     1      18.651   4.321  50.880  1.00  0.00     0.272 C 
HETATM   15  C18 UNL     1      17.577   3.389  50.439  1.00  0.00     0.033 C 
HETATM   16  C19 UNL     1      16.660   3.054  51.586  1.00  0.00     0.040 C 
HETATM   17  C20 UNL     1      15.624   2.021  51.104  1.00  0.00     0.174 C 
HETATM   18  H19 UNL     1      19.959   5.684  50.227  1.00  0.00     0.318 HD
ENDROOT
BRANCH   6  19
HETATM   19  N2  UNL     1      23.034   1.140  52.494  1.00  0.00    -0.348 N 
HETATM   20  C7  UNL     1      23.349   0.190  53.537  1.00  0.00     0.154 C 
HETATM   21  C8  UNL     1      24.609  -0.517  53.225  1.00  0.00     0.012 C 
HETATM   22  C9  UNL     1      25.498   0.328  52.752  1.00  0.00     0.014 C 
HETATM   23 CL1  UNL     1      27.066  -0.387  52.333  1.00  0.00    -0.089 Cl
HETATM   24  C10 UNL     1      25.417   1.789  52.508  1.00  0.00     0.110 C 
HETATM   25  C11 UNL     1      23.997   2.159  52.210  1.00  0.00     0.277 C 
HETATM   26  F1  UNL     1      23.660   3.282  52.955  1.00  0.00    -0.226 F 
ENDBRANCH   6  19
BRANCH   1  27
HETATM   27  O1  UNL     1      15.236   0.068  50.083  1.00  0.00    -0.358 OA
HETATM   28  C1  UNL     1      15.037  -1.313  50.112  1.00  0.00     0.209 C 
ENDBRANCH   1  27
BRANCH  17  29
HETATM   29  O3  UNL     1      14.737   1.827  52.149  1.00  0.00    -0.389 OA
HETATM   30  H27 UNL     1      15.288   1.565  52.939  1.00  0.00     0.210 HD
ENDBRANCH  17  29
TORSDOF 3
ENDMDL
MODEL 5
REMARK VINA RESULT:      -7.5      8.348     10.916
REMARK  3 active torsions:
REMARK  status: ('A' for Active; 'I' for Inactive)
REMARK    1  A    between atoms: O1_2  and  C2_3 
REMARK    2  A    between atoms: C6_8  and  N2_9 
REMARK    3  A    between atoms: C20_27  and  O3_28 
ROOT
HETATM    1  C2  UNL     1      33.829   5.174  47.883  1.00  0.00     0.075 C 
HETATM    2  C3  UNL     1      32.750   5.506  48.584  1.00  0.00     0.053 C 
HETATM    3  C4  UNL     1      31.341   5.877  48.867  1.00  0.00     0.113 C 
HETATM    4  N1  UNL     1      30.492   5.991  47.946  1.00  0.00    -0.296 NA
HETATM    5  C5  UNL     1      29.134   6.334  48.113  1.00  0.00     0.205 C 
HETATM    6  C6  UNL     1      28.850   7.688  48.644  1.00  0.00     0.029 C 
HETATM    7  C12 UNL     1      29.569   8.739  49.021  1.00  0.00     0.027 C 
HETATM    8  C13 UNL     1      30.718   9.588  49.304  1.00  0.00     0.016 C 
HETATM    9  C14 UNL     1      30.900  10.686  48.565  1.00  0.00    -0.002 C 
HETATM   10  C15 UNL     1      29.955  10.858  47.644  1.00  0.00     0.149 C 
HETATM   11  O2  UNL     1      30.259   9.725  46.818  1.00  0.00    -0.333 OA
HETATM   12  C16 UNL     1      31.465   9.808  46.055  1.00  0.00     0.443 C 
HETATM   13  N3  UNL     1      31.628   8.981  44.959  1.00  0.00     0.106 N 
HETATM   14  C17 UNL     1      31.669   7.581  45.041  1.00  0.00     0.272 C 
HETATM   15  C18 UNL     1      32.842   7.017  45.763  1.00  0.00     0.033 C 
HETATM   16  C19 UNL     1      32.891   5.518  45.611  1.00  0.00     0.040 C 
HETATM   17  C20 UNL     1      34.063   4.975  46.447  1.00  0.00     0.174 C 
HETATM   18  H19 UNL     1      30.951   9.248  44.206  1.00  0.00     0.318 HD
ENDROOT
BRANCH   6  19
HETATM   19  N2  UNL     1      27.404   7.802  48.743  1.00  0.00    -0.348 N 
HETATM   20  C7  UNL     1      26.485   6.820  48.215  1.00  0.00     0.154 C 
HETATM   21  C8  UNL     1      25.623   6.292  49.293  1.00  0.00     0.012 C 
HETATM   22  C9  UNL     1      25.231   7.269  50.080  1.00  0.00     0.014 C 
HETATM   23 CL1  UNL     1      24.185   6.778  51.425  1.00  0.00    -0.089 Cl
HETATM   24  C10 UNL     1      25.514   8.725  50.037  1.00  0.00     0.110 C 
HETATM   25  C11 UNL     1      26.850   8.946  49.399  1.00  0.00     0.277 C 
HETATM   26  F1  UNL     1      26.735   9.962  48.459  1.00  0.00    -0.226 F 
ENDBRANCH   6  19
BRANCH   1  27
HETATM   27  O1  UNL     1      35.107   4.914  48.426  1.00  0.00    -0.358 OA
HETATM   28  C1  UNL     1      35.802   5.792  49.257  1.00  0.00     0.209 C 
ENDBRANCH   1  27
BRANCH  17  29
HETATM   29  O3  UNL     1      34.142   3.616  46.190  1.00  0.00    -0.389 OA
HETATM   30  H27 UNL     1      33.398   3.408  45.558  1.00  0.00     0.210 HD
ENDBRANCH  17  29
TORSDOF 3
ENDMDL
MODEL 6
REMARK VINA RESULT:      -7.3      2.743      4.525
REMARK  3 active torsions:
REMARK  status: ('A' for Active; 'I' for Inactive)
REMARK    1  A    between atoms: O1_2  and  C2_3 
REMARK    2  A    between atoms: C6_8  and  N2_9 
REMARK    3  A    between atoms: C20_27  and  O3_28 
ROOT
HETATM    1  C2  UNL     1      21.095   3.444  46.034  1.00  0.00     0.075 C 
HETATM    2  C3  UNL     1      22.045   2.946  46.818  1.00  0.00     0.053 C 
HETATM    3  C4  UNL     1      22.709   2.463  48.054  1.00  0.00     0.113 C 
HETATM    4  N1  UNL     1      22.115   2.457  49.163  1.00  0.00    -0.296 NA
HETATM    5  C5  UNL     1      22.657   2.016  50.388  1.00  0.00     0.205 C 
HETATM    6  C6  UNL     1      23.806   2.785  50.923  1.00  0.00     0.029 C 
HETATM    7  C12 UNL     1      24.505   3.850  50.546  1.00  0.00     0.027 C 
HETATM    8  C13 UNL     1      24.951   4.993  49.763  1.00  0.00     0.016 C 
HETATM    9  C14 UNL     1      24.800   6.218  50.276  1.00  0.00    -0.002 C 
HETATM   10  C15 UNL     1      24.251   6.212  51.487  1.00  0.00     0.149 C 
HETATM   11  O2  UNL     1      22.949   5.733  51.125  1.00  0.00    -0.333 OA
HETATM   12  C16 UNL     1      22.120   6.647  50.403  1.00  0.00     0.443 C 
HETATM   13  N3  UNL     1      20.753   6.437  50.371  1.00  0.00     0.106 N 
HETATM   14  C17 UNL     1      20.154   5.303  49.801  1.00  0.00     0.272 C 
HETATM   15  C18 UNL     1      20.307   5.172  48.326  1.00  0.00     0.033 C 
HETATM   16  C19 UNL     1      19.458   4.043  47.801  1.00  0.00     0.040 C 
HETATM   17  C20 UNL     1      19.719   3.890  46.292  1.00  0.00     0.174 C 
HETATM   18  H19 UNL     1      20.347   6.581  51.325  1.00  0.00     0.318 HD
ENDROOT
BRANCH   6  19
HETATM   19  N2  UNL     1      24.197   2.140  52.166  1.00  0.00    -0.348 N 
HETATM   20  C7  UNL     1      23.708   0.846  52.585  1.00  0.00     0.154 C 
HETATM   21  C8  UNL     1      24.836  -0.088  52.787  1.00  0.00     0.012 C 
HETATM   22  C9  UNL     1      25.826   0.522  53.399  1.00  0.00     0.014 C 
HETATM   23 CL1  UNL     1      27.254  -0.484  53.708  1.00  0.00    -0.089 Cl
HETATM   24  C10 UNL     1      25.957   1.919  53.884  1.00  0.00     0.110 C 
HETATM   25  C11 UNL     1      25.117   2.815  53.029  1.00  0.00     0.277 C 
HETATM   26  F1  UNL     1      24.387   3.664  53.850  1.00  0.00    -0.226 F 
ENDBRANCH   6  19
BRANCH   1  27
HETATM   27  O1  UNL     1      21.218   3.669  44.645  1.00  0.00    -0.358 OA
HETATM   28  C1  UNL     1      21.106   4.920  44.038  1.00  0.00     0.209 C 
ENDBRANCH   1  27
BRANCH  17  29
HETATM   29  O3  UNL     1      18.841   2.923  45.830  1.00  0.00    -0.389 OA
HETATM   30  H27 UNL     1      18.260   3.374  45.155  1.00  0.00     0.210 HD
ENDBRANCH  17  29
TORSDOF 3
ENDMDL
MODEL 7
REMARK VINA RESULT:      -7.2      9.347     12.044
REMARK  3 active torsions:
REMARK  status: ('A' for Active; 'I' for Inactive)
REMARK    1  A    between atoms: O1_2  and  C2_3 
REMARK    2  A    between atoms: C6_8  and  N2_9 
REMARK    3  A    between atoms: C20_27  and  O3_28 
ROOT
HETATM    1  C2  UNL     1      32.932   5.673  44.920  1.00  0.00     0.075 C 
HETATM    2  C3  UNL     1      32.436   6.901  44.824  1.00  0.00     0.053 C 
HETATM    3  C4  UNL     1      31.963   8.242  45.249  1.00  0.00     0.113 C 
HETATM    4  N1  UNL     1      31.983   8.596  46.456  1.00  0.00    -0.296 NA
HETATM    5  C5  UNL     1      31.560   9.844  46.958  1.00  0.00     0.205 C 
HETATM    6  C6  UNL     1      30.122  10.170  46.808  1.00  0.00     0.029 C 
HETATM    7  C12 UNL     1      29.050   9.566  46.308  1.00  0.00     0.027 C 
HETATM    8  C13 UNL     1      28.212   8.559  45.673  1.00  0.00     0.016 C 
HETATM    9  C14 UNL     1      27.273   7.952  46.405  1.00  0.00    -0.002 C 
HETATM   10  C15 UNL     1      27.232   8.385  47.662  1.00  0.00     0.149 C 
HETATM   11  O2  UNL     1      28.506   7.890  48.096  1.00  0.00    -0.333 OA
HETATM   12  C16 UNL     1      28.612   6.472  48.250  1.00  0.00     0.443 C 
HETATM   13  N3  UNL     1      29.628   5.953  49.030  1.00  0.00     0.106 N 
HETATM   14  C17 UNL     1      30.991   6.113  48.738  1.00  0.00     0.272 C 
HETATM   15  C18 UNL     1      31.463   5.436  47.499  1.00  0.00     0.033 C 
HETATM   16  C19 UNL     1      32.965   5.501  47.396  1.00  0.00     0.040 C 
HETATM   17  C20 UNL     1      33.397   4.870  46.060  1.00  0.00     0.174 C 
HETATM   18  H19 UNL     1      29.474   6.206  50.034  1.00  0.00     0.318 HD
ENDROOT
BRANCH   6  19
HETATM   19  N2  UNL     1      29.933  11.495  47.376  1.00  0.00    -0.348 N 
HETATM   20  C7  UNL     1      30.089  12.718  46.623  1.00  0.00     0.154 C 
HETATM   21  C8  UNL     1      28.836  13.503  46.653  1.00  0.00     0.012 C 
HETATM   22  C9  UNL     1      28.316  13.481  47.860  1.00  0.00     0.014 C 
HETATM   23 CL1  UNL     1      26.802  14.387  48.044  1.00  0.00    -0.089 Cl
HETATM   24  C10 UNL     1      28.783  12.827  49.108  1.00  0.00     0.110 C 
HETATM   25  C11 UNL     1      29.571  11.604  48.756  1.00  0.00     0.277 C 
HETATM   26  F1  UNL     1      30.740  11.593  49.505  1.00  0.00    -0.226 F 
ENDBRANCH   6  19
BRANCH   1  27
HETATM   27  O1  UNL     1      33.143   4.790  43.837  1.00  0.00    -0.358 OA
HETATM   28  C1  UNL     1      33.122   5.172  42.496  1.00  0.00     0.209 C 
ENDBRANCH   1  27
BRANCH  17  29
HETATM   29  O3  UNL     1      34.782   4.847  46.056  1.00  0.00    -0.389 OA
HETATM   30  H27 UNL     1      35.066   5.282  45.204  1.00  0.00     0.210 HD
ENDBRANCH  17  29
TORSDOF 3
ENDMDL
MODEL 8
REMARK VINA RESULT:      -7.0      3.864      7.391
REMARK  3 active torsions:
REMARK  status: ('A' for Active; 'I' for Inactive)
REMARK    1  A    between atoms: O1_2  and  C2_3 
REMARK    2  A    between atoms: C6_8  and  N2_9 
REMARK    3  A    between atoms: C20_27  and  O3_28 
ROOT
HETATM    1  C2  UNL     1      26.175   0.127  53.897  1.00  0.00     0.075 C 
HETATM    2  C3  UNL     1      24.903   0.489  53.773  1.00  0.00     0.053 C 
HETATM    3  C4  UNL     1      23.617   0.832  53.115  1.00  0.00     0.113 C 
HETATM    4  N1  UNL     1      23.490   0.810  51.864  1.00  0.00    -0.296 NA
HETATM    5  C5  UNL     1      22.314   1.114  51.147  1.00  0.00     0.205 C 
HETATM    6  C6  UNL     1      21.815   2.505  51.249  1.00  0.00     0.029 C 
HETATM    7  C12 UNL     1      22.200   3.620  51.860  1.00  0.00     0.027 C 
HETATM    8  C13 UNL     1      22.980   4.540  52.676  1.00  0.00     0.016 C 
HETATM    9  C14 UNL     1      23.604   5.557  52.075  1.00  0.00    -0.002 C 
HETATM   10  C15 UNL     1      23.402   5.589  50.760  1.00  0.00     0.149 C 
HETATM   11  O2  UNL     1      24.101   4.386  50.411  1.00  0.00    -0.333 OA
HETATM   12  C16 UNL     1      25.527   4.434  50.517  1.00  0.00     0.443 C 
HETATM   13  N3  UNL     1      26.284   3.499  49.835  1.00  0.00     0.106 N 
HETATM   14  C17 UNL     1      26.222   2.119  50.081  1.00  0.00     0.272 C 
HETATM   15  C18 UNL     1      26.711   1.685  51.418  1.00  0.00     0.033 C 
HETATM   16  C19 UNL     1      26.792   0.182  51.493  1.00  0.00     0.040 C 
HETATM   17  C20 UNL     1      27.214  -0.219  52.918  1.00  0.00     0.174 C 
HETATM   18  H19 UNL     1      26.200   3.655  48.803  1.00  0.00     0.318 HD
ENDROOT
BRANCH   6  19
HETATM   19  N2  UNL     1      20.600   2.571  50.451  1.00  0.00    -0.348 N 
HETATM   20  C7  UNL     1      20.054   1.445  49.730  1.00  0.00     0.154 C 
HETATM   21  C8  UNL     1      18.676   1.164  50.183  1.00  0.00     0.012 C 
HETATM   22  C9  UNL     1      18.012   2.288  50.340  1.00  0.00     0.014 C 
HETATM   23 CL1  UNL     1      16.334   2.101  50.884  1.00  0.00    -0.089 Cl
HETATM   24  C10 UNL     1      18.426   3.698  50.136  1.00  0.00     0.110 C 
HETATM   25  C11 UNL     1      19.899   3.816  50.372  1.00  0.00     0.277 C 
HETATM   26  F1  UNL     1      20.461   4.556  49.340  1.00  0.00    -0.226 F 
ENDBRANCH   6  19
BRANCH   1  27
HETATM   27  O1  UNL     1      26.866  -0.021  55.120  1.00  0.00    -0.358 OA
HETATM   28  C1  UNL     1      28.232   0.210  55.285  1.00  0.00     0.209 C 
ENDBRANCH   1  27
BRANCH  17  29
HETATM   29  O3  UNL     1      27.386  -1.593  52.913  1.00  0.00    -0.389 OA
HETATM   30  H27 UNL     1      26.689  -1.963  53.524  1.00  0.00     0.210 HD
ENDBRANCH  17  29
TORSDOF 3
ENDMDL
MODEL 9
REMARK VINA RESULT:      -6.9      4.084      7.896
REMARK  3 active torsions:
REMARK  status: ('A' for Active; 'I' for Inactive)
REMARK    1  A    between atoms: O1_2  and  C2_3 
REMARK    2  A    between atoms: C6_8  and  N2_9 
REMARK    3  A    between atoms: C20_27  and  O3_28 
ROOT
HETATM    1  C2  UNL     1      20.984   0.579  52.533  1.00  0.00     0.075 C 
HETATM    2  C3  UNL     1      20.603   1.187  51.415  1.00  0.00     0.053 C 
HETATM    3  C4  UNL     1      20.713   1.863  50.098  1.00  0.00     0.113 C 
HETATM    4  N1  UNL     1      21.827   2.062  49.551  1.00  0.00    -0.296 NA
HETATM    5  C5  UNL     1      22.035   2.689  48.304  1.00  0.00     0.205 C 
HETATM    6  C6  UNL     1      21.646   4.115  48.204  1.00  0.00     0.029 C 
HETATM    7  C12 UNL     1      21.133   5.028  49.021  1.00  0.00     0.027 C 
HETATM    8  C13 UNL     1      20.590   5.647  50.222  1.00  0.00     0.016 C 
HETATM    9  C14 UNL     1      21.295   6.612  50.820  1.00  0.00    -0.002 C 
HETATM   10  C15 UNL     1      22.437   6.887  50.195  1.00  0.00     0.149 C 
HETATM   11  O2  UNL     1      23.113   5.645  50.435  1.00  0.00    -0.333 OA
HETATM   12  C16 UNL     1      23.535   5.409  51.781  1.00  0.00     0.443 C 
HETATM   13  N3  UNL     1      24.519   4.468  52.023  1.00  0.00     0.106 N 
HETATM   14  C17 UNL     1      24.379   3.103  51.732  1.00  0.00     0.272 C 
HETATM   15  C18 UNL     1      23.354   2.380  52.535  1.00  0.00     0.033 C 
HETATM   16  C19 UNL     1      23.433   0.896  52.287  1.00  0.00     0.040 C 
HETATM   17  C20 UNL     1      22.301   0.204  53.066  1.00  0.00     0.174 C 
HETATM   18  H19 UNL     1      25.433   4.797  51.630  1.00  0.00     0.318 HD
ENDROOT
BRANCH   6  19
HETATM   19  N2  UNL     1      21.934   4.531  46.841  1.00  0.00    -0.348 N 
HETATM   20  C7  UNL     1      22.062   3.612  45.733  1.00  0.00     0.154 C 
HETATM   21  C8  UNL     1      21.081   3.940  44.678  1.00  0.00     0.012 C 
HETATM   22  C9  UNL     1      21.016   5.241  44.507  1.00  0.00     0.014 C 
HETATM   23 CL1  UNL     1      19.872   5.781  43.264  1.00  0.00    -0.089 Cl
HETATM   24  C10 UNL     1      21.742   6.347  45.179  1.00  0.00     0.110 C 
HETATM   25  C11 UNL     1      22.099   5.926  46.570  1.00  0.00     0.277 C 
HETATM   26  F1  UNL     1      23.427   6.253  46.811  1.00  0.00    -0.226 F 
ENDBRANCH   6  19
BRANCH   1  27
HETATM   27  O1  UNL     1      20.116   0.114  53.547  1.00  0.00    -0.358 OA
HETATM   28  C1  UNL     1      19.078  -0.793  53.338  1.00  0.00     0.209 C 
ENDBRANCH   1  27
BRANCH  17  29
HETATM   29  O3  UNL     1      22.478  -1.160  52.904  1.00  0.00    -0.389 OA
HETATM   30  H27 UNL     1      23.388  -1.278  52.511  1.00  0.00     0.210 HD
ENDBRANCH  17  29
TORSDOF 3
ENDMDL
