MODEL 1
REMARK VINA RESULT:      -7.2      0.000      0.000
REMARK  5 active torsions:
REMARK  status: ('A' for Active; 'I' for Inactive)
REMARK    1  A    between atoms: C10_15  and  O1_16 
REMARK    2  A    between atoms: O1_16  and  C11_17 
REMARK    3  A    between atoms: C11_17  and  C12_18 
REMARK    4  A    between atoms: C12_18  and  C13_19 
REMARK    5  A    between atoms: C13_19  and  N4_20 
ROOT
HETATM    1  F1  UNL     1      26.396   7.120  50.151  1.00  0.00    -0.204 F 
HETATM    2  C1  UNL     1      25.494   6.149  49.888  1.00  0.00     0.140 A 
HETATM    3  C2  UNL     1      26.023   4.966  49.368  1.00  0.00     0.046 A 
HETATM    4  C3  UNL     1      25.088   3.978  49.104  1.00  0.00     0.035 A 
HETATM    5  C4  UNL     1      23.730   4.048  49.299  1.00  0.00     0.069 A 
HETATM    6  C5  UNL     1      23.166   5.198  49.809  1.00  0.00     0.111 A 
HETATM    7  C6  UNL     1      24.108   6.211  50.082  1.00  0.00     0.103 A 
HETATM    8 CL1  UNL     1      23.692   7.795  50.742  1.00  0.00    -0.078 Cl
HETATM    9  N1  UNL     1      21.897   5.749  50.138  1.00  0.00    -0.222 NA
HETATM   10  C7  UNL     1      21.792   6.081  51.403  1.00  0.00     0.196 C 
HETATM   11  N2  UNL     1      22.223   5.107  52.175  1.00  0.00    -0.224 NA
HETATM   12  C8  UNL     1      21.881   3.827  51.586  1.00  0.00     0.218 A 
HETATM   13  C9  UNL     1      20.469   3.460  51.877  1.00  0.00     0.147 A 
HETATM   14  N3  UNL     1      20.811   3.705  50.696  1.00  0.00    -0.258 NA
HETATM   15  C10 UNL     1      22.855   2.720  51.794  1.00  0.00     0.262 C 
HETATM   16  S1  UNL     1      22.663   1.699  50.246  1.00  0.00    -0.018 SA
HETATM   17  N5  UNL     1      23.132   2.811  48.916  1.00  0.00    -0.326 N 
HETATM   18  H19 UNL     1      23.106   2.831  47.898  1.00  0.00     0.174 HD
ENDROOT
BRANCH  15  19
HETATM   19  O1  UNL     1      22.485   1.847  52.813  1.00  0.00    -0.369 OA
BRANCH  19  20
HETATM   20  C11 UNL     1      22.723   0.528  52.482  1.00  0.00     0.171 C 
BRANCH  20  21
HETATM   21  C12 UNL     1      23.540  -0.121  53.584  1.00  0.00     0.056 C 
BRANCH  21  22
HETATM   22  C13 UNL     1      24.883   0.561  53.578  1.00  0.00     0.274 C 
BRANCH  22  23
HETATM   23  N4  UNL     1      25.695   0.021  52.538  1.00  0.00     0.092 N 
HETATM   24  C14 UNL     1      26.554   0.990  51.926  1.00  0.00     0.298 C 
HETATM   25  C15 UNL     1      27.587   1.394  52.971  1.00  0.00     0.198 C 
HETATM   26  O2  UNL     1      28.213   0.329  53.564  1.00  0.00    -0.388 OA
HETATM   27  C16 UNL     1      27.898  -0.901  52.987  1.00  0.00     0.198 C 
HETATM   28  C17 UNL     1      26.397  -1.125  53.043  1.00  0.00     0.298 C 
ENDBRANCH  22  23
ENDBRANCH  21  22
ENDBRANCH  20  21
ENDBRANCH  19  20
ENDBRANCH  15  19
TORSDOF 5
ENDMDL
MODEL 2
REMARK VINA RESULT:      -7.0      3.619      6.649
REMARK  5 active torsions:
REMARK  status: ('A' for Active; 'I' for Inactive)
REMARK    1  A    between atoms: C10_15  and  O1_16 
REMARK    2  A    between atoms: O1_16  and  C11_17 
REMARK    3  A    between atoms: C11_17  and  C12_18 
REMARK    4  A    between atoms: C12_18  and  C13_19 
REMARK    5  A    between atoms: C13_19  and  N4_20 
ROOT
HETATM    1  F1  UNL     1      22.973  -1.383  55.805  1.00  0.00    -0.204 F 
HETATM    2  C1  UNL     1      22.858  -0.794  54.594  1.00  0.00     0.140 A 
HETATM    3  C2  UNL     1      21.558  -0.714  54.090  1.00  0.00     0.046 A 
HETATM    4  C3  UNL     1      21.453  -0.106  52.849  1.00  0.00     0.035 A 
HETATM    5  C4  UNL     1      22.475   0.410  52.089  1.00  0.00     0.069 A 
HETATM    6  C5  UNL     1      23.774   0.350  52.549  1.00  0.00     0.111 A 
HETATM    7  C6  UNL     1      23.893  -0.266  53.812  1.00  0.00     0.103 A 
HETATM    8 CL1  UNL     1      25.424  -0.487  54.662  1.00  0.00    -0.078 Cl
HETATM    9  N1  UNL     1      25.098   0.684  52.154  1.00  0.00    -0.222 NA
HETATM   10  C7  UNL     1      25.683   1.527  52.971  1.00  0.00     0.196 C 
HETATM   11  N2  UNL     1      24.885   2.536  53.246  1.00  0.00    -0.224 NA
HETATM   12  C8  UNL     1      24.098   2.872  52.075  1.00  0.00     0.218 A 
HETATM   13  C9  UNL     1      24.876   3.718  51.129  1.00  0.00     0.147 A 
HETATM   14  N3  UNL     1      24.547   2.556  50.790  1.00  0.00    -0.258 NA
HETATM   15  C10 UNL     1      22.711   3.350  52.322  1.00  0.00     0.262 C 
HETATM   16  S1  UNL     1      21.787   2.748  50.819  1.00  0.00    -0.018 SA
HETATM   17  N5  UNL     1      21.940   0.960  50.887  1.00  0.00    -0.326 N 
HETATM   18  H19 UNL     1      21.744   0.157  50.291  1.00  0.00     0.174 HD
ENDROOT
BRANCH  15  19
HETATM   19  O1  UNL     1      22.586   4.735  52.253  1.00  0.00    -0.369 OA
BRANCH  19  20
HETATM   20  C11 UNL     1      21.580   5.126  51.392  1.00  0.00     0.171 C 
BRANCH  20  21
HETATM   21  C12 UNL     1      21.752   6.597  51.063  1.00  0.00     0.056 C 
BRANCH  21  22
HETATM   22  C13 UNL     1      23.235   6.855  51.015  1.00  0.00     0.274 C 
BRANCH  22  23
HETATM   23  N4  UNL     1      23.585   7.427  49.757  1.00  0.00     0.092 N 
HETATM   24  C14 UNL     1      24.615   8.418  49.849  1.00  0.00     0.298 C 
HETATM   25  C15 UNL     1      25.896   7.695  50.249  1.00  0.00     0.198 C 
HETATM   26  O2  UNL     1      26.180   6.609  49.464  1.00  0.00    -0.388 OA
HETATM   27  C16 UNL     1      25.333   6.472  48.364  1.00  0.00     0.198 C 
HETATM   28  C17 UNL     1      23.893   6.370  48.835  1.00  0.00     0.298 C 
ENDBRANCH  22  23
ENDBRANCH  21  22
ENDBRANCH  20  21
ENDBRANCH  19  20
ENDBRANCH  15  19
TORSDOF 5
ENDMDL
MODEL 3
REMARK VINA RESULT:      -6.7      7.592      9.825
REMARK  5 active torsions:
REMARK  status: ('A' for Active; 'I' for Inactive)
REMARK    1  A    between atoms: C10_15  and  O1_16 
REMARK    2  A    between atoms: O1_16  and  C11_17 
REMARK    3  A    between atoms: C11_17  and  C12_18 
REMARK    4  A    between atoms: C12_18  and  C13_19 
REMARK    5  A    between atoms: C13_19  and  N4_20 
ROOT
HETATM    1  F1  UNL     1      33.882   4.326  42.891  1.00  0.00    -0.204 F 
HETATM    2  C1  UNL     1      33.501   5.188  43.859  1.00  0.00     0.140 A 
HETATM    3  C2  UNL     1      32.540   6.128  43.479  1.00  0.00     0.046 A 
HETATM    4  C3  UNL     1      32.157   7.005  44.482  1.00  0.00     0.035 A 
HETATM    5  C4  UNL     1      32.618   7.038  45.775  1.00  0.00     0.069 A 
HETATM    6  C5  UNL     1      33.568   6.129  46.192  1.00  0.00     0.111 A 
HETATM    7  C6  UNL     1      33.965   5.230  45.180  1.00  0.00     0.103 A 
HETATM    8 CL1  UNL     1      35.161   3.953  45.409  1.00  0.00    -0.078 Cl
HETATM    9  N1  UNL     1      34.342   5.793  47.336  1.00  0.00    -0.222 NA
HETATM   10  C7  UNL     1      34.128   4.570  47.762  1.00  0.00     0.196 C 
HETATM   11  N2  UNL     1      32.839   4.325  47.838  1.00  0.00    -0.224 NA
HETATM   12  C8  UNL     1      32.136   5.522  48.259  1.00  0.00     0.218 A 
HETATM   13  C9  UNL     1      32.211   5.700  49.734  1.00  0.00     0.147 A 
HETATM   14  N3  UNL     1      32.787   6.523  48.984  1.00  0.00    -0.258 NA
HETATM   15  C10 UNL     1      30.777   5.729  47.686  1.00  0.00     0.262 C 
HETATM   16  S1  UNL     1      30.639   7.585  47.601  1.00  0.00    -0.018 SA
HETATM   17  N5  UNL     1      31.956   8.082  46.487  1.00  0.00    -0.326 N 
HETATM   18  H19 UNL     1      32.408   8.942  46.179  1.00  0.00     0.174 HD
ENDROOT
BRANCH  15  19
HETATM   19  O1  UNL     1      29.753   5.361  48.555  1.00  0.00    -0.369 OA
BRANCH  19  20
HETATM   20  C11 UNL     1      28.570   6.013  48.272  1.00  0.00     0.171 C 
BRANCH  20  21
HETATM   21  C12 UNL     1      27.406   5.099  48.608  1.00  0.00     0.056 C 
BRANCH  21  22
HETATM   22  C13 UNL     1      26.249   5.994  48.966  1.00  0.00     0.274 C 
BRANCH  22  23
HETATM   23  N4  UNL     1      25.546   5.450  50.081  1.00  0.00     0.092 N 
HETATM   24  C14 UNL     1      24.141   5.724  50.057  1.00  0.00     0.298 C 
HETATM   25  C15 UNL     1      23.553   4.944  48.887  1.00  0.00     0.198 C 
HETATM   26  O2  UNL     1      23.904   3.620  48.880  1.00  0.00    -0.388 OA
HETATM   27  C16 UNL     1      24.594   3.214  50.022  1.00  0.00     0.198 C 
HETATM   28  C17 UNL     1      25.851   4.050  50.186  1.00  0.00     0.298 C 
ENDBRANCH  22  23
ENDBRANCH  21  22
ENDBRANCH  20  21
ENDBRANCH  19  20
ENDBRANCH  15  19
TORSDOF 5
ENDMDL
MODEL 4
REMARK VINA RESULT:      -6.6      4.507      6.586
REMARK  5 active torsions:
REMARK  status: ('A' for Active; 'I' for Inactive)
REMARK    1  A    between atoms: C10_15  and  O1_16 
REMARK    2  A    between atoms: O1_16  and  C11_17 
REMARK    3  A    between atoms: C11_17  and  C12_18 
REMARK    4  A    between atoms: C12_18  and  C13_19 
REMARK    5  A    between atoms: C13_19  and  N4_20 
ROOT
HETATM    1  F1  UNL     1      23.568   0.203  52.513  1.00  0.00    -0.204 F 
HETATM    2  C1  UNL     1      23.451   1.531  52.295  1.00  0.00     0.140 A 
HETATM    3  C2  UNL     1      24.171   2.347  53.172  1.00  0.00     0.046 A 
HETATM    4  C3  UNL     1      24.043   3.707  52.937  1.00  0.00     0.035 A 
HETATM    5  C4  UNL     1      23.300   4.312  51.953  1.00  0.00     0.069 A 
HETATM    6  C5  UNL     1      22.574   3.544  51.067  1.00  0.00     0.111 A 
HETATM    7  C6  UNL     1      22.696   2.158  51.296  1.00  0.00     0.103 A 
HETATM    8 CL1  UNL     1      21.889   0.923  50.328  1.00  0.00    -0.078 Cl
HETATM    9  N1  UNL     1      21.678   3.679  49.971  1.00  0.00    -0.222 NA
HETATM   10  C7  UNL     1      22.120   3.116  48.872  1.00  0.00     0.196 C 
HETATM   11  N2  UNL     1      23.371   3.456  48.648  1.00  0.00    -0.224 NA
HETATM   12  C8  UNL     1      23.589   4.828  49.064  1.00  0.00     0.218 A 
HETATM   13  C9  UNL     1      23.121   5.785  48.026  1.00  0.00     0.147 A 
HETATM   14  N3  UNL     1      22.530   5.737  49.131  1.00  0.00    -0.258 NA
HETATM   15  C10 UNL     1      24.929   5.145  49.628  1.00  0.00     0.262 C 
HETATM   16  S1  UNL     1      24.556   6.496  50.856  1.00  0.00    -0.018 SA
HETATM   17  N5  UNL     1      23.454   5.727  52.047  1.00  0.00    -0.326 N 
HETATM   18  H19 UNL     1      22.864   6.008  52.829  1.00  0.00     0.174 HD
ENDROOT
BRANCH  15  19
HETATM   19  O1  UNL     1      25.780   5.757  48.712  1.00  0.00    -0.369 OA
BRANCH  19  20
HETATM   20  C11 UNL     1      27.063   5.250  48.771  1.00  0.00     0.171 C 
BRANCH  20  21
HETATM   21  C12 UNL     1      28.026   6.269  48.192  1.00  0.00     0.056 C 
BRANCH  21  22
HETATM   22  C13 UNL     1      29.365   5.585  48.093  1.00  0.00     0.274 C 
BRANCH  22  23
HETATM   23  N4  UNL     1      30.372   6.406  48.679  1.00  0.00     0.092 N 
HETATM   24  C14 UNL     1      31.625   5.736  48.849  1.00  0.00     0.298 C 
HETATM   25  C15 UNL     1      32.185   5.474  47.455  1.00  0.00     0.198 C 
HETATM   26  O2  UNL     1      32.206   6.587  46.656  1.00  0.00    -0.388 OA
HETATM   27  C16 UNL     1      31.860   7.764  47.320  1.00  0.00     0.198 C 
HETATM   28  C17 UNL     1      30.475   7.625  47.926  1.00  0.00     0.298 C 
ENDBRANCH  22  23
ENDBRANCH  21  22
ENDBRANCH  20  21
ENDBRANCH  19  20
ENDBRANCH  15  19
TORSDOF 5
ENDMDL
MODEL 5
REMARK VINA RESULT:      -6.6      4.399      7.012
REMARK  5 active torsions:
REMARK  status: ('A' for Active; 'I' for Inactive)
REMARK    1  A    between atoms: C10_15  and  O1_16 
REMARK    2  A    between atoms: O1_16  and  C11_17 
REMARK    3  A    between atoms: C11_17  and  C12_18 
REMARK    4  A    between atoms: C12_18  and  C13_19 
REMARK    5  A    between atoms: C13_19  and  N4_20 
ROOT
HETATM    1  F1  UNL     1      23.541   0.187  52.410  1.00  0.00    -0.204 F 
HETATM    2  C1  UNL     1      23.474   1.524  52.230  1.00  0.00     0.140 A 
HETATM    3  C2  UNL     1      24.230   2.287  53.124  1.00  0.00     0.046 A 
HETATM    4  C3  UNL     1      24.154   3.656  52.927  1.00  0.00     0.035 A 
HETATM    5  C4  UNL     1      23.429   4.318  51.967  1.00  0.00     0.069 A 
HETATM    6  C5  UNL     1      22.668   3.603  51.065  1.00  0.00     0.111 A 
HETATM    7  C6  UNL     1      22.737   2.208  51.254  1.00  0.00     0.103 A 
HETATM    8 CL1  UNL     1      21.877   1.032  50.258  1.00  0.00    -0.078 Cl
HETATM    9  N1  UNL     1      21.770   3.803  49.980  1.00  0.00    -0.222 NA
HETATM   10  C7  UNL     1      22.183   3.255  48.862  1.00  0.00     0.196 C 
HETATM   11  N2  UNL     1      23.445   3.552  48.638  1.00  0.00    -0.224 NA
HETATM   12  C8  UNL     1      23.718   4.902  49.090  1.00  0.00     0.218 A 
HETATM   13  C9  UNL     1      23.281   5.906  48.083  1.00  0.00     0.147 A 
HETATM   14  N3  UNL     1      22.696   5.850  49.191  1.00  0.00    -0.258 NA
HETATM   15  C10 UNL     1      25.073   5.151  49.653  1.00  0.00     0.262 C 
HETATM   16  S1  UNL     1      24.761   6.481  50.921  1.00  0.00    -0.018 SA
HETATM   17  N5  UNL     1      23.637   5.722  52.098  1.00  0.00    -0.326 N 
HETATM   18  H19 UNL     1      23.064   6.003  52.892  1.00  0.00     0.174 HD
ENDROOT
BRANCH  15  19
HETATM   19  O1  UNL     1      25.942   5.756  48.748  1.00  0.00    -0.369 OA
BRANCH  19  20
HETATM   20  C11 UNL     1      27.174   5.135  48.712  1.00  0.00     0.171 C 
BRANCH  20  21
HETATM   21  C12 UNL     1      28.225   6.141  48.280  1.00  0.00     0.056 C 
BRANCH  21  22
HETATM   22  C13 UNL     1      27.585   7.501  48.387  1.00  0.00     0.274 C 
BRANCH  22  23
HETATM   23  N4  UNL     1      28.448   8.385  49.099  1.00  0.00     0.092 N 
HETATM   24  C14 UNL     1      29.612   8.763  48.357  1.00  0.00     0.298 C 
HETATM   25  C15 UNL     1      29.140   9.631  47.196  1.00  0.00     0.198 C 
HETATM   26  O2  UNL     1      28.315  10.655  47.577  1.00  0.00    -0.388 OA
HETATM   27  C16 UNL     1      28.197  10.798  48.959  1.00  0.00     0.198 C 
HETATM   28  C17 UNL     1      27.681   9.506  49.567  1.00  0.00     0.298 C 
ENDBRANCH  22  23
ENDBRANCH  21  22
ENDBRANCH  20  21
ENDBRANCH  19  20
ENDBRANCH  15  19
TORSDOF 5
ENDMDL
MODEL 6
REMARK VINA RESULT:      -6.5      3.849      6.654
REMARK  5 active torsions:
REMARK  status: ('A' for Active; 'I' for Inactive)
REMARK    1  A    between atoms: C10_15  and  O1_16 
REMARK    2  A    between atoms: O1_16  and  C11_17 
REMARK    3  A    between atoms: C11_17  and  C12_18 
REMARK    4  A    between atoms: C12_18  and  C13_19 
REMARK    5  A    between atoms: C13_19  and  N4_20 
ROOT
HETATM    1  F1  UNL     1      25.634  -1.348  53.286  1.00  0.00    -0.204 F 
HETATM    2  C1  UNL     1      25.146  -0.088  53.247  1.00  0.00     0.140 A 
HETATM    3  C2  UNL     1      26.097   0.926  53.381  1.00  0.00     0.046 A 
HETATM    4  C3  UNL     1      25.583   2.213  53.339  1.00  0.00     0.035 A 
HETATM    5  C4  UNL     1      24.268   2.576  53.182  1.00  0.00     0.069 A 
HETATM    6  C5  UNL     1      23.297   1.606  53.047  1.00  0.00     0.111 A 
HETATM    7  C6  UNL     1      23.807   0.292  53.088  1.00  0.00     0.103 A 
HETATM    8 CL1  UNL     1      22.812  -1.158  52.941  1.00  0.00    -0.078 Cl
HETATM    9  N1  UNL     1      21.888   1.471  52.907  1.00  0.00    -0.222 NA
HETATM   10  C7  UNL     1      21.537   0.857  51.802  1.00  0.00     0.196 C 
HETATM   11  N2  UNL     1      22.181   1.356  50.769  1.00  0.00    -0.224 NA
HETATM   12  C8  UNL     1      22.357   2.784  50.945  1.00  0.00     0.218 A 
HETATM   13  C9  UNL     1      21.127   3.529  50.565  1.00  0.00     0.147 A 
HETATM   14  N3  UNL     1      21.497   3.522  51.763  1.00  0.00    -0.258 NA
HETATM   15  C10 UNL     1      23.616   3.368  50.407  1.00  0.00     0.262 C 
HETATM   16  S1  UNL     1      23.953   4.782  51.574  1.00  0.00    -0.018 SA
HETATM   17  N5  UNL     1      24.167   3.999  53.175  1.00  0.00    -0.326 N 
HETATM   18  H19 UNL     1      24.250   4.276  54.153  1.00  0.00     0.174 HD
ENDROOT
BRANCH  15  19
HETATM   19  O1  UNL     1      23.449   3.992  49.173  1.00  0.00    -0.369 OA
BRANCH  19  20
HETATM   20  C11 UNL     1      24.388   4.981  48.957  1.00  0.00     0.171 C 
BRANCH  20  21
HETATM   21  C12 UNL     1      23.739   6.126  48.203  1.00  0.00     0.056 C 
BRANCH  21  22
HETATM   22  C13 UNL     1      24.257   7.396  48.824  1.00  0.00     0.274 C 
BRANCH  22  23
HETATM   23  N4  UNL     1      25.674   7.322  48.966  1.00  0.00     0.092 N 
HETATM   24  C14 UNL     1      26.386   7.917  47.876  1.00  0.00     0.298 C 
HETATM   25  C15 UNL     1      26.129   9.418  47.940  1.00  0.00     0.198 C 
HETATM   26  O2  UNL     1      26.363   9.962  49.175  1.00  0.00    -0.388 OA
HETATM   27  C16 UNL     1      26.938   9.072  50.082  1.00  0.00     0.198 C 
HETATM   28  C17 UNL     1      26.042   7.856  50.247  1.00  0.00     0.298 C 
ENDBRANCH  22  23
ENDBRANCH  21  22
ENDBRANCH  20  21
ENDBRANCH  19  20
ENDBRANCH  15  19
TORSDOF 5
ENDMDL
MODEL 7
REMARK VINA RESULT:      -6.5      7.899     10.467
REMARK  5 active torsions:
REMARK  status: ('A' for Active; 'I' for Inactive)
REMARK    1  A    between atoms: C10_15  and  O1_16 
REMARK    2  A    between atoms: O1_16  and  C11_17 
REMARK    3  A    between atoms: C11_17  and  C12_18 
REMARK    4  A    between atoms: C12_18  and  C13_19 
REMARK    5  A    between atoms: C13_19  and  N4_20 
ROOT
HETATM    1  F1  UNL     1      33.332   4.384  42.963  1.00  0.00    -0.204 F 
HETATM    2  C1  UNL     1      33.169   5.317  43.927  1.00  0.00     0.140 A 
HETATM    3  C2  UNL     1      32.474   6.464  43.536  1.00  0.00     0.046 A 
HETATM    4  C3  UNL     1      32.312   7.413  44.533  1.00  0.00     0.035 A 
HETATM    5  C4  UNL     1      32.757   7.336  45.831  1.00  0.00     0.069 A 
HETATM    6  C5  UNL     1      33.448   6.222  46.258  1.00  0.00     0.111 A 
HETATM    7  C6  UNL     1      33.618   5.248  45.251  1.00  0.00     0.103 A 
HETATM    8 CL1  UNL     1      34.458   3.715  45.493  1.00  0.00    -0.078 Cl
HETATM    9  N1  UNL     1      34.106   5.709  47.409  1.00  0.00    -0.222 NA
HETATM   10  C7  UNL     1      33.592   4.579  47.836  1.00  0.00     0.196 C 
HETATM   11  N2  UNL     1      32.281   4.661  47.901  1.00  0.00    -0.224 NA
HETATM   12  C8  UNL     1      31.894   5.997  48.313  1.00  0.00     0.218 A 
HETATM   13  C9  UNL     1      31.998   6.156  49.788  1.00  0.00     0.147 A 
HETATM   14  N3  UNL     1      32.767   6.808  49.042  1.00  0.00    -0.258 NA
HETATM   15  C10 UNL     1      30.634   6.532  47.728  1.00  0.00     0.262 C 
HETATM   16  S1  UNL     1      30.960   8.364  47.638  1.00  0.00    -0.018 SA
HETATM   17  N5  UNL     1      32.369   8.514  46.535  1.00  0.00    -0.326 N 
HETATM   18  H19 UNL     1      33.022   9.234  46.229  1.00  0.00     0.174 HD
ENDROOT
BRANCH  15  19
HETATM   19  O1  UNL     1      29.543   6.433  48.588  1.00  0.00    -0.369 OA
BRANCH  19  20
HETATM   20  C11 UNL     1      28.673   5.428  48.215  1.00  0.00     0.171 C 
BRANCH  20  21
HETATM   21  C12 UNL     1      27.259   5.831  48.591  1.00  0.00     0.056 C 
BRANCH  21  22
HETATM   22  C13 UNL     1      27.023   7.186  47.977  1.00  0.00     0.274 C 
BRANCH  22  23
HETATM   23  N4  UNL     1      25.970   7.853  48.671  1.00  0.00     0.092 N 
HETATM   24  C14 UNL     1      26.265   8.100  50.050  1.00  0.00     0.298 C 
HETATM   25  C15 UNL     1      27.389   9.129  50.090  1.00  0.00     0.198 C 
HETATM   26  O2  UNL     1      27.143  10.238  49.324  1.00  0.00    -0.388 OA
HETATM   27  C16 UNL     1      25.856  10.278  48.787  1.00  0.00     0.198 C 
HETATM   28  C17 UNL     1      25.612   9.039  47.944  1.00  0.00     0.298 C 
ENDBRANCH  22  23
ENDBRANCH  21  22
ENDBRANCH  20  21
ENDBRANCH  19  20
ENDBRANCH  15  19
TORSDOF 5
ENDMDL
MODEL 8
REMARK VINA RESULT:      -6.3      3.848      7.558
REMARK  5 active torsions:
REMARK  status: ('A' for Active; 'I' for Inactive)
REMARK    1  A    between atoms: C10_15  and  O1_16 
REMARK    2  A    between atoms: O1_16  and  C11_17 
REMARK    3  A    between atoms: C11_17  and  C12_18 
REMARK    4  A    between atoms: C12_18  and  C13_19 
REMARK    5  A    between atoms: C13_19  and  N4_20 
ROOT
HETATM    1  F1  UNL     1      23.022  -1.397  55.868  1.00  0.00    -0.204 F 
HETATM    2  C1  UNL     1      22.884  -0.815  54.656  1.00  0.00     0.140 A 
HETATM    3  C2  UNL     1      21.575  -0.739  54.174  1.00  0.00     0.046 A 
HETATM    4  C3  UNL     1      21.448  -0.139  52.932  1.00  0.00     0.035 A 
HETATM    5  C4  UNL     1      22.455   0.373  52.150  1.00  0.00     0.069 A 
HETATM    6  C5  UNL     1      23.762   0.317  52.588  1.00  0.00     0.111 A 
HETATM    7  C6  UNL     1      23.905  -0.291  53.852  1.00  0.00     0.103 A 
HETATM    8 CL1  UNL     1      25.451  -0.507  54.675  1.00  0.00    -0.078 Cl
HETATM    9  N1  UNL     1      25.079   0.648  52.166  1.00  0.00    -0.222 NA
HETATM   10  C7  UNL     1      25.678   1.497  52.967  1.00  0.00     0.196 C 
HETATM   11  N2  UNL     1      24.885   2.507  53.250  1.00  0.00    -0.224 NA
HETATM   12  C8  UNL     1      24.077   2.835  52.091  1.00  0.00     0.218 A 
HETATM   13  C9  UNL     1      24.837   3.675  51.126  1.00  0.00     0.147 A 
HETATM   14  N3  UNL     1      24.503   2.511  50.800  1.00  0.00    -0.258 NA
HETATM   15  C10 UNL     1      22.694   3.314  52.361  1.00  0.00     0.262 C 
HETATM   16  S1  UNL     1      21.744   2.702  50.879  1.00  0.00    -0.018 SA
HETATM   17  N5  UNL     1      21.899   0.915  50.955  1.00  0.00    -0.326 N 
HETATM   18  H19 UNL     1      21.692   0.108  50.367  1.00  0.00     0.174 HD
ENDROOT
BRANCH  15  19
HETATM   19  O1  UNL     1      22.567   4.698  52.285  1.00  0.00    -0.369 OA
BRANCH  19  20
HETATM   20  C11 UNL     1      21.435   5.082  51.594  1.00  0.00     0.171 C 
BRANCH  20  21
HETATM   21  C12 UNL     1      21.683   6.430  50.944  1.00  0.00     0.056 C 
BRANCH  21  22
HETATM   22  C13 UNL     1      20.791   6.492  49.732  1.00  0.00     0.274 C 
BRANCH  22  23
HETATM   23  N4  UNL     1      21.506   7.053  48.633  1.00  0.00     0.092 N 
HETATM   24  C14 UNL     1      20.679   7.810  47.743  1.00  0.00     0.298 C 
HETATM   25  C15 UNL     1      20.221   9.049  48.503  1.00  0.00     0.198 C 
HETATM   26  O2  UNL     1      21.245   9.737  49.098  1.00  0.00    -0.388 OA
HETATM   27  C16 UNL     1      22.512   9.261  48.762  1.00  0.00     0.198 C 
HETATM   28  C17 UNL     1      22.627   7.795  49.139  1.00  0.00     0.298 C 
ENDBRANCH  22  23
ENDBRANCH  21  22
ENDBRANCH  20  21
ENDBRANCH  19  20
ENDBRANCH  15  19
TORSDOF 5
ENDMDL
MODEL 9
REMARK VINA RESULT:      -6.2      2.337      2.684
REMARK  5 active torsions:
REMARK  status: ('A' for Active; 'I' for Inactive)
REMARK    1  A    between atoms: C10_15  and  O1_16 
REMARK    2  A    between atoms: O1_16  and  C11_17 
REMARK    3  A    between atoms: C11_17  and  C12_18 
REMARK    4  A    between atoms: C12_18  and  C13_19 
REMARK    5  A    between atoms: C13_19  and  N4_20 
ROOT
HETATM    1  F1  UNL     1      22.829   6.083  45.933  1.00  0.00    -0.204 F 
HETATM    2  C1  UNL     1      22.093   5.213  46.659  1.00  0.00     0.140 A 
HETATM    3  C2  UNL     1      21.938   3.944  46.094  1.00  0.00     0.046 A 
HETATM    4  C3  UNL     1      21.183   3.061  46.848  1.00  0.00     0.035 A 
HETATM    5  C4  UNL     1      20.589   3.304  48.063  1.00  0.00     0.069 A 
HETATM    6  C5  UNL     1      20.715   4.544  48.655  1.00  0.00     0.111 A 
HETATM    7  C6  UNL     1      21.483   5.452  47.897  1.00  0.00     0.103 A 
HETATM    8 CL1  UNL     1      21.823   7.111  48.393  1.00  0.00    -0.078 Cl
HETATM    9  N1  UNL     1      20.290   5.262  49.806  1.00  0.00    -0.222 NA
HETATM   10  C7  UNL     1      21.287   5.681  50.549  1.00  0.00     0.196 C 
HETATM   11  N2  UNL     1      22.153   4.712  50.753  1.00  0.00    -0.224 NA
HETATM   12  C8  UNL     1      21.454   3.448  50.878  1.00  0.00     0.218 A 
HETATM   13  C9  UNL     1      20.903   3.271  52.249  1.00  0.00     0.147 A 
HETATM   14  N3  UNL     1      20.117   3.400  51.281  1.00  0.00    -0.258 NA
HETATM   15  C10 UNL     1      22.152   2.248  50.341  1.00  0.00     0.262 C 
HETATM   16  S1  UNL     1      20.745   1.163  49.778  1.00  0.00    -0.018 SA
HETATM   17  N5  UNL     1      19.919   2.127  48.507  1.00  0.00    -0.326 N 
HETATM   18  H19 UNL     1      19.059   2.087  47.961  1.00  0.00     0.174 HD
ENDROOT
BRANCH  15  19
HETATM   19  O1  UNL     1      22.779   1.490  51.327  1.00  0.00    -0.369 OA
BRANCH  19  20
HETATM   20  C11 UNL     1      24.132   1.749  51.404  1.00  0.00     0.171 C 
BRANCH  20  21
HETATM   21  C12 UNL     1      24.510   1.989  52.854  1.00  0.00     0.056 C 
BRANCH  21  22
HETATM   22  C13 UNL     1      25.242   0.755  53.315  1.00  0.00     0.274 C 
BRANCH  22  23
HETATM   23  N4  UNL     1      26.475   0.633  52.609  1.00  0.00     0.092 N 
HETATM   24  C14 UNL     1      27.552   1.355  53.216  1.00  0.00     0.298 C 
HETATM   25  C15 UNL     1      27.862   0.665  54.539  1.00  0.00     0.198 C 
HETATM   26  O2  UNL     1      28.040  -0.689  54.423  1.00  0.00    -0.388 OA
HETATM   27  C16 UNL     1      28.058  -1.143  53.104  1.00  0.00     0.198 C 
HETATM   28  C17 UNL     1      26.762  -0.760  52.411  1.00  0.00     0.298 C 
ENDBRANCH  22  23
ENDBRANCH  21  22
ENDBRANCH  20  21
ENDBRANCH  19  20
ENDBRANCH  15  19
TORSDOF 5
ENDMDL
