MODEL 1
REMARK VINA RESULT:      -8.1      0.000      0.000
REMARK  6 active torsions:
REMARK  status: ('A' for Active; 'I' for Inactive)
REMARK    1  A    between atoms: C2_2  and  C3_3 
REMARK    2  A    between atoms: C3_3  and  C4_4 
REMARK    3  A    between atoms: C4_4  and  C5_5 
REMARK    4  A    between atoms: C6_6  and  O1_7 
REMARK    5  A    between atoms: N1_8  and  C7_9 
REMARK    6  A    between atoms: N2_13  and  C10_14 
ROOT
HETATM    1  C5  UNL     1      20.985   0.209  52.458  1.00  0.00    -0.007 C 
HETATM    2  C6  UNL     1      21.440   1.120  51.615  1.00  0.00     0.152 C 
HETATM    3  N1  UNL     1      22.683   1.777  51.496  1.00  0.00    -0.280 N 
HETATM    4  C9  UNL     1      23.998   1.486  51.923  1.00  0.00     0.331 C 
HETATM    5  O2  UNL     1      24.848   2.081  51.194  1.00  0.00    -0.246 OA
HETATM    6  N2  UNL     1      24.473   0.678  52.980  1.00  0.00    -0.299 N 
HETATM    7  C17 UNL     1      24.102  -0.131  54.087  1.00  0.00     0.167 C 
HETATM    8  C18 UNL     1      22.716  -0.584  54.154  1.00  0.00    -0.065 C 
HETATM    9  C19 UNL     1      22.711  -1.497  55.353  1.00  0.00     0.045 C 
HETATM   10  C20 UNL     1      21.512  -0.515  53.608  1.00  0.00     0.015 C 
ENDROOT
BRANCH   6  11
HETATM   11  C10 UNL     1      25.927   0.665  52.913  1.00  0.00     0.020 C 
HETATM   12  C11 UNL     1      26.234   1.849  53.484  1.00  0.00     0.032 C 
HETATM   13  C12 UNL     1      27.666   2.241  53.619  1.00  0.00     0.038 C 
HETATM   14  S1  UNL     1      29.002   1.236  53.590  1.00  0.00    -0.178 SA
HETATM   15  C13 UNL     1      28.812  -0.581  53.371  1.00  0.00    -0.037 C 
HETATM   16  H18 UNL     1      30.188   1.675  54.191  1.00  0.00     0.100 HD
HETATM   17  C14 UNL     1      29.937  -1.445  53.821  1.00  0.00     0.055 C 
HETATM   18  C15 UNL     1      27.702  -1.148  52.820  1.00  0.00    -0.008 C 
HETATM   19  C16 UNL     1      26.456  -0.534  52.290  1.00  0.00     0.085 C 
ENDBRANCH   6  11
BRANCH   3  20
HETATM   20  C7  UNL     1      22.553   3.034  50.764  1.00  0.00     0.131 C 
HETATM   21  C8  UNL     1      22.298   4.214  51.639  1.00  0.00     0.027 C 
ENDBRANCH   3  20
BRANCH   2  22
HETATM   22  O1  UNL     1      20.502   1.484  50.681  1.00  0.00    -0.345 OA
HETATM   23  H10 UNL     1      20.633   1.674  49.714  1.00  0.00     0.219 HD
ENDBRANCH   2  22
BRANCH   1  24
HETATM   24  C4  UNL     1      19.587  -0.171  52.165  1.00  0.00     0.043 C 
BRANCH  24  25
HETATM   25  C3  UNL     1      19.017  -0.908  53.338  1.00  0.00     0.004 C 
BRANCH  25  26
HETATM   26  C2  UNL     1      17.684  -1.555  53.039  1.00  0.00    -0.004 C 
HETATM   27  C1  UNL     1      17.578  -2.963  53.528  1.00  0.00     0.005 C 
ENDBRANCH  25  26
ENDBRANCH  24  25
ENDBRANCH   1  24
TORSDOF 6
ENDMDL
MODEL 2
REMARK VINA RESULT:      -7.6      3.203      6.976
REMARK  6 active torsions:
REMARK  status: ('A' for Active; 'I' for Inactive)
REMARK    1  A    between atoms: C2_2  and  C3_3 
REMARK    2  A    between atoms: C3_3  and  C4_4 
REMARK    3  A    between atoms: C4_4  and  C5_5 
REMARK    4  A    between atoms: C6_6  and  O1_7 
REMARK    5  A    between atoms: N1_8  and  C7_9 
REMARK    6  A    between atoms: N2_13  and  C10_14 
ROOT
HETATM    1  C5  UNL     1      26.760   1.412  53.208  1.00  0.00    -0.007 C 
HETATM    2  C6  UNL     1      26.713   2.186  52.136  1.00  0.00     0.152 C 
HETATM    3  N1  UNL     1      25.725   2.395  51.152  1.00  0.00    -0.280 N 
HETATM    4  C9  UNL     1      24.326   2.203  51.100  1.00  0.00     0.331 C 
HETATM    5  O2  UNL     1      23.801   2.962  50.231  1.00  0.00    -0.246 OA
HETATM    6  N2  UNL     1      23.481   1.340  51.831  1.00  0.00    -0.299 N 
HETATM    7  C17 UNL     1      23.430   0.305  52.804  1.00  0.00     0.167 C 
HETATM    8  C18 UNL     1      24.615   0.100  53.629  1.00  0.00    -0.065 C 
HETATM    9  C19 UNL     1      24.173  -0.958  54.608  1.00  0.00     0.045 C 
HETATM   10  C20 UNL     1      25.871   0.453  53.852  1.00  0.00     0.015 C 
ENDROOT
BRANCH   6  11
HETATM   11  C10 UNL     1      22.109   1.616  51.433  1.00  0.00     0.020 C 
HETATM   12  C11 UNL     1      21.749   2.555  52.333  1.00  0.00     0.032 C 
HETATM   13  C12 UNL     1      20.374   3.128  52.277  1.00  0.00     0.038 C 
HETATM   14  S1  UNL     1      19.326   3.129  50.975  1.00  0.00    -0.178 SA
HETATM   15  C13 UNL     1      19.810   2.366  49.372  1.00  0.00    -0.037 C 
HETATM   16  H18 UNL     1      18.309   4.091  50.928  1.00  0.00     0.100 HD
HETATM   17  C14 UNL     1      19.074   2.802  48.155  1.00  0.00     0.055 C 
HETATM   18  C15 UNL     1      20.798   1.431  49.266  1.00  0.00    -0.008 C 
HETATM   19  C16 UNL     1      21.675   0.820  50.299  1.00  0.00     0.085 C 
ENDBRANCH   6  11
BRANCH   3  20
HETATM   20  C7  UNL     1      26.304   2.930  49.923  1.00  0.00     0.131 C 
HETATM   21  C8  UNL     1      26.169   4.409  49.790  1.00  0.00     0.027 C 
ENDBRANCH   3  20
BRANCH   2  22
HETATM   22  O1  UNL     1      27.861   2.920  51.970  1.00  0.00    -0.345 OA
HETATM   23  H10 UNL     1      28.802   2.637  52.116  1.00  0.00     0.219 HD
ENDBRANCH   2  22
BRANCH   1  24
HETATM   24  C4  UNL     1      28.040   1.548  53.936  1.00  0.00     0.043 C 
BRANCH  24  25
HETATM   25  C3  UNL     1      28.387   0.240  54.578  1.00  0.00     0.004 C 
BRANCH  25  26
HETATM   26  C2  UNL     1      29.537  -0.467  53.897  1.00  0.00    -0.004 C 
HETATM   27  C1  UNL     1      29.145  -1.746  53.232  1.00  0.00     0.005 C 
ENDBRANCH  25  26
ENDBRANCH  24  25
ENDBRANCH   1  24
TORSDOF 6
ENDMDL
MODEL 3
REMARK VINA RESULT:      -7.5      2.625      5.089
REMARK  6 active torsions:
REMARK  status: ('A' for Active; 'I' for Inactive)
REMARK    1  A    between atoms: C2_2  and  C3_3 
REMARK    2  A    between atoms: C3_3  and  C4_4 
REMARK    3  A    between atoms: C4_4  and  C5_5 
REMARK    4  A    between atoms: C6_6  and  O1_7 
REMARK    5  A    between atoms: N1_8  and  C7_9 
REMARK    6  A    between atoms: N2_13  and  C10_14 
ROOT
HETATM    1  C5  UNL     1      22.197  -0.323  52.812  1.00  0.00    -0.007 C 
HETATM    2  C6  UNL     1      23.359  -0.162  53.422  1.00  0.00     0.152 C 
HETATM    3  N1  UNL     1      24.506   0.597  53.109  1.00  0.00    -0.280 N 
HETATM    4  C9  UNL     1      24.749   1.731  52.301  1.00  0.00     0.331 C 
HETATM    5  O2  UNL     1      25.786   2.346  52.692  1.00  0.00    -0.246 OA
HETATM    6  N2  UNL     1      24.047   2.245  51.189  1.00  0.00    -0.299 N 
HETATM    7  C17 UNL     1      22.961   2.036  50.297  1.00  0.00     0.167 C 
HETATM    8  C18 UNL     1      21.939   1.073  50.695  1.00  0.00    -0.065 C 
HETATM    9  C19 UNL     1      20.905   1.199  49.606  1.00  0.00     0.045 C 
HETATM   10  C20 UNL     1      21.573   0.170  51.591  1.00  0.00     0.015 C 
ENDROOT
BRANCH   6  11
HETATM   11  C10 UNL     1      24.690   3.488  50.791  1.00  0.00     0.020 C 
HETATM   12  C11 UNL     1      25.662   3.039  49.969  1.00  0.00     0.032 C 
HETATM   13  C12 UNL     1      26.581   4.021  49.325  1.00  0.00     0.038 C 
HETATM   14  S1  UNL     1      26.318   5.654  49.089  1.00  0.00    -0.178 SA
HETATM   15  C13 UNL     1      24.755   6.450  49.645  1.00  0.00    -0.037 C 
HETATM   16  H18 UNL     1      27.031   6.313  48.079  1.00  0.00     0.100 HD
HETATM   17  C14 UNL     1      24.379   7.740  49.007  1.00  0.00     0.055 C 
HETATM   18  C15 UNL     1      23.951   5.910  50.604  1.00  0.00    -0.008 C 
HETATM   19  C16 UNL     1      24.085   4.660  51.398  1.00  0.00     0.085 C 
ENDBRANCH   6  11
BRANCH   3  20
HETATM   20  C7  UNL     1      25.691   0.074  53.782  1.00  0.00     0.131 C 
HETATM   21  C8  UNL     1      26.426  -0.954  52.990  1.00  0.00     0.027 C 
ENDBRANCH   3  20
BRANCH   2  22
HETATM   22  O1  UNL     1      23.443  -0.883  54.587  1.00  0.00    -0.345 OA
HETATM   23  H10 UNL     1      22.753  -1.003  55.292  1.00  0.00     0.219 HD
ENDBRANCH   2  22
BRANCH   1  24
HETATM   24  C4  UNL     1      21.303  -1.240  53.552  1.00  0.00     0.043 C 
BRANCH  24  25
HETATM   25  C3  UNL     1      19.989  -0.564  53.793  1.00  0.00     0.004 C 
BRANCH  25  26
HETATM   26  C2  UNL     1      18.804  -1.415  53.397  1.00  0.00    -0.004 C 
HETATM   27  C1  UNL     1      17.894  -0.754  52.413  1.00  0.00     0.005 C 
ENDBRANCH  25  26
ENDBRANCH  24  25
ENDBRANCH   1  24
TORSDOF 6
ENDMDL
MODEL 4
REMARK VINA RESULT:      -7.4      3.309      7.268
REMARK  6 active torsions:
REMARK  status: ('A' for Active; 'I' for Inactive)
REMARK    1  A    between atoms: C2_2  and  C3_3 
REMARK    2  A    between atoms: C3_3  and  C4_4 
REMARK    3  A    between atoms: C4_4  and  C5_5 
REMARK    4  A    between atoms: C6_6  and  O1_7 
REMARK    5  A    between atoms: N1_8  and  C7_9 
REMARK    6  A    between atoms: N2_13  and  C10_14 
ROOT
HETATM    1  C5  UNL     1      26.236   1.494  52.858  1.00  0.00    -0.007 C 
HETATM    2  C6  UNL     1      26.398   2.307  51.827  1.00  0.00     0.152 C 
HETATM    3  N1  UNL     1      25.544   2.698  50.775  1.00  0.00    -0.280 N 
HETATM    4  C9  UNL     1      24.143   2.717  50.596  1.00  0.00     0.331 C 
HETATM    5  O2  UNL     1      23.814   3.578  49.725  1.00  0.00    -0.246 OA
HETATM    6  N2  UNL     1      23.119   1.961  51.208  1.00  0.00    -0.299 N 
HETATM    7  C17 UNL     1      22.831   0.910  52.119  1.00  0.00     0.167 C 
HETATM    8  C18 UNL     1      23.895   0.499  53.030  1.00  0.00    -0.065 C 
HETATM    9  C19 UNL     1      23.218  -0.518  53.913  1.00  0.00     0.045 C 
HETATM   10  C20 UNL     1      25.163   0.654  53.376  1.00  0.00     0.015 C 
ENDROOT
BRANCH   6  11
HETATM   11  C10 UNL     1      21.843   2.452  50.710  1.00  0.00     0.020 C 
HETATM   12  C11 UNL     1      21.610   1.608  49.683  1.00  0.00     0.032 C 
HETATM   13  C12 UNL     1      20.366   1.767  48.877  1.00  0.00     0.038 C 
HETATM   14  S1  UNL     1      18.959   2.550  49.325  1.00  0.00    -0.178 SA
HETATM   15  C13 UNL     1      18.807   3.348  50.976  1.00  0.00    -0.037 C 
HETATM   16  H18 UNL     1      17.763   2.208  48.683  1.00  0.00     0.100 HD
HETATM   17  C14 UNL     1      17.434   3.596  51.493  1.00  0.00     0.055 C 
HETATM   18  C15 UNL     1      19.887   3.715  51.723  1.00  0.00    -0.008 C 
HETATM   19  C16 UNL     1      21.344   3.595  51.453  1.00  0.00     0.085 C 
ENDBRANCH   6  11
BRANCH   3  20
HETATM   20  C7  UNL     1      26.304   3.188  49.628  1.00  0.00     0.131 C 
HETATM   21  C8  UNL     1      26.391   4.674  49.557  1.00  0.00     0.027 C 
ENDBRANCH   3  20
BRANCH   2  22
HETATM   22  O1  UNL     1      27.650   2.868  51.796  1.00  0.00    -0.345 OA
HETATM   23  H10 UNL     1      27.975   3.683  52.265  1.00  0.00     0.219 HD
ENDBRANCH   2  22
BRANCH   1  24
HETATM   24  C4  UNL     1      27.450   1.411  53.698  1.00  0.00     0.043 C 
BRANCH  24  25
HETATM   25  C3  UNL     1      27.584   0.022  54.240  1.00  0.00     0.004 C 
BRANCH  25  26
HETATM   26  C2  UNL     1      28.660  -0.783  53.546  1.00  0.00    -0.004 C 
HETATM   27  C1  UNL     1      29.982  -0.089  53.484  1.00  0.00     0.005 C 
ENDBRANCH  25  26
ENDBRANCH  24  25
ENDBRANCH   1  24
TORSDOF 6
ENDMDL
MODEL 5
REMARK VINA RESULT:      -7.3      3.354      6.546
REMARK  6 active torsions:
REMARK  status: ('A' for Active; 'I' for Inactive)
REMARK    1  A    between atoms: C2_2  and  C3_3 
REMARK    2  A    between atoms: C3_3  and  C4_4 
REMARK    3  A    between atoms: C4_4  and  C5_5 
REMARK    4  A    between atoms: C6_6  and  O1_7 
REMARK    5  A    between atoms: N1_8  and  C7_9 
REMARK    6  A    between atoms: N2_13  and  C10_14 
ROOT
HETATM    1  C5  UNL     1      24.363   6.081  50.395  1.00  0.00    -0.007 C 
HETATM    2  C6  UNL     1      23.534   5.574  51.293  1.00  0.00     0.152 C 
HETATM    3  N1  UNL     1      23.480   4.325  51.945  1.00  0.00    -0.280 N 
HETATM    4  C9  UNL     1      24.425   3.310  52.214  1.00  0.00     0.331 C 
HETATM    5  O2  UNL     1      24.072   2.623  53.219  1.00  0.00    -0.246 OA
HETATM    6  N2  UNL     1      25.633   2.971  51.565  1.00  0.00    -0.299 N 
HETATM    7  C17 UNL     1      26.489   3.261  50.468  1.00  0.00     0.167 C 
HETATM    8  C18 UNL     1      26.292   4.533  49.780  1.00  0.00    -0.065 C 
HETATM    9  C19 UNL     1      27.423   4.563  48.784  1.00  0.00     0.045 C 
HETATM   10  C20 UNL     1      25.549   5.624  49.683  1.00  0.00     0.015 C 
ENDROOT
BRANCH   6  11
HETATM   11  C10 UNL     1      26.255   1.890  52.315  1.00  0.00     0.020 C 
HETATM   12  C11 UNL     1      25.563   0.820  51.872  1.00  0.00     0.032 C 
HETATM   13  C12 UNL     1      25.895  -0.532  52.405  1.00  0.00     0.038 C 
HETATM   14  S1  UNL     1      27.316  -1.014  53.140  1.00  0.00    -0.178 SA
HETATM   15  C13 UNL     1      28.705   0.170  53.377  1.00  0.00    -0.037 C 
HETATM   16  H18 UNL     1      27.646  -2.375  53.144  1.00  0.00     0.100 HD
HETATM   17  C14 UNL     1      30.064  -0.401  53.582  1.00  0.00     0.055 C 
HETATM   18  C15 UNL     1      28.533   1.522  53.375  1.00  0.00    -0.008 C 
HETATM   19  C16 UNL     1      27.309   2.348  53.202  1.00  0.00     0.085 C 
ENDBRANCH   6  11
BRANCH   3  20
HETATM   20  C7  UNL     1      22.137   4.044  52.445  1.00  0.00     0.131 C 
HETATM   21  C8  UNL     1      21.273   3.321  51.468  1.00  0.00     0.027 C 
ENDBRANCH   3  20
BRANCH   2  22
HETATM   22  O1  UNL     1      22.540   6.454  51.643  1.00  0.00    -0.345 OA
HETATM   23  H10 UNL     1      22.052   6.524  52.506  1.00  0.00     0.219 HD
ENDBRANCH   2  22
BRANCH   1  24
HETATM   24  C4  UNL     1      23.991   7.460  50.012  1.00  0.00     0.043 C 
BRANCH  24  25
HETATM   25  C3  UNL     1      25.223   8.310  49.960  1.00  0.00     0.004 C 
BRANCH  25  26
HETATM   26  C2  UNL     1      25.274   9.206  48.744  1.00  0.00    -0.004 C 
HETATM   27  C1  UNL     1      24.844   8.530  47.483  1.00  0.00     0.005 C 
ENDBRANCH  25  26
ENDBRANCH  24  25
ENDBRANCH   1  24
TORSDOF 6
ENDMDL
MODEL 6
REMARK VINA RESULT:      -7.1      3.058      7.550
REMARK  6 active torsions:
REMARK  status: ('A' for Active; 'I' for Inactive)
REMARK    1  A    between atoms: C2_2  and  C3_3 
REMARK    2  A    between atoms: C3_3  and  C4_4 
REMARK    3  A    between atoms: C4_4  and  C5_5 
REMARK    4  A    between atoms: C6_6  and  O1_7 
REMARK    5  A    between atoms: N1_8  and  C7_9 
REMARK    6  A    between atoms: N2_13  and  C10_14 
ROOT
HETATM    1  C5  UNL     1      26.147   0.081  52.789  1.00  0.00    -0.007 C 
HETATM    2  C6  UNL     1      25.090  -0.368  53.445  1.00  0.00     0.152 C 
HETATM    3  N1  UNL     1      23.749   0.063  53.507  1.00  0.00    -0.280 N 
HETATM    4  C9  UNL     1      22.921   0.838  52.664  1.00  0.00     0.331 C 
HETATM    5  O2  UNL     1      21.699   0.565  52.861  1.00  0.00    -0.246 OA
HETATM    6  N2  UNL     1      23.239   1.814  51.694  1.00  0.00    -0.299 N 
HETATM    7  C17 UNL     1      24.288   2.555  51.084  1.00  0.00     0.167 C 
HETATM    8  C18 UNL     1      25.651   2.067  51.270  1.00  0.00    -0.065 C 
HETATM    9  C19 UNL     1      26.467   2.994  50.405  1.00  0.00     0.045 C 
HETATM   10  C20 UNL     1      26.425   1.176  51.869  1.00  0.00     0.015 C 
ENDROOT
BRANCH   6  11
HETATM   11  C10 UNL     1      21.999   2.234  51.059  1.00  0.00     0.020 C 
HETATM   12  C11 UNL     1      21.867   1.308  50.085  1.00  0.00     0.032 C 
HETATM   13  C12 UNL     1      20.689   1.375  49.173  1.00  0.00     0.038 C 
HETATM   14  S1  UNL     1      19.236   2.155  49.446  1.00  0.00    -0.178 SA
HETATM   15  C13 UNL     1      18.935   3.072  51.012  1.00  0.00    -0.037 C 
HETATM   16  H18 UNL     1      18.103   1.736  48.738  1.00  0.00     0.100 HD
HETATM   17  C14 UNL     1      17.520   3.323  51.397  1.00  0.00     0.055 C 
HETATM   18  C15 UNL     1      19.944   3.521  51.812  1.00  0.00    -0.008 C 
HETATM   19  C16 UNL     1      21.420   3.417  51.669  1.00  0.00     0.085 C 
ENDBRANCH   6  11
BRANCH   3  20
HETATM   20  C7  UNL     1      23.093  -0.410  54.723  1.00  0.00     0.131 C 
HETATM   21  C8  UNL     1      22.196  -1.581  54.504  1.00  0.00     0.027 C 
ENDBRANCH   3  20
BRANCH   2  22
HETATM   22  O1  UNL     1      25.379  -1.471  54.209  1.00  0.00    -0.345 OA
HETATM   23  H10 UNL     1      25.147  -1.643  55.161  1.00  0.00     0.219 HD
ENDBRANCH   2  22
BRANCH   1  24
HETATM   24  C4  UNL     1      27.354  -0.729  53.058  1.00  0.00     0.043 C 
BRANCH  24  25
HETATM   25  C3  UNL     1      28.491   0.179  53.414  1.00  0.00     0.004 C 
BRANCH  25  26
HETATM   26  C2  UNL     1      29.784  -0.563  53.664  1.00  0.00    -0.004 C 
HETATM   27  C1  UNL     1      29.696  -2.030  53.394  1.00  0.00     0.005 C 
ENDBRANCH  25  26
ENDBRANCH  24  25
ENDBRANCH   1  24
TORSDOF 6
ENDMDL
MODEL 7
REMARK VINA RESULT:      -7.0      3.217      7.154
REMARK  6 active torsions:
REMARK  status: ('A' for Active; 'I' for Inactive)
REMARK    1  A    between atoms: C2_2  and  C3_3 
REMARK    2  A    between atoms: C3_3  and  C4_4 
REMARK    3  A    between atoms: C4_4  and  C5_5 
REMARK    4  A    between atoms: C6_6  and  O1_7 
REMARK    5  A    between atoms: N1_8  and  C7_9 
REMARK    6  A    between atoms: N2_13  and  C10_14 
ROOT
HETATM    1  C5  UNL     1      24.819   0.209  52.891  1.00  0.00    -0.007 C 
HETATM    2  C6  UNL     1      23.570  -0.216  52.980  1.00  0.00     0.152 C 
HETATM    3  N1  UNL     1      22.358   0.256  52.434  1.00  0.00    -0.280 N 
HETATM    4  C9  UNL     1      22.024   1.068  51.328  1.00  0.00     0.331 C 
HETATM    5  O2  UNL     1      20.841   0.830  50.937  1.00  0.00    -0.246 OA
HETATM    6  N2  UNL     1      22.771   2.047  50.637  1.00  0.00    -0.299 N 
HETATM    7  C17 UNL     1      23.997   2.764  50.594  1.00  0.00     0.167 C 
HETATM    8  C18 UNL     1      25.114   2.232  51.367  1.00  0.00    -0.065 C 
HETATM    9  C19 UNL     1      26.254   3.145  50.997  1.00  0.00     0.045 C 
HETATM   10  C20 UNL     1      25.510   1.309  52.229  1.00  0.00     0.015 C 
ENDROOT
BRANCH   6  11
HETATM   11  C10 UNL     1      21.967   2.515  49.517  1.00  0.00     0.020 C 
HETATM   12  C11 UNL     1      21.233   3.487  50.098  1.00  0.00     0.032 C 
HETATM   13  C12 UNL     1      20.249   4.246  49.274  1.00  0.00     0.038 C 
HETATM   14  S1  UNL     1      20.224   4.404  47.611  1.00  0.00    -0.178 SA
HETATM   15  C13 UNL     1      21.503   3.594  46.566  1.00  0.00    -0.037 C 
HETATM   16  H18 UNL     1      19.556   5.499  47.048  1.00  0.00     0.100 HD
HETATM   17  C14 UNL     1      21.715   4.139  45.197  1.00  0.00     0.055 C 
HETATM   18  C15 UNL     1      22.244   2.533  46.993  1.00  0.00    -0.008 C 
HETATM   19  C16 UNL     1      22.237   1.796  48.285  1.00  0.00     0.085 C 
ENDBRANCH   6  11
BRANCH   3  20
HETATM   20  C7  UNL     1      21.209  -0.215  53.203  1.00  0.00     0.131 C 
HETATM   21  C8  UNL     1      20.837   0.682  54.334  1.00  0.00     0.027 C 
ENDBRANCH   3  20
BRANCH   2  22
HETATM   22  O1  UNL     1      23.454  -1.339  53.761  1.00  0.00    -0.345 OA
HETATM   23  H10 UNL     1      22.782  -2.068  53.701  1.00  0.00     0.219 HD
ENDBRANCH   2  22
BRANCH   1  24
HETATM   24  C4  UNL     1      25.752  -0.641  53.659  1.00  0.00     0.043 C 
BRANCH  24  25
HETATM   25  C3  UNL     1      27.019  -0.819  52.880  1.00  0.00     0.004 C 
BRANCH  25  26
HETATM   26  C2  UNL     1      28.261  -0.539  53.696  1.00  0.00    -0.004 C 
HETATM   27  C1  UNL     1      29.420  -1.412  53.340  1.00  0.00     0.005 C 
ENDBRANCH  25  26
ENDBRANCH  24  25
ENDBRANCH   1  24
TORSDOF 6
ENDMDL
MODEL 8
REMARK VINA RESULT:      -7.0      3.281      5.168
REMARK  6 active torsions:
REMARK  status: ('A' for Active; 'I' for Inactive)
REMARK    1  A    between atoms: C2_2  and  C3_3 
REMARK    2  A    between atoms: C3_3  and  C4_4 
REMARK    3  A    between atoms: C4_4  and  C5_5 
REMARK    4  A    between atoms: C6_6  and  O1_7 
REMARK    5  A    between atoms: N1_8  and  C7_9 
REMARK    6  A    between atoms: N2_13  and  C10_14 
ROOT
HETATM    1  C5  UNL     1      22.170   0.971  52.169  1.00  0.00    -0.007 C 
HETATM    2  C6  UNL     1      21.318   1.559  51.346  1.00  0.00     0.152 C 
HETATM    3  N1  UNL     1      21.282   2.844  50.766  1.00  0.00    -0.280 N 
HETATM    4  C9  UNL     1      22.253   3.836  50.503  1.00  0.00     0.331 C 
HETATM    5  O2  UNL     1      21.876   4.592  49.557  1.00  0.00    -0.246 OA
HETATM    6  N2  UNL     1      23.504   4.092  51.105  1.00  0.00    -0.299 N 
HETATM    7  C17 UNL     1      24.403   3.708  52.136  1.00  0.00     0.167 C 
HETATM    8  C18 UNL     1      24.190   2.408  52.764  1.00  0.00    -0.065 C 
HETATM    9  C19 UNL     1      25.369   2.279  53.694  1.00  0.00     0.045 C 
HETATM   10  C20 UNL     1      23.409   1.343  52.841  1.00  0.00     0.015 C 
ENDROOT
BRANCH   6  11
HETATM   11  C10 UNL     1      24.131   5.189  50.382  1.00  0.00     0.020 C 
HETATM   12  C11 UNL     1      23.760   6.251  51.128  1.00  0.00     0.032 C 
HETATM   13  C12 UNL     1      24.206   7.615  50.724  1.00  0.00     0.038 C 
HETATM   14  S1  UNL     1      25.493   8.012  49.734  1.00  0.00    -0.178 SA
HETATM   15  C13 UNL     1      26.556   6.703  48.997  1.00  0.00    -0.037 C 
HETATM   16  H18 UNL     1      26.056   9.290  49.839  1.00  0.00     0.100 HD
HETATM   17  C14 UNL     1      27.917   7.100  48.544  1.00  0.00     0.055 C 
HETATM   18  C15 UNL     1      26.146   5.411  48.853  1.00  0.00    -0.008 C 
HETATM   19  C16 UNL     1      24.861   4.752  49.206  1.00  0.00     0.085 C 
ENDBRANCH   6  11
BRANCH   3  20
HETATM   20  C7  UNL     1      19.928   3.204  50.355  1.00  0.00     0.131 C 
HETATM   21  C8  UNL     1      19.109   3.803  51.448  1.00  0.00     0.027 C 
ENDBRANCH   3  20
BRANCH   2  22
HETATM   22  O1  UNL     1      20.273   0.739  51.002  1.00  0.00    -0.345 OA
HETATM   23  H10 UNL     1      19.662   0.810  50.221  1.00  0.00     0.219 HD
ENDBRANCH   2  22
BRANCH   1  24
HETATM   24  C4  UNL     1      21.763  -0.412  52.496  1.00  0.00     0.043 C 
BRANCH  24  25
HETATM   25  C3  UNL     1      21.344  -0.480  53.932  1.00  0.00     0.004 C 
BRANCH  25  26
HETATM   26  C2  UNL     1      21.916  -1.675  54.660  1.00  0.00    -0.004 C 
HETATM   27  C1  UNL     1      23.155  -1.367  55.436  1.00  0.00     0.005 C 
ENDBRANCH  25  26
ENDBRANCH  24  25
ENDBRANCH   1  24
TORSDOF 6
ENDMDL
MODEL 9
REMARK VINA RESULT:      -6.9      4.007      7.528
REMARK  6 active torsions:
REMARK  status: ('A' for Active; 'I' for Inactive)
REMARK    1  A    between atoms: C2_2  and  C3_3 
REMARK    2  A    between atoms: C3_3  and  C4_4 
REMARK    3  A    between atoms: C4_4  and  C5_5 
REMARK    4  A    between atoms: C6_6  and  O1_7 
REMARK    5  A    between atoms: N1_8  and  C7_9 
REMARK    6  A    between atoms: N2_13  and  C10_14 
ROOT
HETATM    1  C5  UNL     1      24.945   6.924  50.170  1.00  0.00    -0.007 C 
HETATM    2  C6  UNL     1      23.824   6.743  50.848  1.00  0.00     0.152 C 
HETATM    3  N1  UNL     1      23.150   5.585  51.288  1.00  0.00    -0.280 N 
HETATM    4  C9  UNL     1      23.539   4.250  51.535  1.00  0.00     0.331 C 
HETATM    5  O2  UNL     1      22.751   3.698  52.360  1.00  0.00    -0.246 OA
HETATM    6  N2  UNL     1      24.614   3.488  51.026  1.00  0.00    -0.299 N 
HETATM    7  C17 UNL     1      25.712   3.476  50.124  1.00  0.00     0.167 C 
HETATM    8  C18 UNL     1      26.178   4.763  49.617  1.00  0.00    -0.065 C 
HETATM    9  C19 UNL     1      27.400   4.394  48.815  1.00  0.00     0.045 C 
HETATM   10  C20 UNL     1      25.966   6.069  49.579  1.00  0.00     0.015 C 
ENDROOT
BRANCH   6  11
HETATM   11  C10 UNL     1      24.593   2.191  51.685  1.00  0.00     0.020 C 
HETATM   12  C11 UNL     1      25.685   2.271  52.475  1.00  0.00     0.032 C 
HETATM   13  C12 UNL     1      26.040   1.115  53.347  1.00  0.00     0.038 C 
HETATM   14  S1  UNL     1      25.034  -0.117  53.858  1.00  0.00    -0.178 SA
HETATM   15  C13 UNL     1      23.265  -0.164  53.353  1.00  0.00    -0.037 C 
HETATM   16  H18 UNL     1      25.373  -0.828  55.016  1.00  0.00     0.100 HD
HETATM   17  C14 UNL     1      22.335  -0.971  54.189  1.00  0.00     0.055 C 
HETATM   18  C15 UNL     1      22.790   0.498  52.260  1.00  0.00    -0.008 C 
HETATM   19  C16 UNL     1      23.484   1.355  51.263  1.00  0.00     0.085 C 
ENDBRANCH   6  11
BRANCH   3  20
HETATM   20  C7  UNL     1      21.736   5.854  51.535  1.00  0.00     0.131 C 
HETATM   21  C8  UNL     1      20.866   5.632  50.346  1.00  0.00     0.027 C 
ENDBRANCH   3  20
BRANCH   2  22
HETATM   22  O1  UNL     1      23.215   7.928  51.179  1.00  0.00    -0.345 OA
HETATM   23  H10 UNL     1      23.514   8.617  51.829  1.00  0.00     0.219 HD
ENDBRANCH   2  22
BRANCH   1  24
HETATM   24  C4  UNL     1      25.237   8.357  49.951  1.00  0.00     0.043 C 
BRANCH  24  25
HETATM   25  C3  UNL     1      26.717   8.577  50.013  1.00  0.00     0.004 C 
BRANCH  25  26
HETATM   26  C2  UNL     1      27.262   9.283  48.792  1.00  0.00    -0.004 C 
HETATM   27  C1  UNL     1      28.398   8.562  48.141  1.00  0.00     0.005 C 
ENDBRANCH  25  26
ENDBRANCH  24  25
ENDBRANCH   1  24
TORSDOF 6
ENDMDL
