MODEL 1
REMARK VINA RESULT:      -8.1      0.000      0.000
REMARK  0 active torsions:
REMARK  status: ('A' for Active; 'I' for Inactive)
ROOT
HETATM    1  C1  UNL     1      23.349   4.814  52.353  1.00  0.00     0.000 C 
HETATM    2  O1  UNL     1      24.147   3.633  52.272  1.00  0.00     0.000 OA
HETATM    3  C2  UNL     1      23.514   2.426  52.454  1.00  0.00     0.018 A 
HETATM    4  C3  UNL     1      24.800   2.285  52.413  1.00  0.00     0.025 A 
HETATM    5  O2  UNL     1      24.046   1.035  52.641  1.00  0.00     0.000 OA
HETATM    6  C4  UNL     1      24.937   0.549  53.577  1.00  0.00     0.049 C 
HETATM    7  C5  UNL     1      26.104   0.152  52.683  1.00  0.00    -0.013 C 
HETATM    8  C6  UNL     1      26.016   1.485  52.483  1.00  0.00    -0.051 C 
HETATM    9  C7  UNL     1      27.211   2.248  52.388  1.00  0.00     0.185 C 
HETATM   10  N1  UNL     1      28.349   1.457  52.757  1.00  0.00    -0.274 NA
HETATM   11  C8  UNL     1      28.609   0.477  53.529  1.00  0.00     0.248 C 
HETATM   12  O3  UNL     1      27.966  -0.413  54.472  1.00  0.00    -0.320 OA
HETATM   13  C9  UNL     1      26.806  -0.134  55.072  1.00  0.00     0.346 C 
HETATM   14  O4  UNL     1      25.603  -0.511  55.335  1.00  0.00    -0.359 OA
HETATM   15  C10 UNL     1      24.714  -0.833  54.300  1.00  0.00     0.149 C 
HETATM   16  C11 UNL     1      23.335  -0.942  54.542  1.00  0.00     0.146 C 
HETATM   17  N2  UNL     1      22.359  -1.301  53.567  1.00  0.00    -0.416 N 
HETATM   18  C12 UNL     1      22.144  -0.465  52.494  1.00  0.00     0.141 C 
HETATM   19  C13 UNL     1      21.550   0.848  52.563  1.00  0.00    -0.011 C 
HETATM   20  C14 UNL     1      22.086   2.099  52.533  1.00  0.00    -0.016 C 
HETATM   21  H14 UNL     1      22.317  -2.307  53.447  1.00  0.00     0.153 HD
ENDROOT
TORSDOF 0
ENDMDL
MODEL 2
REMARK VINA RESULT:      -7.9      2.156      4.161
REMARK  0 active torsions:
REMARK  status: ('A' for Active; 'I' for Inactive)
ROOT
HETATM    1  C1  UNL     1      20.958   0.985  49.307  1.00  0.00     0.000 C 
HETATM    2  O1  UNL     1      21.774   1.103  50.472  1.00  0.00     0.000 OA
HETATM    3  C2  UNL     1      22.834   1.977  50.418  1.00  0.00     0.018 A 
HETATM    4  C3  UNL     1      22.867   1.258  51.495  1.00  0.00     0.025 A 
HETATM    5  O2  UNL     1      23.995   2.202  51.344  1.00  0.00     0.000 OA
HETATM    6  C4  UNL     1      24.937   1.309  51.813  1.00  0.00     0.049 C 
HETATM    7  C5  UNL     1      24.617   1.306  53.301  1.00  0.00    -0.013 C 
HETATM    8  C6  UNL     1      23.476   0.837  52.750  1.00  0.00    -0.051 C 
HETATM    9  C7  UNL     1      22.788  -0.229  53.391  1.00  0.00     0.185 C 
HETATM   10  N1  UNL     1      23.587  -0.787  54.444  1.00  0.00    -0.274 NA
HETATM   11  C8  UNL     1      24.823  -0.944  54.712  1.00  0.00     0.248 C 
HETATM   12  O3  UNL     1      26.135  -0.678  54.162  1.00  0.00    -0.320 OA
HETATM   13  C9  UNL     1      26.355  -0.445  52.865  1.00  0.00     0.346 C 
HETATM   14  O4  UNL     1      26.857   0.337  51.973  1.00  0.00    -0.359 OA
HETATM   15  C10 UNL     1      26.465   1.681  51.902  1.00  0.00     0.149 C 
HETATM   16  C11 UNL     1      26.756   2.457  50.768  1.00  0.00     0.146 C 
HETATM   17  N2  UNL     1      26.434   3.838  50.617  1.00  0.00    -0.416 N 
HETATM   18  C12 UNL     1      25.112   4.218  50.585  1.00  0.00     0.141 C 
HETATM   19  C13 UNL     1      24.179   3.915  49.526  1.00  0.00    -0.011 C 
HETATM   20  C14 UNL     1      23.188   2.988  49.416  1.00  0.00    -0.016 C 
HETATM   21  H14 UNL     1      27.124   4.424  51.073  1.00  0.00     0.153 HD
ENDROOT
TORSDOF 0
ENDMDL
MODEL 3
REMARK VINA RESULT:      -7.2      2.625      4.188
REMARK  0 active torsions:
REMARK  status: ('A' for Active; 'I' for Inactive)
ROOT
HETATM    1  C1  UNL     1      25.512   3.489  51.084  1.00  0.00     0.000 C 
HETATM    2  O1  UNL     1      24.862   2.286  51.491  1.00  0.00     0.000 OA
HETATM    3  C2  UNL     1      23.650   1.993  50.912  1.00  0.00     0.018 A 
HETATM    4  C3  UNL     1      23.915   1.185  51.888  1.00  0.00     0.025 A 
HETATM    5  O2  UNL     1      22.610   0.958  51.232  1.00  0.00     0.000 OA
HETATM    6  C4  UNL     1      21.944   0.713  52.416  1.00  0.00     0.049 C 
HETATM    7  C5  UNL     1      22.465  -0.676  52.758  1.00  0.00    -0.013 C 
HETATM    8  C6  UNL     1      23.587   0.075  52.773  1.00  0.00    -0.051 C 
HETATM    9  C7  UNL     1      24.560  -0.159  53.782  1.00  0.00     0.185 C 
HETATM   10  N1  UNL     1      24.048  -1.050  54.783  1.00  0.00    -0.274 NA
HETATM   11  C8  UNL     1      22.919  -1.349  55.295  1.00  0.00     0.248 C 
HETATM   12  O3  UNL     1      21.516  -1.006  55.203  1.00  0.00    -0.320 OA
HETATM   13  C9  UNL     1      21.073   0.139  54.676  1.00  0.00     0.346 C 
HETATM   14  O4  UNL     1      20.303   0.711  53.817  1.00  0.00    -0.359 OA
HETATM   15  C10 UNL     1      20.400   0.401  52.454  1.00  0.00     0.149 C 
HETATM   16  C11 UNL     1      19.801   1.221  51.484  1.00  0.00     0.146 C 
HETATM   17  N2  UNL     1      19.812   0.970  50.080  1.00  0.00    -0.416 N 
HETATM   18  C12 UNL     1      21.012   0.984  49.406  1.00  0.00     0.141 C 
HETATM   19  C13 UNL     1      21.828   2.152  49.174  1.00  0.00    -0.011 C 
HETATM   20  C14 UNL     1      22.960   2.612  49.773  1.00  0.00    -0.016 C 
HETATM   21  H14 UNL     1      19.089   0.307  49.824  1.00  0.00     0.153 HD
ENDROOT
TORSDOF 0
ENDMDL
MODEL 4
REMARK VINA RESULT:      -7.1      1.901      5.526
REMARK  0 active torsions:
REMARK  status: ('A' for Active; 'I' for Inactive)
ROOT
HETATM    1  C1  UNL     1      23.274  -1.543  55.665  1.00  0.00     0.000 C 
HETATM    2  O1  UNL     1      23.004  -0.808  54.471  1.00  0.00     0.000 OA
HETATM    3  C2  UNL     1      24.081  -0.385  53.729  1.00  0.00     0.018 A 
HETATM    4  C3  UNL     1      22.974   0.126  53.292  1.00  0.00     0.025 A 
HETATM    5  O2  UNL     1      24.188   0.560  52.567  1.00  0.00     0.000 OA
HETATM    6  C4  UNL     1      23.774   1.872  52.456  1.00  0.00     0.049 C 
HETATM    7  C5  UNL     1      22.697   1.745  51.388  1.00  0.00    -0.013 C 
HETATM    8  C6  UNL     1      22.213   0.982  52.392  1.00  0.00    -0.051 C 
HETATM    9  C7  UNL     1      20.823   1.030  52.686  1.00  0.00     0.185 C 
HETATM   10  N1  UNL     1      20.190   2.098  51.969  1.00  0.00    -0.274 NA
HETATM   11  C8  UNL     1      20.501   3.248  51.515  1.00  0.00     0.248 C 
HETATM   12  O3  UNL     1      21.623   4.159  51.435  1.00  0.00    -0.320 OA
HETATM   13  C9  UNL     1      22.679   4.097  52.250  1.00  0.00     0.346 C 
HETATM   14  O4  UNL     1      23.960   4.020  52.362  1.00  0.00    -0.359 OA
HETATM   15  C10 UNL     1      24.665   2.969  51.760  1.00  0.00     0.149 C 
HETATM   16  C11 UNL     1      25.994   2.695  52.121  1.00  0.00     0.146 C 
HETATM   17  N2  UNL     1      26.806   1.676  51.541  1.00  0.00    -0.416 N 
HETATM   18  C12 UNL     1      26.448   0.357  51.708  1.00  0.00     0.141 C 
HETATM   19  C13 UNL     1      26.481  -0.367  52.956  1.00  0.00    -0.011 C 
HETATM   20  C14 UNL     1      25.505  -0.720  53.837  1.00  0.00    -0.016 C 
HETATM   21  H14 UNL     1      27.212   1.988  50.666  1.00  0.00     0.153 HD
ENDROOT
TORSDOF 0
ENDMDL
MODEL 5
REMARK VINA RESULT:      -7.1      2.072      3.889
REMARK  0 active torsions:
REMARK  status: ('A' for Active; 'I' for Inactive)
ROOT
HETATM    1  C1  UNL     1      20.215   0.376  52.076  1.00  0.00     0.000 C 
HETATM    2  O1  UNL     1      21.507   0.648  52.619  1.00  0.00     0.000 OA
HETATM    3  C2  UNL     1      22.057   1.880  52.360  1.00  0.00     0.018 A 
HETATM    4  C3  UNL     1      22.913   1.089  52.925  1.00  0.00     0.025 A 
HETATM    5  O2  UNL     1      23.438   2.428  52.582  1.00  0.00     0.000 OA
HETATM    6  C4  UNL     1      24.657   1.949  52.147  1.00  0.00     0.049 C 
HETATM    7  C5  UNL     1      25.316   1.591  53.473  1.00  0.00    -0.013 C 
HETATM    8  C6  UNL     1      24.237   0.777  53.446  1.00  0.00    -0.051 C 
HETATM    9  C7  UNL     1      24.371  -0.560  53.906  1.00  0.00     0.185 C 
HETATM   10  N1  UNL     1      25.751  -0.886  54.124  1.00  0.00    -0.274 NA
HETATM   11  C8  UNL     1      26.888  -0.552  53.653  1.00  0.00     0.248 C 
HETATM   12  O3  UNL     1      27.481   0.315  52.657  1.00  0.00    -0.320 OA
HETATM   13  C9  UNL     1      26.805   0.809  51.616  1.00  0.00     0.346 C 
HETATM   14  O4  UNL     1      26.450   1.852  50.950  1.00  0.00    -0.359 OA
HETATM   15  C10 UNL     1      25.774   2.905  51.581  1.00  0.00     0.149 C 
HETATM   16  C11 UNL     1      25.115   3.891  50.830  1.00  0.00     0.146 C 
HETATM   17  N2  UNL     1      24.434   5.018  51.377  1.00  0.00    -0.416 N 
HETATM   18  C12 UNL     1      23.320   4.814  52.158  1.00  0.00     0.141 C 
HETATM   19  C13 UNL     1      22.050   4.312  51.690  1.00  0.00    -0.011 C 
HETATM   20  C14 UNL     1      21.466   3.085  51.766  1.00  0.00    -0.016 C 
HETATM   21  H14 UNL     1      25.085   5.763  51.600  1.00  0.00     0.153 HD
ENDROOT
TORSDOF 0
ENDMDL
MODEL 6
REMARK VINA RESULT:      -7.0      2.357      4.916
REMARK  0 active torsions:
REMARK  status: ('A' for Active; 'I' for Inactive)
ROOT
HETATM    1  C1  UNL     1      26.221  -0.883  53.080  1.00  0.00     0.000 C 
HETATM    2  O1  UNL     1      25.289   0.185  52.909  1.00  0.00     0.000 OA
HETATM    3  C2  UNL     1      24.027   0.014  53.427  1.00  0.00     0.018 A 
HETATM    4  C3  UNL     1      24.098   1.080  52.695  1.00  0.00     0.025 A 
HETATM    5  O2  UNL     1      22.761   0.805  53.263  1.00  0.00     0.000 OA
HETATM    6  C4  UNL     1      22.088   1.166  52.114  1.00  0.00     0.049 C 
HETATM    7  C5  UNL     1      22.235   2.680  52.156  1.00  0.00    -0.013 C 
HETATM    8  C6  UNL     1      23.515   2.259  52.068  1.00  0.00    -0.051 C 
HETATM    9  C7  UNL     1      24.420   2.971  51.236  1.00  0.00     0.185 C 
HETATM   10  N1  UNL     1      23.720   3.929  50.429  1.00  0.00    -0.274 NA
HETATM   11  C8  UNL     1      22.567   4.058  49.900  1.00  0.00     0.248 C 
HETATM   12  O3  UNL     1      21.302   3.366  49.780  1.00  0.00    -0.320 OA
HETATM   13  C9  UNL     1      21.161   2.053  49.981  1.00  0.00     0.346 C 
HETATM   14  O4  UNL     1      20.543   1.112  50.607  1.00  0.00    -0.359 OA
HETATM   15  C10 UNL     1      20.518   1.085  52.008  1.00  0.00     0.149 C 
HETATM   16  C11 UNL     1      20.128  -0.073  52.700  1.00  0.00     0.146 C 
HETATM   17  N2  UNL     1      20.034  -0.187  54.118  1.00  0.00    -0.416 N 
HETATM   18  C12 UNL     1      21.176  -0.071  54.878  1.00  0.00     0.141 C 
HETATM   19  C13 UNL     1      22.263  -1.020  54.903  1.00  0.00    -0.011 C 
HETATM   20  C14 UNL     1      23.493  -1.020  54.320  1.00  0.00    -0.016 C 
HETATM   21  H14 UNL     1      19.156   0.190  54.456  1.00  0.00     0.153 HD
ENDROOT
TORSDOF 0
ENDMDL
MODEL 7
REMARK VINA RESULT:      -7.0      1.939      5.576
REMARK  0 active torsions:
REMARK  status: ('A' for Active; 'I' for Inactive)
ROOT
HETATM    1  C1  UNL     1      26.667   0.240  54.930  1.00  0.00     0.000 C 
HETATM    2  O1  UNL     1      25.574   0.268  54.012  1.00  0.00     0.000 OA
HETATM    3  C2  UNL     1      25.646   1.157  52.966  1.00  0.00     0.018 A 
HETATM    4  C3  UNL     1      24.477   0.604  53.038  1.00  0.00     0.025 A 
HETATM    5  O2  UNL     1      24.627   1.601  51.957  1.00  0.00     0.000 OA
HETATM    6  C4  UNL     1      23.374   2.146  52.148  1.00  0.00     0.049 C 
HETATM    7  C5  UNL     1      22.491   1.053  51.562  1.00  0.00    -0.013 C 
HETATM    8  C6  UNL     1      23.103   0.423  52.588  1.00  0.00    -0.051 C 
HETATM    9  C7  UNL     1      22.352  -0.478  53.391  1.00  0.00     0.185 C 
HETATM   10  N1  UNL     1      20.954  -0.386  53.083  1.00  0.00    -0.274 NA
HETATM   11  C8  UNL     1      20.133   0.497  52.669  1.00  0.00     0.248 C 
HETATM   12  O3  UNL     1      20.084   1.886  52.266  1.00  0.00    -0.320 OA
HETATM   13  C9  UNL     1      21.012   2.783  52.609  1.00  0.00     0.346 C 
HETATM   14  O4  UNL     1      21.854   3.676  52.218  1.00  0.00    -0.359 OA
HETATM   15  C10 UNL     1      22.851   3.357  51.287  1.00  0.00     0.149 C 
HETATM   16  C11 UNL     1      23.949   4.209  51.086  1.00  0.00     0.146 C 
HETATM   17  N2  UNL     1      24.991   3.991  50.138  1.00  0.00    -0.416 N 
HETATM   18  C12 UNL     1      25.818   2.901  50.288  1.00  0.00     0.141 C 
HETATM   19  C13 UNL     1      26.782   2.721  51.347  1.00  0.00    -0.011 C 
HETATM   20  C14 UNL     1      26.761   1.982  52.490  1.00  0.00    -0.016 C 
HETATM   21  H14 UNL     1      24.712   4.296  49.212  1.00  0.00     0.153 HD
ENDROOT
TORSDOF 0
ENDMDL
MODEL 8
REMARK VINA RESULT:      -7.0      2.046      4.589
REMARK  0 active torsions:
REMARK  status: ('A' for Active; 'I' for Inactive)
ROOT
HETATM    1  C1  UNL     1      26.433   3.256  49.635  1.00  0.00     0.000 C 
HETATM    2  O1  UNL     1      25.428   3.026  50.621  1.00  0.00     0.000 OA
HETATM    3  C2  UNL     1      25.780   2.286  51.725  1.00  0.00     0.018 A 
HETATM    4  C3  UNL     1      24.504   2.504  51.689  1.00  0.00     0.025 A 
HETATM    5  O2  UNL     1      24.961   1.685  52.831  1.00  0.00     0.000 OA
HETATM    6  C4  UNL     1      23.892   0.814  52.764  1.00  0.00     0.049 C 
HETATM    7  C5  UNL     1      22.775   1.686  53.322  1.00  0.00    -0.013 C 
HETATM    8  C6  UNL     1      23.152   2.358  52.212  1.00  0.00    -0.051 C 
HETATM    9  C7  UNL     1      22.154   2.952  51.394  1.00  0.00     0.185 C 
HETATM   10  N1  UNL     1      20.846   2.524  51.798  1.00  0.00    -0.274 NA
HETATM   11  C8  UNL     1      20.309   1.499  52.332  1.00  0.00     0.248 C 
HETATM   12  O3  UNL     1      20.651   0.188  52.843  1.00  0.00    -0.320 OA
HETATM   13  C9  UNL     1      21.770  -0.461  52.510  1.00  0.00     0.346 C 
HETATM   14  O4  UNL     1      22.836  -1.062  52.912  1.00  0.00    -0.359 OA
HETATM   15  C10 UNL     1      23.750  -0.407  53.749  1.00  0.00     0.149 C 
HETATM   16  C11 UNL     1      25.043  -0.919  53.942  1.00  0.00     0.146 C 
HETATM   17  N2  UNL     1      26.029  -0.349  54.800  1.00  0.00    -0.416 N 
HETATM   18  C12 UNL     1      26.526   0.902  54.512  1.00  0.00     0.141 C 
HETATM   19  C13 UNL     1      27.362   1.230  53.382  1.00  0.00    -0.011 C 
HETATM   20  C14 UNL     1      27.095   1.830  52.190  1.00  0.00    -0.016 C 
HETATM   21  H14 UNL     1      25.881  -0.631  55.763  1.00  0.00     0.153 HD
ENDROOT
TORSDOF 0
ENDMDL
MODEL 9
REMARK VINA RESULT:      -6.8      2.230      3.240
REMARK  0 active torsions:
REMARK  status: ('A' for Active; 'I' for Inactive)
ROOT
HETATM    1  C1  UNL     1      21.798   4.892  52.195  1.00  0.00     0.000 C 
HETATM    2  O1  UNL     1      22.224   3.531  52.234  1.00  0.00     0.000 OA
HETATM    3  C2  UNL     1      21.258   2.561  52.106  1.00  0.00     0.018 A 
HETATM    4  C3  UNL     1      22.403   2.049  52.427  1.00  0.00     0.025 A 
HETATM    5  O2  UNL     1      21.300   1.073  52.302  1.00  0.00     0.000 OA
HETATM    6  C4  UNL     1      21.691   0.339  53.404  1.00  0.00     0.049 C 
HETATM    7  C5  UNL     1      22.918  -0.375  52.854  1.00  0.00    -0.013 C 
HETATM    8  C6  UNL     1      23.267   0.927  52.768  1.00  0.00    -0.051 C 
HETATM    9  C7  UNL     1      24.596   1.307  53.099  1.00  0.00     0.185 C 
HETATM   10  N1  UNL     1      25.301   0.214  53.704  1.00  0.00    -0.274 NA
HETATM   11  C8  UNL     1      25.031  -0.806  54.419  1.00  0.00     0.248 C 
HETATM   12  O3  UNL     1      23.910  -1.477  55.042  1.00  0.00    -0.320 OA
HETATM   13  C9  UNL     1      22.746  -0.875  55.303  1.00  0.00     0.346 C 
HETATM   14  O4  UNL     1      21.465  -0.885  55.167  1.00  0.00    -0.359 OA
HETATM   15  C10 UNL     1      20.885  -0.924  53.892  1.00  0.00     0.149 C 
HETATM   16  C11 UNL     1      19.524  -0.625  53.711  1.00  0.00     0.146 C 
HETATM   17  N2  UNL     1      18.835  -0.674  52.464  1.00  0.00    -0.416 N 
HETATM   18  C12 UNL     1      19.198   0.197  51.462  1.00  0.00     0.141 C 
HETATM   19  C13 UNL     1      18.999   1.627  51.484  1.00  0.00    -0.011 C 
HETATM   20  C14 UNL     1      19.842   2.666  51.734  1.00  0.00    -0.016 C 
HETATM   21  H14 UNL     1      18.555  -1.622  52.240  1.00  0.00     0.153 HD
ENDROOT
TORSDOF 0
ENDMDL
