MODEL 1
REMARK VINA RESULT:      -9.2      0.000      0.000
REMARK  8 active torsions:
REMARK  status: ('A' for Active; 'I' for Inactive)
REMARK    1  A    between atoms: N1_1  and  C1_2 
REMARK    2  A    between atoms: C5_8  and  C6_9 
REMARK    3  A    between atoms: C6_9  and  C7_10 
REMARK    4  A    between atoms: C8_11  and  O1_12 
REMARK    5  A    between atoms: O1_12  and  C9_13 
REMARK    6  A    between atoms: C9_13  and  C10_14 
REMARK    7  A    between atoms: N4_23  and  C18_24 
REMARK    8  A    between atoms: C20_26  and  C21_27 
ROOT
HETATM    1  C1  UNL     1      27.179   1.676  53.606  1.00  0.00     0.137 A 
HETATM    2  N2  UNL     1      27.890   0.963  54.492  1.00  0.00    -0.224 NA
HETATM    3  C2  UNL     1      27.305  -0.079  55.117  1.00  0.00     0.237 A 
HETATM    4  N3  UNL     1      26.033  -0.437  54.890  1.00  0.00    -0.223 NA
HETATM    5  C3  UNL     1      25.292   0.234  54.026  1.00  0.00     0.146 A 
HETATM    6  C4  UNL     1      25.880   1.299  53.386  1.00  0.00     0.068 A 
HETATM    7  C5  UNL     1      25.014   1.911  52.513  1.00  0.00     0.009 A 
HETATM    8  C17 UNL     1      23.835   1.159  52.643  1.00  0.00     0.106 A 
HETATM    9  N4  UNL     1      24.039   0.180  53.544  1.00  0.00    -0.335 N 
ENDROOT
BRANCH   7  10
HETATM   10  C6  UNL     1      25.005   3.049  51.603  1.00  0.00    -0.011 C 
HETATM   11  C14 UNL     1      24.107   4.055  51.645  1.00  0.00    -0.025 A 
HETATM   12  C15 UNL     1      23.333   5.251  51.415  1.00  0.00     0.013 A 
HETATM   13  C16 UNL     1      22.941   4.457  52.435  1.00  0.00     0.013 A 
BRANCH  10  14
HETATM   14  C7  UNL     1      25.976   3.302  50.548  1.00  0.00     0.037 C 
HETATM   15  C8  UNL     1      26.617   3.979  49.613  1.00  0.00     0.135 C 
BRANCH  15  16
HETATM   16  O1  UNL     1      27.559   4.188  48.605  1.00  0.00    -0.360 OA
BRANCH  16  17
HETATM   17  C9  UNL     1      28.059   5.518  48.543  1.00  0.00     0.206 C 
BRANCH  17  18
HETATM   18  C10 UNL     1      29.473   5.571  48.080  1.00  0.00     0.145 C 
HETATM   19  C11 UNL     1      29.756   6.864  47.347  1.00  0.00     0.036 C 
HETATM   20  C12 UNL     1      31.243   7.018  47.600  1.00  0.00     0.029 C 
HETATM   21  C13 UNL     1      31.348   6.435  48.990  1.00  0.00     0.168 C 
HETATM   22  O2  UNL     1      30.425   5.428  49.048  1.00  0.00    -0.384 OA
ENDBRANCH  17  18
ENDBRANCH  16  17
ENDBRANCH  15  16
ENDBRANCH  10  14
ENDBRANCH   7  10
BRANCH   1  23
HETATM   23  N1  UNL     1      27.814   2.755  52.944  1.00  0.00    -0.383 N 
HETATM   24  H1  UNL     1      28.606   3.320  53.326  1.00  0.00     0.157 HD
HETATM   25  H2  UNL     1      27.526   3.068  51.995  1.00  0.00     0.157 HD
ENDBRANCH   1  23
BRANCH   9  26
HETATM   26  C18 UNL     1      23.021  -0.767  53.894  1.00  0.00     0.092 C 
HETATM   27  C19 UNL     1      21.864  -0.193  54.682  1.00  0.00     0.032 C 
HETATM   28  C20 UNL     1      20.933  -1.049  53.864  1.00  0.00     0.007 C 
HETATM   29  C25 UNL     1      22.072  -1.204  52.844  1.00  0.00     0.032 C 
BRANCH  28  30
HETATM   30  C21 UNL     1      19.749  -0.290  53.262  1.00  0.00     0.121 C 
HETATM   31  N5  UNL     1      18.623  -1.058  53.244  1.00  0.00    -0.412 N 
HETATM   32  C22 UNL     1      17.344  -0.807  52.796  1.00  0.00     0.118 A 
HETATM   33  C24 UNL     1      18.425  -2.358  53.647  1.00  0.00     0.118 A 
HETATM   34  C23 UNL     1      16.978  -2.270  53.114  1.00  0.00     0.039 A 
ENDBRANCH  28  30
ENDBRANCH   9  26
TORSDOF 8
ENDMDL
MODEL 2
REMARK VINA RESULT:      -8.9      4.556      9.984
REMARK  8 active torsions:
REMARK  status: ('A' for Active; 'I' for Inactive)
REMARK    1  A    between atoms: N1_1  and  C1_2 
REMARK    2  A    between atoms: C5_8  and  C6_9 
REMARK    3  A    between atoms: C6_9  and  C7_10 
REMARK    4  A    between atoms: C8_11  and  O1_12 
REMARK    5  A    between atoms: O1_12  and  C9_13 
REMARK    6  A    between atoms: C9_13  and  C10_14 
REMARK    7  A    between atoms: N4_23  and  C18_24 
REMARK    8  A    between atoms: C20_26  and  C21_27 
ROOT
HETATM    1  C1  UNL     1      24.338   6.874  50.814  1.00  0.00     0.137 A 
HETATM    2  N2  UNL     1      24.312   8.215  50.808  1.00  0.00    -0.224 NA
HETATM    3  C2  UNL     1      25.243   8.885  50.098  1.00  0.00     0.237 A 
HETATM    4  N3  UNL     1      26.200   8.265  49.393  1.00  0.00    -0.223 NA
HETATM    5  C3  UNL     1      26.266   6.946  49.368  1.00  0.00     0.146 A 
HETATM    6  C4  UNL     1      25.322   6.255  50.090  1.00  0.00     0.068 A 
HETATM    7  C5  UNL     1      25.491   4.896  49.982  1.00  0.00     0.009 A 
HETATM    8  C17 UNL     1      26.608   4.773  49.139  1.00  0.00     0.106 A 
HETATM    9  N4  UNL     1      27.036   6.003  48.799  1.00  0.00    -0.335 N 
ENDROOT
BRANCH   7  10
HETATM   10  C6  UNL     1      24.883   3.676  50.498  1.00  0.00    -0.011 C 
HETATM   11  C14 UNL     1      23.864   3.019  49.904  1.00  0.00    -0.025 A 
HETATM   12  C15 UNL     1      22.813   2.099  49.546  1.00  0.00     0.013 A 
HETATM   13  C16 UNL     1      23.024   3.140  48.711  1.00  0.00     0.013 A 
BRANCH  10  14
HETATM   14  C7  UNL     1      25.300   2.959  51.694  1.00  0.00     0.037 C 
HETATM   15  C8  UNL     1      25.172   2.262  52.808  1.00  0.00     0.135 C 
BRANCH  15  16
HETATM   16  O1  UNL     1      25.605   1.581  53.947  1.00  0.00    -0.360 OA
BRANCH  16  17
HETATM   17  C9  UNL     1      26.028   0.246  53.700  1.00  0.00     0.206 C 
BRANCH  17  18
HETATM   18  C10 UNL     1      27.381  -0.031  54.257  1.00  0.00     0.145 C 
HETATM   19  C11 UNL     1      28.243  -0.762  53.251  1.00  0.00     0.036 C 
HETATM   20  C12 UNL     1      29.627  -0.323  53.685  1.00  0.00     0.029 C 
HETATM   21  C13 UNL     1      29.338   1.087  54.145  1.00  0.00     0.168 C 
HETATM   22  O2  UNL     1      28.084   1.057  54.688  1.00  0.00    -0.384 OA
ENDBRANCH  17  18
ENDBRANCH  16  17
ENDBRANCH  15  16
ENDBRANCH  10  14
ENDBRANCH   7  10
BRANCH   1  23
HETATM   23  N1  UNL     1      23.341   6.185  51.549  1.00  0.00    -0.383 N 
HETATM   24  H1  UNL     1      22.661   5.497  51.152  1.00  0.00     0.157 HD
HETATM   25  H2  UNL     1      23.214   6.322  52.571  1.00  0.00     0.157 HD
ENDBRANCH   1  23
BRANCH   9  26
HETATM   26  C18 UNL     1      28.161   6.215  47.935  1.00  0.00     0.092 C 
HETATM   27  C19 UNL     1      29.093   7.325  48.370  1.00  0.00     0.032 C 
HETATM   28  C20 UNL     1      30.254   6.455  47.964  1.00  0.00     0.007 C 
HETATM   29  C25 UNL     1      29.290   5.258  48.000  1.00  0.00     0.032 C 
BRANCH  28  30
HETATM   30  C21 UNL     1      31.343   6.323  49.031  1.00  0.00     0.121 C 
HETATM   31  N5  UNL     1      32.571   6.141  48.468  1.00  0.00    -0.412 N 
HETATM   32  C22 UNL     1      33.821   5.968  49.023  1.00  0.00     0.118 A 
HETATM   33  C24 UNL     1      32.939   6.041  47.148  1.00  0.00     0.118 A 
HETATM   34  C23 UNL     1      34.386   5.747  47.606  1.00  0.00     0.039 A 
ENDBRANCH  28  30
ENDBRANCH   9  26
TORSDOF 8
ENDMDL
MODEL 3
REMARK VINA RESULT:      -8.7      4.291      7.936
REMARK  8 active torsions:
REMARK  status: ('A' for Active; 'I' for Inactive)
REMARK    1  A    between atoms: N1_1  and  C1_2 
REMARK    2  A    between atoms: C5_8  and  C6_9 
REMARK    3  A    between atoms: C6_9  and  C7_10 
REMARK    4  A    between atoms: C8_11  and  O1_12 
REMARK    5  A    between atoms: O1_12  and  C9_13 
REMARK    6  A    between atoms: C9_13  and  C10_14 
REMARK    7  A    between atoms: N4_23  and  C18_24 
REMARK    8  A    between atoms: C20_26  and  C21_27 
ROOT
HETATM    1  C1  UNL     1      26.420   3.822  49.787  1.00  0.00     0.137 A 
HETATM    2  N2  UNL     1      27.250   4.445  48.937  1.00  0.00    -0.224 NA
HETATM    3  C2  UNL     1      26.996   5.724  48.593  1.00  0.00     0.237 A 
HETATM    4  N3  UNL     1      25.943   6.406  49.067  1.00  0.00    -0.223 NA
HETATM    5  C3  UNL     1      25.098   5.835  49.907  1.00  0.00     0.146 A 
HETATM    6  C4  UNL     1      25.348   4.531  50.262  1.00  0.00     0.068 A 
HETATM    7  C5  UNL     1      24.406   4.051  51.140  1.00  0.00     0.009 A 
HETATM    8  C17 UNL     1      23.542   5.144  51.318  1.00  0.00     0.106 A 
HETATM    9  N4  UNL     1      23.983   6.176  50.575  1.00  0.00    -0.335 N 
ENDROOT
BRANCH   7  10
HETATM   10  C6  UNL     1      24.095   2.809  51.835  1.00  0.00    -0.011 C 
HETATM   11  C14 UNL     1      23.157   1.925  51.437  1.00  0.00    -0.025 A 
HETATM   12  C15 UNL     1      22.261   0.802  51.299  1.00  0.00     0.013 A 
HETATM   13  C16 UNL     1      22.183   1.766  50.356  1.00  0.00     0.013 A 
BRANCH  10  14
HETATM   14  C7  UNL     1      24.767   2.311  53.026  1.00  0.00     0.037 C 
HETATM   15  C8  UNL     1      25.773   1.944  53.799  1.00  0.00     0.135 C 
BRANCH  15  16
HETATM   16  O1  UNL     1      26.386   1.463  54.957  1.00  0.00    -0.360 OA
BRANCH  16  17
HETATM   17  C9  UNL     1      26.828   0.114  54.863  1.00  0.00     0.206 C 
BRANCH  17  18
HETATM   18  C10 UNL     1      27.865  -0.070  53.810  1.00  0.00     0.145 C 
HETATM   19  C11 UNL     1      29.192   0.509  54.248  1.00  0.00     0.036 C 
HETATM   20  C12 UNL     1      30.157  -0.350  53.455  1.00  0.00     0.029 C 
HETATM   21  C13 UNL     1      29.417  -1.669  53.458  1.00  0.00     0.168 C 
HETATM   22  O2  UNL     1      28.088  -1.356  53.409  1.00  0.00    -0.384 OA
ENDBRANCH  17  18
ENDBRANCH  16  17
ENDBRANCH  15  16
ENDBRANCH  10  14
ENDBRANCH   7  10
BRANCH   1  23
HETATM   23  N1  UNL     1      26.712   2.485  50.154  1.00  0.00    -0.383 N 
HETATM   24  H1  UNL     1      26.479   1.636  49.590  1.00  0.00     0.157 HD
HETATM   25  H2  UNL     1      27.196   2.249  51.043  1.00  0.00     0.157 HD
ENDBRANCH   1  23
BRANCH   9  26
HETATM   26  C18 UNL     1      23.316   7.445  50.548  1.00  0.00     0.092 C 
HETATM   27  C19 UNL     1      23.046   7.990  49.162  1.00  0.00     0.032 C 
HETATM   28  C20 UNL     1      21.698   8.452  49.650  1.00  0.00     0.007 C 
HETATM   29  C25 UNL     1      21.863   7.486  50.833  1.00  0.00     0.032 C 
BRANCH  28  30
HETATM   30  C21 UNL     1      20.531   8.037  48.753  1.00  0.00     0.121 C 
HETATM   31  N5  UNL     1      19.547   8.981  48.746  1.00  0.00    -0.412 N 
HETATM   32  C22 UNL     1      18.329   9.037  48.105  1.00  0.00     0.118 A 
HETATM   33  C24 UNL     1      19.457  10.176  49.419  1.00  0.00     0.118 A 
HETATM   34  C23 UNL     1      18.032  10.354  48.849  1.00  0.00     0.039 A 
ENDBRANCH  28  30
ENDBRANCH   9  26
TORSDOF 8
ENDMDL
MODEL 4
REMARK VINA RESULT:      -8.6      3.250      6.408
REMARK  8 active torsions:
REMARK  status: ('A' for Active; 'I' for Inactive)
REMARK    1  A    between atoms: N1_1  and  C1_2 
REMARK    2  A    between atoms: C5_8  and  C6_9 
REMARK    3  A    between atoms: C6_9  and  C7_10 
REMARK    4  A    between atoms: C8_11  and  O1_12 
REMARK    5  A    between atoms: O1_12  and  C9_13 
REMARK    6  A    between atoms: C9_13  and  C10_14 
REMARK    7  A    between atoms: N4_23  and  C18_24 
REMARK    8  A    between atoms: C20_26  and  C21_27 
ROOT
HETATM    1  C1  UNL     1      24.024   6.398  50.773  1.00  0.00     0.137 A 
HETATM    2  N2  UNL     1      23.050   7.295  50.988  1.00  0.00    -0.224 NA
HETATM    3  C2  UNL     1      21.765   6.920  50.822  1.00  0.00     0.237 A 
HETATM    4  N3  UNL     1      21.416   5.679  50.449  1.00  0.00    -0.223 NA
HETATM    5  C3  UNL     1      22.339   4.762  50.226  1.00  0.00     0.146 A 
HETATM    6  C4  UNL     1      23.652   5.136  50.391  1.00  0.00     0.068 A 
HETATM    7  C5  UNL     1      24.515   4.098  50.136  1.00  0.00     0.009 A 
HETATM    8  C17 UNL     1      23.657   3.038  49.799  1.00  0.00     0.106 A 
HETATM    9  N4  UNL     1      22.384   3.468  49.864  1.00  0.00    -0.335 N 
ENDROOT
BRANCH   7  10
HETATM   10  C6  UNL     1      25.951   3.857  50.100  1.00  0.00    -0.011 C 
HETATM   11  C14 UNL     1      26.819   4.525  49.312  1.00  0.00    -0.025 A 
HETATM   12  C15 UNL     1      27.984   5.028  48.626  1.00  0.00     0.013 A 
HETATM   13  C16 UNL     1      26.799   5.596  48.313  1.00  0.00     0.013 A 
BRANCH  10  14
HETATM   14  C7  UNL     1      26.673   2.901  50.927  1.00  0.00     0.037 C 
HETATM   15  C8  UNL     1      26.854   1.975  51.851  1.00  0.00     0.135 C 
BRANCH  15  16
HETATM   16  O1  UNL     1      27.575   1.068  52.628  1.00  0.00    -0.360 OA
BRANCH  16  17
HETATM   17  C9  UNL     1      26.872  -0.132  52.925  1.00  0.00     0.206 C 
BRANCH  17  18
HETATM   18  C10 UNL     1      25.703   0.102  53.816  1.00  0.00     0.145 C 
HETATM   19  C11 UNL     1      24.403  -0.147  53.084  1.00  0.00     0.036 C 
HETATM   20  C12 UNL     1      23.496  -0.540  54.233  1.00  0.00     0.029 C 
HETATM   21  C13 UNL     1      24.477  -1.272  55.121  1.00  0.00     0.168 C 
HETATM   22  O2  UNL     1      25.675  -0.631  54.969  1.00  0.00    -0.384 OA
ENDBRANCH  17  18
ENDBRANCH  16  17
ENDBRANCH  15  16
ENDBRANCH  10  14
ENDBRANCH   7  10
BRANCH   1  23
HETATM   23  N1  UNL     1      25.367   6.802  50.970  1.00  0.00    -0.383 N 
HETATM   24  H1  UNL     1      26.190   6.162  51.042  1.00  0.00     0.157 HD
HETATM   25  H2  UNL     1      25.636   7.803  51.061  1.00  0.00     0.157 HD
ENDBRANCH   1  23
BRANCH   9  26
HETATM   26  C18 UNL     1      21.267   2.614  49.581  1.00  0.00     0.092 C 
HETATM   27  C19 UNL     1      21.530   1.138  49.789  1.00  0.00     0.032 C 
HETATM   28  C20 UNL     1      20.152   1.018  50.386  1.00  0.00     0.007 C 
HETATM   29  C25 UNL     1      20.165   2.544  50.568  1.00  0.00     0.032 C 
BRANCH  28  30
HETATM   30  C21 UNL     1      20.115   0.298  51.736  1.00  0.00     0.121 C 
HETATM   31  N5  UNL     1      18.896  -0.268  51.964  1.00  0.00    -0.412 N 
HETATM   32  C22 UNL     1      18.403  -0.994  53.027  1.00  0.00     0.118 A 
HETATM   33  C24 UNL     1      17.753  -0.258  51.201  1.00  0.00     0.118 A 
HETATM   34  C23 UNL     1      17.022  -1.003  52.341  1.00  0.00     0.039 A 
ENDBRANCH  28  30
ENDBRANCH   9  26
TORSDOF 8
ENDMDL
MODEL 5
REMARK VINA RESULT:      -8.4      2.201      2.683
REMARK  8 active torsions:
REMARK  status: ('A' for Active; 'I' for Inactive)
REMARK    1  A    between atoms: N1_1  and  C1_2 
REMARK    2  A    between atoms: C5_8  and  C6_9 
REMARK    3  A    between atoms: C6_9  and  C7_10 
REMARK    4  A    between atoms: C8_11  and  O1_12 
REMARK    5  A    between atoms: O1_12  and  C9_13 
REMARK    6  A    between atoms: C9_13  and  C10_14 
REMARK    7  A    between atoms: N4_23  and  C18_24 
REMARK    8  A    between atoms: C20_26  and  C21_27 
ROOT
HETATM    1  C1  UNL     1      26.253   1.700  51.716  1.00  0.00     0.137 A 
HETATM    2  N2  UNL     1      27.175   0.984  52.376  1.00  0.00    -0.224 NA
HETATM    3  C2  UNL     1      26.771   0.050  53.260  1.00  0.00     0.237 A 
HETATM    4  N3  UNL     1      25.476  -0.196  53.512  1.00  0.00    -0.223 NA
HETATM    5  C3  UNL     1      24.532   0.484  52.887  1.00  0.00     0.146 A 
HETATM    6  C4  UNL     1      24.935   1.438  51.984  1.00  0.00     0.068 A 
HETATM    7  C5  UNL     1      23.866   2.071  51.398  1.00  0.00     0.009 A 
HETATM    8  C17 UNL     1      22.755   1.449  51.991  1.00  0.00     0.106 A 
HETATM    9  N4  UNL     1      23.189   0.520  52.863  1.00  0.00    -0.335 N 
ENDROOT
BRANCH   7  10
HETATM   10  C6  UNL     1      23.623   3.139  50.437  1.00  0.00    -0.011 C 
HETATM   11  C14 UNL     1      22.993   2.975  49.254  1.00  0.00    -0.025 A 
HETATM   12  C15 UNL     1      22.383   3.147  47.959  1.00  0.00     0.013 A 
HETATM   13  C16 UNL     1      22.363   1.902  48.483  1.00  0.00     0.013 A 
BRANCH  10  14
HETATM   14  C7  UNL     1      23.975   4.540  50.617  1.00  0.00     0.037 C 
HETATM   15  C8  UNL     1      23.866   5.782  51.052  1.00  0.00     0.135 C 
BRANCH  15  16
HETATM   16  O1  UNL     1      24.232   7.120  51.204  1.00  0.00    -0.360 OA
BRANCH  16  17
HETATM   17  C9  UNL     1      24.783   7.709  50.033  1.00  0.00     0.206 C 
BRANCH  17  18
HETATM   18  C10 UNL     1      26.232   7.405  49.874  1.00  0.00     0.145 C 
HETATM   19  C11 UNL     1      26.469   6.501  48.684  1.00  0.00     0.036 C 
HETATM   20  C12 UNL     1      27.885   6.889  48.306  1.00  0.00     0.029 C 
HETATM   21  C13 UNL     1      27.868   8.361  48.650  1.00  0.00     0.168 C 
HETATM   22  O2  UNL     1      27.058   8.484  49.743  1.00  0.00    -0.384 OA
ENDBRANCH  17  18
ENDBRANCH  16  17
ENDBRANCH  15  16
ENDBRANCH  10  14
ENDBRANCH   7  10
BRANCH   1  23
HETATM   23  N1  UNL     1      26.694   2.663  50.775  1.00  0.00    -0.383 N 
HETATM   24  H1  UNL     1      26.439   2.683  49.761  1.00  0.00     0.157 HD
HETATM   25  H2  UNL     1      27.326   3.445  51.040  1.00  0.00     0.157 HD
ENDBRANCH   1  23
BRANCH   9  26
HETATM   26  C18 UNL     1      22.291  -0.297  53.627  1.00  0.00     0.092 C 
HETATM   27  C19 UNL     1      21.080   0.430  54.171  1.00  0.00     0.032 C 
HETATM   28  C20 UNL     1      20.250  -0.780  53.830  1.00  0.00     0.007 C 
HETATM   29  C25 UNL     1      21.392  -1.226  52.903  1.00  0.00     0.032 C 
BRANCH  28  30
HETATM   30  C21 UNL     1      18.981  -0.467  53.035  1.00  0.00     0.121 C 
HETATM   31  N5  UNL     1      18.065  -1.470  53.144  1.00  0.00    -0.412 N 
HETATM   32  C22 UNL     1      16.806  -1.630  52.605  1.00  0.00     0.118 A 
HETATM   33  C24 UNL     1      18.134  -2.669  53.812  1.00  0.00     0.118 A 
HETATM   34  C23 UNL     1      16.756  -3.043  53.221  1.00  0.00     0.039 A 
ENDBRANCH  28  30
ENDBRANCH   9  26
TORSDOF 8
ENDMDL
MODEL 6
REMARK VINA RESULT:      -8.3      3.484      6.180
REMARK  8 active torsions:
REMARK  status: ('A' for Active; 'I' for Inactive)
REMARK    1  A    between atoms: N1_1  and  C1_2 
REMARK    2  A    between atoms: C5_8  and  C6_9 
REMARK    3  A    between atoms: C6_9  and  C7_10 
REMARK    4  A    between atoms: C8_11  and  O1_12 
REMARK    5  A    between atoms: O1_12  and  C9_13 
REMARK    6  A    between atoms: C9_13  and  C10_14 
REMARK    7  A    between atoms: N4_23  and  C18_24 
REMARK    8  A    between atoms: C20_26  and  C21_27 
ROOT
HETATM    1  C1  UNL     1      22.857   4.326  48.331  1.00  0.00     0.137 A 
HETATM    2  N2  UNL     1      21.819   3.536  48.017  1.00  0.00    -0.224 NA
HETATM    3  C2  UNL     1      21.638   2.388  48.701  1.00  0.00     0.237 A 
HETATM    4  N3  UNL     1      22.458   1.996  49.688  1.00  0.00    -0.223 NA
HETATM    5  C3  UNL     1      23.494   2.740  50.032  1.00  0.00     0.146 A 
HETATM    6  C4  UNL     1      23.686   3.912  49.340  1.00  0.00     0.068 A 
HETATM    7  C5  UNL     1      24.788   4.597  49.792  1.00  0.00     0.009 A 
HETATM    8  C17 UNL     1      25.281   3.777  50.821  1.00  0.00     0.106 A 
HETATM    9  N4  UNL     1      24.491   2.694  50.932  1.00  0.00    -0.335 N 
ENDROOT
BRANCH   7  10
HETATM   10  C6  UNL     1      25.516   5.819  49.479  1.00  0.00    -0.011 C 
HETATM   11  C14 UNL     1      25.125   7.058  49.846  1.00  0.00    -0.025 A 
HETATM   12  C15 UNL     1      25.003   8.478  50.069  1.00  0.00     0.013 A 
HETATM   13  C16 UNL     1      24.029   7.693  50.580  1.00  0.00     0.013 A 
BRANCH  10  14
HETATM   14  C7  UNL     1      26.786   5.895  48.770  1.00  0.00     0.037 C 
HETATM   15  C8  UNL     1      27.836   6.457  48.200  1.00  0.00     0.135 C 
BRANCH  15  16
HETATM   16  O1  UNL     1      29.053   6.494  47.519  1.00  0.00    -0.360 OA
BRANCH  16  17
HETATM   17  C9  UNL     1      30.180   6.173  48.325  1.00  0.00     0.206 C 
BRANCH  17  18
HETATM   18  C10 UNL     1      31.299   5.595  47.530  1.00  0.00     0.145 C 
HETATM   19  C11 UNL     1      32.633   6.133  47.999  1.00  0.00     0.036 C 
HETATM   20  C12 UNL     1      33.553   4.990  47.618  1.00  0.00     0.029 C 
HETATM   21  C13 UNL     1      32.639   3.809  47.854  1.00  0.00     0.168 C 
HETATM   22  O2  UNL     1      31.383   4.232  47.521  1.00  0.00    -0.384 OA
ENDBRANCH  17  18
ENDBRANCH  16  17
ENDBRANCH  15  16
ENDBRANCH  10  14
ENDBRANCH   7  10
BRANCH   1  23
HETATM   23  N1  UNL     1      23.020   5.538  47.617  1.00  0.00    -0.383 N 
HETATM   24  H1  UNL     1      23.179   5.620  46.587  1.00  0.00     0.157 HD
HETATM   25  H2  UNL     1      22.991   6.465  48.088  1.00  0.00     0.157 HD
ENDBRANCH   1  23
BRANCH   9  26
HETATM   26  C18 UNL     1      24.728   1.666  51.904  1.00  0.00     0.092 C 
HETATM   27  C19 UNL     1      25.973   0.840  51.662  1.00  0.00     0.032 C 
HETATM   28  C20 UNL     1      26.232   0.869  53.146  1.00  0.00     0.007 C 
HETATM   29  C25 UNL     1      25.259   2.057  53.230  1.00  0.00     0.032 C 
BRANCH  28  30
HETATM   30  C21 UNL     1      27.653   1.288  53.527  1.00  0.00     0.121 C 
HETATM   31  N5  UNL     1      28.508   0.226  53.505  1.00  0.00    -0.412 N 
HETATM   32  C22 UNL     1      29.854   0.123  53.779  1.00  0.00     0.118 A 
HETATM   33  C24 UNL     1      28.273  -1.099  53.227  1.00  0.00     0.118 A 
HETATM   34  C23 UNL     1      29.746  -1.402  53.585  1.00  0.00     0.039 A 
ENDBRANCH  28  30
ENDBRANCH   9  26
TORSDOF 8
ENDMDL
MODEL 7
REMARK VINA RESULT:      -8.2      4.907      9.807
REMARK  8 active torsions:
REMARK  status: ('A' for Active; 'I' for Inactive)
REMARK    1  A    between atoms: N1_1  and  C1_2 
REMARK    2  A    between atoms: C5_8  and  C6_9 
REMARK    3  A    between atoms: C6_9  and  C7_10 
REMARK    4  A    between atoms: C8_11  and  O1_12 
REMARK    5  A    between atoms: O1_12  and  C9_13 
REMARK    6  A    between atoms: C9_13  and  C10_14 
REMARK    7  A    between atoms: N4_23  and  C18_24 
REMARK    8  A    between atoms: C20_26  and  C21_27 
ROOT
HETATM    1  C1  UNL     1      20.363  -0.396  53.215  1.00  0.00     0.137 A 
HETATM    2  N2  UNL     1      20.606  -1.390  54.082  1.00  0.00    -0.224 NA
HETATM    3  C2  UNL     1      21.859  -1.560  54.551  1.00  0.00     0.237 A 
HETATM    4  N3  UNL     1      22.882  -0.773  54.184  1.00  0.00    -0.223 NA
HETATM    5  C3  UNL     1      22.692   0.218  53.332  1.00  0.00     0.146 A 
HETATM    6  C4  UNL     1      21.417   0.398  52.849  1.00  0.00     0.068 A 
HETATM    7  C5  UNL     1      21.346   1.459  51.979  1.00  0.00     0.009 A 
HETATM    8  C17 UNL     1      22.666   1.941  51.946  1.00  0.00     0.106 A 
HETATM    9  N4  UNL     1      23.428   1.184  52.756  1.00  0.00    -0.335 N 
ENDROOT
BRANCH   7  10
HETATM   10  C6  UNL     1      20.353   2.120  51.143  1.00  0.00    -0.011 C 
HETATM   11  C14 UNL     1      20.342   2.085  49.794  1.00  0.00    -0.025 A 
HETATM   12  C15 UNL     1      20.042   2.248  48.393  1.00  0.00     0.013 A 
HETATM   13  C16 UNL     1      21.126   1.504  48.703  1.00  0.00     0.013 A 
BRANCH  10  14
HETATM   14  C7  UNL     1      19.204   2.875  51.624  1.00  0.00     0.037 C 
HETATM   15  C8  UNL     1      17.984   3.380  51.620  1.00  0.00     0.135 C 
BRANCH  15  16
HETATM   16  O1  UNL     1      16.902   4.113  52.109  1.00  0.00    -0.360 OA
BRANCH  16  17
HETATM   17  C9  UNL     1      15.679   3.388  52.148  1.00  0.00     0.206 C 
BRANCH  17  18
HETATM   18  C10 UNL     1      14.517   4.256  52.487  1.00  0.00     0.145 C 
HETATM   19  C11 UNL     1      13.216   3.611  52.063  1.00  0.00     0.036 C 
HETATM   20  C12 UNL     1      12.252   4.229  53.056  1.00  0.00     0.029 C 
HETATM   21  C13 UNL     1      13.141   4.337  54.273  1.00  0.00     0.168 C 
HETATM   22  O2  UNL     1      14.396   4.605  53.801  1.00  0.00    -0.384 OA
ENDBRANCH  17  18
ENDBRANCH  16  17
ENDBRANCH  15  16
ENDBRANCH  10  14
ENDBRANCH   7  10
BRANCH   1  23
HETATM   23  N1  UNL     1      19.038  -0.219  52.748  1.00  0.00    -0.383 N 
HETATM   24  H1  UNL     1      18.403  -0.982  52.417  1.00  0.00     0.157 HD
HETATM   25  H2  UNL     1      18.588   0.718  52.703  1.00  0.00     0.157 HD
ENDBRANCH   1  23
BRANCH   9  26
HETATM   26  C18 UNL     1      24.828   1.429  52.945  1.00  0.00     0.092 C 
HETATM   27  C19 UNL     1      25.496   0.534  53.967  1.00  0.00     0.032 C 
HETATM   28  C20 UNL     1      26.687   0.442  53.049  1.00  0.00     0.007 C 
HETATM   29  C25 UNL     1      25.775   0.940  51.916  1.00  0.00     0.032 C 
BRANCH  28  30
HETATM   30  C21 UNL     1      27.169  -0.986  52.788  1.00  0.00     0.121 C 
HETATM   31  N5  UNL     1      28.428  -1.183  53.273  1.00  0.00    -0.412 N 
HETATM   32  C22 UNL     1      29.256  -2.284  53.260  1.00  0.00     0.118 A 
HETATM   33  C24 UNL     1      29.284  -0.314  53.905  1.00  0.00     0.118 A 
HETATM   34  C23 UNL     1      30.363  -1.420  53.897  1.00  0.00     0.039 A 
ENDBRANCH  28  30
ENDBRANCH   9  26
TORSDOF 8
ENDMDL
MODEL 8
REMARK VINA RESULT:      -8.1      4.714      9.633
REMARK  8 active torsions:
REMARK  status: ('A' for Active; 'I' for Inactive)
REMARK    1  A    between atoms: N1_1  and  C1_2 
REMARK    2  A    between atoms: C5_8  and  C6_9 
REMARK    3  A    between atoms: C6_9  and  C7_10 
REMARK    4  A    between atoms: C8_11  and  O1_12 
REMARK    5  A    between atoms: O1_12  and  C9_13 
REMARK    6  A    between atoms: C9_13  and  C10_14 
REMARK    7  A    between atoms: N4_23  and  C18_24 
REMARK    8  A    between atoms: C20_26  and  C21_27 
ROOT
HETATM    1  C1  UNL     1      26.629   3.915  49.225  1.00  0.00     0.137 A 
HETATM    2  N2  UNL     1      27.801   4.484  48.909  1.00  0.00    -0.224 NA
HETATM    3  C2  UNL     1      27.817   5.770  48.501  1.00  0.00     0.237 A 
HETATM    4  N3  UNL     1      26.703   6.510  48.396  1.00  0.00    -0.223 NA
HETATM    5  C3  UNL     1      25.525   5.993  48.696  1.00  0.00     0.146 A 
HETATM    6  C4  UNL     1      25.500   4.682  49.112  1.00  0.00     0.068 A 
HETATM    7  C5  UNL     1      24.223   4.262  49.398  1.00  0.00     0.009 A 
HETATM    8  C17 UNL     1      23.441   5.400  49.136  1.00  0.00     0.106 A 
HETATM    9  N4  UNL     1      24.244   6.397  48.725  1.00  0.00    -0.335 N 
ENDROOT
BRANCH   7  10
HETATM   10  C6  UNL     1      23.546   3.047  49.829  1.00  0.00    -0.011 C 
HETATM   11  C14 UNL     1      22.717   2.317  49.054  1.00  0.00    -0.025 A 
HETATM   12  C15 UNL     1      21.807   1.335  48.515  1.00  0.00     0.013 A 
HETATM   13  C16 UNL     1      22.181   2.339  47.691  1.00  0.00     0.013 A 
BRANCH  10  14
HETATM   14  C7  UNL     1      23.688   2.411  51.132  1.00  0.00     0.037 C 
HETATM   15  C8  UNL     1      24.244   1.683  52.082  1.00  0.00     0.135 C 
BRANCH  15  16
HETATM   16  O1  UNL     1      24.349   1.087  53.340  1.00  0.00    -0.360 OA
BRANCH  16  17
HETATM   17  C9  UNL     1      24.398  -0.334  53.308  1.00  0.00     0.206 C 
BRANCH  17  18
HETATM   18  C10 UNL     1      25.723  -0.864  53.732  1.00  0.00     0.145 C 
HETATM   19  C11 UNL     1      26.716  -0.819  52.591  1.00  0.00     0.036 C 
HETATM   20  C12 UNL     1      28.023  -0.706  53.352  1.00  0.00     0.029 C 
HETATM   21  C13 UNL     1      27.583   0.132  54.531  1.00  0.00     0.168 C 
HETATM   22  O2  UNL     1      26.298  -0.247  54.805  1.00  0.00    -0.384 OA
ENDBRANCH  17  18
ENDBRANCH  16  17
ENDBRANCH  15  16
ENDBRANCH  10  14
ENDBRANCH   7  10
BRANCH   1  23
HETATM   23  N1  UNL     1      26.632   2.570  49.670  1.00  0.00    -0.383 N 
HETATM   24  H1  UNL     1      27.093   2.220  50.541  1.00  0.00     0.157 HD
HETATM   25  H2  UNL     1      26.157   1.811  49.141  1.00  0.00     0.157 HD
ENDBRANCH   1  23
BRANCH   9  26
HETATM   26  C18 UNL     1      23.744   7.698  48.386  1.00  0.00     0.092 C 
HETATM   27  C19 UNL     1      24.085   8.787  49.381  1.00  0.00     0.032 C 
HETATM   28  C20 UNL     1      24.336   9.713  48.219  1.00  0.00     0.007 C 
HETATM   29  C25 UNL     1      24.436   8.467  47.326  1.00  0.00     0.032 C 
BRANCH  28  30
HETATM   30  C21 UNL     1      25.671  10.457  48.287  1.00  0.00     0.121 C 
HETATM   31  N5  UNL     1      25.516  11.784  48.016  1.00  0.00    -0.412 N 
HETATM   32  C22 UNL     1      26.420  12.822  47.953  1.00  0.00     0.118 A 
HETATM   33  C24 UNL     1      24.390  12.499  47.685  1.00  0.00     0.118 A 
HETATM   34  C23 UNL     1      25.279  13.747  47.487  1.00  0.00     0.039 A 
ENDBRANCH  28  30
ENDBRANCH   9  26
TORSDOF 8
ENDMDL
MODEL 9
REMARK VINA RESULT:      -8.1      3.877      6.476
REMARK  8 active torsions:
REMARK  status: ('A' for Active; 'I' for Inactive)
REMARK    1  A    between atoms: N1_1  and  C1_2 
REMARK    2  A    between atoms: C5_8  and  C6_9 
REMARK    3  A    between atoms: C6_9  and  C7_10 
REMARK    4  A    between atoms: C8_11  and  O1_12 
REMARK    5  A    between atoms: O1_12  and  C9_13 
REMARK    6  A    between atoms: C9_13  and  C10_14 
REMARK    7  A    between atoms: N4_23  and  C18_24 
REMARK    8  A    between atoms: C20_26  and  C21_27 
ROOT
HETATM    1  C1  UNL     1      24.078   7.374  47.055  1.00  0.00     0.137 A 
HETATM    2  N2  UNL     1      22.878   7.417  46.456  1.00  0.00    -0.224 NA
HETATM    3  C2  UNL     1      21.881   6.643  46.930  1.00  0.00     0.237 A 
HETATM    4  N3  UNL     1      22.037   5.825  47.981  1.00  0.00    -0.223 NA
HETATM    5  C3  UNL     1      23.199   5.748  48.603  1.00  0.00     0.146 A 
HETATM    6  C4  UNL     1      24.222   6.533  48.126  1.00  0.00     0.068 A 
HETATM    7  C5  UNL     1      25.375   6.369  48.856  1.00  0.00     0.009 A 
HETATM    8  C17 UNL     1      25.010   5.426  49.832  1.00  0.00     0.106 A 
HETATM    9  N4  UNL     1      23.721   5.085  49.649  1.00  0.00    -0.335 N 
ENDROOT
BRANCH   7  10
HETATM   10  C6  UNL     1      26.748   6.855  48.851  1.00  0.00    -0.011 C 
HETATM   11  C14 UNL     1      27.146   8.028  49.386  1.00  0.00    -0.025 A 
HETATM   12  C15 UNL     1      27.890   9.177  49.844  1.00  0.00     0.013 A 
HETATM   13  C16 UNL     1      26.562   9.169  50.095  1.00  0.00     0.013 A 
BRANCH  10  14
HETATM   14  C7  UNL     1      27.899   6.144  48.314  1.00  0.00     0.037 C 
HETATM   15  C8  UNL     1      29.026   5.456  48.327  1.00  0.00     0.135 C 
BRANCH  15  16
HETATM   16  O1  UNL     1      30.118   4.781  47.780  1.00  0.00    -0.360 OA
BRANCH  16  17
HETATM   17  C9  UNL     1      31.370   5.414  48.016  1.00  0.00     0.206 C 
BRANCH  17  18
HETATM   18  C10 UNL     1      32.499   4.443  48.041  1.00  0.00     0.145 C 
HETATM   19  C11 UNL     1      32.498   3.577  46.801  1.00  0.00     0.036 C 
HETATM   20  C12 UNL     1      33.970   3.233  46.689  1.00  0.00     0.029 C 
HETATM   21  C13 UNL     1      34.592   4.512  47.200  1.00  0.00     0.168 C 
HETATM   22  O2  UNL     1      33.747   4.983  48.167  1.00  0.00    -0.384 OA
ENDBRANCH  17  18
ENDBRANCH  16  17
ENDBRANCH  15  16
ENDBRANCH  10  14
ENDBRANCH   7  10
BRANCH   1  23
HETATM   23  N1  UNL     1      25.109   8.208  46.557  1.00  0.00    -0.383 N 
HETATM   24  H1  UNL     1      24.969   9.064  45.974  1.00  0.00     0.157 HD
HETATM   25  H2  UNL     1      26.114   8.018  46.747  1.00  0.00     0.157 HD
ENDBRANCH   1  23
BRANCH   9  26
HETATM   26  C18 UNL     1      23.048   4.142  50.495  1.00  0.00     0.092 C 
HETATM   27  C19 UNL     1      23.281   2.690  50.136  1.00  0.00     0.032 C 
HETATM   28  C20 UNL     1      23.372   2.383  51.608  1.00  0.00     0.007 C 
HETATM   29  C25 UNL     1      23.600   3.884  51.845  1.00  0.00     0.032 C 
BRANCH  28  30
HETATM   30  C21 UNL     1      24.604   1.566  52.004  1.00  0.00     0.121 C 
HETATM   31  N5  UNL     1      24.280   0.568  52.875  1.00  0.00    -0.412 N 
HETATM   32  C22 UNL     1      25.046  -0.393  53.498  1.00  0.00     0.118 A 
HETATM   33  C24 UNL     1      23.070   0.233  53.435  1.00  0.00     0.118 A 
HETATM   34  C23 UNL     1      23.793  -0.842  54.277  1.00  0.00     0.039 A 
ENDBRANCH  28  30
ENDBRANCH   9  26
TORSDOF 8
ENDMDL
