MODEL 1
REMARK VINA RESULT:      -6.9      0.000      0.000
REMARK  2 active torsions:
REMARK  status: ('A' for Active; 'I' for Inactive)
REMARK    1  A    between atoms: C2_2  and  O1_3 
REMARK    2  A    between atoms: O1_3  and  C3_4 
ROOT
HETATM    1  C3  UNL     1      25.677   2.421  52.002  1.00  0.00     0.067 C 
HETATM    2  C4  UNL     1      25.680   3.262  50.915  1.00  0.00     0.023 C 
HETATM    3  C5  UNL     1      24.814   4.275  50.400  1.00  0.00     0.133 C 
HETATM    4  N1  UNL     1      24.052   4.065  49.143  1.00  0.00    -0.248 NA
HETATM    5  C6  UNL     1      23.334   5.441  49.343  1.00  0.00     0.252 C 
HETATM    6  N2  UNL     1      22.442   5.287  50.419  1.00  0.00    -0.268 NA
HETATM    7  C7  UNL     1      21.770   5.686  51.329  1.00  0.00     0.227 C 
HETATM    8  N3  UNL     1      21.444   4.327  51.474  1.00  0.00    -0.256 NA
HETATM    9  C8  UNL     1      21.871   3.332  52.085  1.00  0.00     0.123 C 
HETATM   10  C9  UNL     1      22.172   1.811  52.747  1.00  0.00     0.174 C 
HETATM   11  O2  UNL     1      23.426   1.948  52.627  1.00  0.00    -0.373 OA
HETATM   12  C10 UNL     1      24.348   2.887  52.610  1.00  0.00     0.232 C 
HETATM   13  C11 UNL     1      22.159   0.879  51.377  1.00  0.00     0.072 C 
HETATM   14  C12 UNL     1      23.302   1.505  50.643  1.00  0.00     0.005 C 
HETATM   15  C13 UNL     1      23.090   2.680  50.354  1.00  0.00     0.010 C 
HETATM   16  S1  UNL     1      22.693   3.220  49.001  1.00  0.00    -0.152 SA
HETATM   17  C14 UNL     1      22.139   1.943  48.342  1.00  0.00     0.042 C 
HETATM   18  C15 UNL     1      21.148   1.062  49.155  1.00  0.00     0.010 C 
HETATM   19  C16 UNL     1      21.024   0.865  50.542  1.00  0.00    -0.073 C 
HETATM   20  C17 UNL     1      19.611   0.613  51.017  1.00  0.00     0.044 C 
HETATM   21  H18 UNL     1      21.516   4.004  48.920  1.00  0.00     0.106 HD
ENDROOT
BRANCH   1  22
HETATM   22  O1  UNL     1      26.541   1.445  52.475  1.00  0.00    -0.354 OA
BRANCH  22  23
HETATM   23  C2  UNL     1      26.583   0.127  52.059  1.00  0.00     0.171 C 
HETATM   24  C1  UNL     1      25.741  -0.711  53.038  1.00  0.00     0.034 C 
ENDBRANCH  22  23
ENDBRANCH   1  22
TORSDOF 2
ENDMDL
MODEL 2
REMARK VINA RESULT:      -6.8      1.165      1.376
REMARK  2 active torsions:
REMARK  status: ('A' for Active; 'I' for Inactive)
REMARK    1  A    between atoms: C2_2  and  O1_3 
REMARK    2  A    between atoms: O1_3  and  C3_4 
ROOT
HETATM    1  C3  UNL     1      24.443   0.858  52.650  1.00  0.00     0.067 C 
HETATM    2  C4  UNL     1      25.073   1.734  51.798  1.00  0.00     0.023 C 
HETATM    3  C5  UNL     1      24.813   3.047  51.301  1.00  0.00     0.133 C 
HETATM    4  N1  UNL     1      24.460   3.272  49.877  1.00  0.00    -0.248 NA
HETATM    5  C6  UNL     1      24.232   4.793  50.168  1.00  0.00     0.252 C 
HETATM    6  N2  UNL     1      23.052   4.893  50.927  1.00  0.00    -0.268 NA
HETATM    7  C7  UNL     1      22.308   5.431  51.699  1.00  0.00     0.227 C 
HETATM    8  N3  UNL     1      21.509   4.299  51.471  1.00  0.00    -0.256 NA
HETATM    9  C8  UNL     1      21.356   3.161  51.951  1.00  0.00     0.123 C 
HETATM   10  C9  UNL     1      20.895   1.586  52.338  1.00  0.00     0.174 C 
HETATM   11  O2  UNL     1      22.091   1.237  52.571  1.00  0.00    -0.373 OA
HETATM   12  C10 UNL     1      23.235   1.742  52.983  1.00  0.00     0.232 C 
HETATM   13  C11 UNL     1      20.994   0.870  50.847  1.00  0.00     0.072 C 
HETATM   14  C12 UNL     1      22.451   1.072  50.573  1.00  0.00     0.005 C 
HETATM   15  C13 UNL     1      22.755   2.258  50.490  1.00  0.00     0.010 C 
HETATM   16  S1  UNL     1      23.011   3.038  49.223  1.00  0.00    -0.152 SA
HETATM   17  C14 UNL     1      22.290   2.146  48.195  1.00  0.00     0.042 C 
HETATM   18  C15 UNL     1      20.856   1.644  48.529  1.00  0.00     0.010 C 
HETATM   19  C16 UNL     1      20.245   1.378  49.767  1.00  0.00    -0.073 C 
HETATM   20  C17 UNL     1      18.758   1.649  49.805  1.00  0.00     0.044 C 
HETATM   21  H18 UNL     1      22.261   4.221  49.010  1.00  0.00     0.106 HD
ENDROOT
BRANCH   1  22
HETATM   22  O1  UNL     1      24.727  -0.417  53.114  1.00  0.00    -0.354 OA
BRANCH  22  23
HETATM   23  C2  UNL     1      25.927  -0.835  53.658  1.00  0.00     0.171 C 
HETATM   24  C1  UNL     1      26.726  -1.556  52.557  1.00  0.00     0.034 C 
ENDBRANCH  22  23
ENDBRANCH   1  22
TORSDOF 2
ENDMDL
MODEL 3
REMARK VINA RESULT:      -6.3      1.679      4.071
REMARK  2 active torsions:
REMARK  status: ('A' for Active; 'I' for Inactive)
REMARK    1  A    between atoms: C2_2  and  O1_3 
REMARK    2  A    between atoms: O1_3  and  C3_4 
ROOT
HETATM    1  C3  UNL     1      24.887   2.026  52.875  1.00  0.00     0.067 C 
HETATM    2  C4  UNL     1      23.526   1.907  53.028  1.00  0.00     0.023 C 
HETATM    3  C5  UNL     1      22.404   1.770  52.155  1.00  0.00     0.133 C 
HETATM    4  N1  UNL     1      21.417   2.868  51.998  1.00  0.00    -0.248 NA
HETATM    5  C6  UNL     1      20.674   2.049  50.890  1.00  0.00     0.252 C 
HETATM    6  N2  UNL     1      21.504   2.048  49.754  1.00  0.00    -0.268 NA
HETATM    7  C7  UNL     1      21.907   1.610  48.713  1.00  0.00     0.227 C 
HETATM    8  N3  UNL     1      22.771   2.716  48.766  1.00  0.00    -0.256 NA
HETATM    9  C8  UNL     1      23.901   2.988  49.211  1.00  0.00     0.123 C 
HETATM   10  C9  UNL     1      25.360   3.692  49.678  1.00  0.00     0.174 C 
HETATM   11  O2  UNL     1      25.355   3.088  50.792  1.00  0.00    -0.373 OA
HETATM   12  C10 UNL     1      24.919   1.974  51.342  1.00  0.00     0.232 C 
HETATM   13  C11 UNL     1      24.806   5.058  50.436  1.00  0.00     0.072 C 
HETATM   14  C12 UNL     1      24.009   4.425  51.532  1.00  0.00     0.005 C 
HETATM   15  C13 UNL     1      23.063   3.767  51.109  1.00  0.00     0.010 C 
HETATM   16  S1  UNL     1      21.611   4.180  51.092  1.00  0.00    -0.152 SA
HETATM   17  C14 UNL     1      21.754   5.709  51.212  1.00  0.00     0.042 C 
HETATM   18  C15 UNL     1      22.783   6.429  50.295  1.00  0.00     0.010 C 
HETATM   19  C16 UNL     1      23.992   5.972  49.739  1.00  0.00    -0.073 C 
HETATM   20  C17 UNL     1      24.325   6.564  48.388  1.00  0.00     0.044 C 
HETATM   21  H18 UNL     1      20.927   4.148  49.852  1.00  0.00     0.106 HD
ENDROOT
BRANCH   1  22
HETATM   22  O1  UNL     1      25.954   2.156  53.751  1.00  0.00    -0.354 OA
BRANCH  22  23
HETATM   23  C2  UNL     1      27.116   1.409  53.731  1.00  0.00     0.171 C 
HETATM   24  C1  UNL     1      28.297   2.366  53.485  1.00  0.00     0.034 C 
ENDBRANCH  22  23
ENDBRANCH   1  22
TORSDOF 2
ENDMDL
MODEL 4
REMARK VINA RESULT:      -6.3      2.025      4.347
REMARK  2 active torsions:
REMARK  status: ('A' for Active; 'I' for Inactive)
REMARK    1  A    between atoms: C2_2  and  O1_3 
REMARK    2  A    between atoms: O1_3  and  C3_4 
ROOT
HETATM    1  C3  UNL     1      21.337   0.423  53.689  1.00  0.00     0.067 C 
HETATM    2  C4  UNL     1      20.248   1.207  53.392  1.00  0.00     0.023 C 
HETATM    3  C5  UNL     1      19.701   1.798  52.212  1.00  0.00     0.133 C 
HETATM    4  N1  UNL     1      19.725   3.269  52.010  1.00  0.00    -0.248 NA
HETATM    5  C6  UNL     1      19.122   3.087  50.577  1.00  0.00     0.252 C 
HETATM    6  N2  UNL     1      20.132   2.524  49.775  1.00  0.00    -0.268 NA
HETATM    7  C7  UNL     1      20.542   1.902  48.835  1.00  0.00     0.227 C 
HETATM    8  N3  UNL     1      21.797   2.198  49.391  1.00  0.00    -0.256 NA
HETATM    9  C8  UNL     1      22.592   1.695  50.206  1.00  0.00     0.123 C 
HETATM   10  C9  UNL     1      23.869   1.312  51.237  1.00  0.00     0.174 C 
HETATM   11  O2  UNL     1      23.086   0.881  52.135  1.00  0.00    -0.373 OA
HETATM   12  C10 UNL     1      21.902   0.321  52.266  1.00  0.00     0.232 C 
HETATM   13  C11 UNL     1      24.018   2.735  52.072  1.00  0.00     0.072 C 
HETATM   14  C12 UNL     1      22.665   2.790  52.708  1.00  0.00     0.005 C 
HETATM   15  C13 UNL     1      21.760   2.880  51.883  1.00  0.00     0.010 C 
HETATM   16  S1  UNL     1      20.991   4.127  51.519  1.00  0.00    -0.152 SA
HETATM   17  C14 UNL     1      21.968   5.212  52.011  1.00  0.00     0.042 C 
HETATM   18  C15 UNL     1      23.471   5.080  51.632  1.00  0.00     0.010 C 
HETATM   19  C16 UNL     1      24.255   3.939  51.381  1.00  0.00    -0.073 C 
HETATM   20  C17 UNL     1      25.352   4.144  50.361  1.00  0.00     0.044 C 
HETATM   21  H18 UNL     1      20.954   4.507  50.155  1.00  0.00     0.106 HD
ENDROOT
BRANCH   1  22
HETATM   22  O1  UNL     1      21.840  -0.138  54.853  1.00  0.00    -0.354 OA
BRANCH  22  23
HETATM   23  C2  UNL     1      22.516  -1.340  54.949  1.00  0.00     0.171 C 
HETATM   24  C1  UNL     1      24.025  -1.038  54.990  1.00  0.00     0.034 C 
ENDBRANCH  22  23
ENDBRANCH   1  22
TORSDOF 2
ENDMDL
MODEL 5
REMARK VINA RESULT:      -6.2      9.440     12.044
REMARK  2 active torsions:
REMARK  status: ('A' for Active; 'I' for Inactive)
REMARK    1  A    between atoms: C2_2  and  O1_3 
REMARK    2  A    between atoms: O1_3  and  C3_4 
ROOT
HETATM    1  C3  UNL     1      30.500   6.723  48.481  1.00  0.00     0.067 C 
HETATM    2  C4  UNL     1      30.968   5.464  48.194  1.00  0.00     0.023 C 
HETATM    3  C5  UNL     1      32.238   4.810  48.222  1.00  0.00     0.133 C 
HETATM    4  N1  UNL     1      32.921   4.407  46.967  1.00  0.00    -0.248 NA
HETATM    5  C6  UNL     1      34.167   3.938  47.789  1.00  0.00     0.252 C 
HETATM    6  N2  UNL     1      34.801   5.097  48.273  1.00  0.00    -0.268 NA
HETATM    7  C7  UNL     1      35.504   5.707  49.029  1.00  0.00     0.227 C 
HETATM    8  N3  UNL     1      35.164   6.798  48.213  1.00  0.00    -0.256 NA
HETATM    9  C8  UNL     1      34.283   7.675  48.158  1.00  0.00     0.123 C 
HETATM   10  C9  UNL     1      33.271   8.970  47.783  1.00  0.00     0.174 C 
HETATM   11  O2  UNL     1      32.231   8.316  48.091  1.00  0.00    -0.373 OA
HETATM   12  C10 UNL     1      31.841   7.345  48.890  1.00  0.00     0.232 C 
HETATM   13  C11 UNL     1      32.971   8.662  46.182  1.00  0.00     0.072 C 
HETATM   14  C12 UNL     1      32.301   7.331  46.309  1.00  0.00     0.005 C 
HETATM   15  C13 UNL     1      33.046   6.470  46.769  1.00  0.00     0.010 C 
HETATM   16  S1  UNL     1      33.754   5.382  45.999  1.00  0.00    -0.152 SA
HETATM   17  C14 UNL     1      33.718   5.977  44.578  1.00  0.00     0.042 C 
HETATM   18  C15 UNL     1      34.131   7.465  44.390  1.00  0.00     0.010 C 
HETATM   19  C16 UNL     1      34.039   8.559  45.269  1.00  0.00    -0.073 C 
HETATM   20  C17 UNL     1      35.139   9.584  45.114  1.00  0.00     0.044 C 
HETATM   21  H18 UNL     1      35.161   5.284  46.131  1.00  0.00     0.106 HD
ENDROOT
BRANCH   1  22
HETATM   22  O1  UNL     1      29.252   7.326  48.443  1.00  0.00    -0.354 OA
BRANCH  22  23
HETATM   23  C2  UNL     1      28.178   6.921  47.673  1.00  0.00     0.171 C 
HETATM   24  C1  UNL     1      27.310   5.975  48.521  1.00  0.00     0.034 C 
ENDBRANCH  22  23
ENDBRANCH   1  22
TORSDOF 2
ENDMDL
MODEL 6
REMARK VINA RESULT:      -6.2      1.967      4.373
REMARK  2 active torsions:
REMARK  status: ('A' for Active; 'I' for Inactive)
REMARK    1  A    between atoms: C2_2  and  O1_3 
REMARK    2  A    between atoms: O1_3  and  C3_4 
ROOT
HETATM    1  C3  UNL     1      22.657   2.394  52.145  1.00  0.00     0.067 C 
HETATM    2  C4  UNL     1      21.695   3.375  52.176  1.00  0.00     0.023 C 
HETATM    3  C5  UNL     1      21.070   4.230  51.218  1.00  0.00     0.133 C 
HETATM    4  N1  UNL     1      21.327   5.692  51.212  1.00  0.00    -0.248 NA
HETATM    5  C6  UNL     1      20.464   5.844  49.915  1.00  0.00     0.252 C 
HETATM    6  N2  UNL     1      21.200   5.272  48.862  1.00  0.00    -0.268 NA
HETATM    7  C7  UNL     1      21.321   4.757  47.785  1.00  0.00     0.227 C 
HETATM    8  N3  UNL     1      22.686   4.759  48.116  1.00  0.00    -0.256 NA
HETATM    9  C8  UNL     1      23.503   4.012  48.683  1.00  0.00     0.123 C 
HETATM   10  C9  UNL     1      24.848   3.272  49.380  1.00  0.00     0.174 C 
HETATM   11  O2  UNL     1      24.165   2.826  50.350  1.00  0.00    -0.373 OA
HETATM   12  C10 UNL     1      22.939   2.442  50.638  1.00  0.00     0.232 C 
HETATM   13  C11 UNL     1      25.396   4.498  50.351  1.00  0.00     0.072 C 
HETATM   14  C12 UNL     1      24.206   4.655  51.244  1.00  0.00     0.005 C 
HETATM   15  C13 UNL     1      23.204   5.019  50.634  1.00  0.00     0.010 C 
HETATM   16  S1  UNL     1      22.625   6.413  50.598  1.00  0.00    -0.152 SA
HETATM   17  C14 UNL     1      23.854   7.237  51.026  1.00  0.00     0.042 C 
HETATM   18  C15 UNL     1      25.219   6.939  50.343  1.00  0.00     0.010 C 
HETATM   19  C16 UNL     1      25.726   5.748  49.793  1.00  0.00    -0.073 C 
HETATM   20  C17 UNL     1      26.650   5.945  48.612  1.00  0.00     0.044 C 
HETATM   21  H18 UNL     1      22.423   7.014  49.331  1.00  0.00     0.106 HD
ENDROOT
BRANCH   1  22
HETATM   22  O1  UNL     1      23.242   1.578  53.102  1.00  0.00    -0.354 OA
BRANCH  22  23
HETATM   23  C2  UNL     1      23.690   0.285  52.902  1.00  0.00     0.171 C 
HETATM   24  C1  UNL     1      25.214   0.335  52.692  1.00  0.00     0.034 C 
ENDBRANCH  22  23
ENDBRANCH   1  22
TORSDOF 2
ENDMDL
MODEL 7
REMARK VINA RESULT:      -5.9      9.025     10.534
REMARK  2 active torsions:
REMARK  status: ('A' for Active; 'I' for Inactive)
REMARK    1  A    between atoms: C2_2  and  O1_3 
REMARK    2  A    between atoms: O1_3  and  C3_4 
ROOT
HETATM    1  C3  UNL     1      32.869   7.080  48.558  1.00  0.00     0.067 C 
HETATM    2  C4  UNL     1      33.442   8.039  47.758  1.00  0.00     0.023 C 
HETATM    3  C5  UNL     1      33.196   9.416  47.471  1.00  0.00     0.133 C 
HETATM    4  N1  UNL     1      32.696   9.844  46.140  1.00  0.00    -0.248 NA
HETATM    5  C6  UNL     1      32.580  11.318  46.651  1.00  0.00     0.252 C 
HETATM    6  N2  UNL     1      31.500  11.357  47.552  1.00  0.00    -0.268 NA
HETATM    7  C7  UNL     1      30.876  11.812  48.470  1.00  0.00     0.227 C 
HETATM    8  N3  UNL     1      30.001  10.750  48.193  1.00  0.00    -0.256 NA
HETATM    9  C8  UNL     1      29.844   9.564  48.536  1.00  0.00     0.123 C 
HETATM   10  C9  UNL     1      29.350   7.969  48.767  1.00  0.00     0.174 C 
HETATM   11  O2  UNL     1      30.545   7.549  48.809  1.00  0.00    -0.373 OA
HETATM   12  C10 UNL     1      31.752   7.953  49.145  1.00  0.00     0.232 C 
HETATM   13  C11 UNL     1      29.243   7.458  47.194  1.00  0.00     0.072 C 
HETATM   14  C12 UNL     1      30.668   7.642  46.778  1.00  0.00     0.005 C 
HETATM   15  C13 UNL     1      31.021   8.818  46.814  1.00  0.00     0.010 C 
HETATM   16  S1  UNL     1      31.172   9.752  45.638  1.00  0.00    -0.152 SA
HETATM   17  C14 UNL     1      30.295   9.033  44.595  1.00  0.00     0.042 C 
HETATM   18  C15 UNL     1      28.884   8.543  45.029  1.00  0.00     0.010 C 
HETATM   19  C16 UNL     1      28.404   8.133  46.286  1.00  0.00    -0.073 C 
HETATM   20  C17 UNL     1      26.947   8.450  46.536  1.00  0.00     0.044 C 
HETATM   21  H18 UNL     1      30.465  10.979  45.671  1.00  0.00     0.106 HD
ENDROOT
BRANCH   1  22
HETATM   22  O1  UNL     1      33.137   5.744  48.815  1.00  0.00    -0.354 OA
BRANCH  22  23
HETATM   23  C2  UNL     1      33.269   4.745  47.868  1.00  0.00     0.171 C 
HETATM   24  C1  UNL     1      31.858   4.299  47.444  1.00  0.00     0.034 C 
ENDBRANCH  22  23
ENDBRANCH   1  22
TORSDOF 2
ENDMDL
MODEL 8
REMARK VINA RESULT:      -5.9      9.649     11.989
REMARK  2 active torsions:
REMARK  status: ('A' for Active; 'I' for Inactive)
REMARK    1  A    between atoms: C2_2  and  O1_3 
REMARK    2  A    between atoms: O1_3  and  C3_4 
ROOT
HETATM    1  C3  UNL     1      30.591   7.339  47.964  1.00  0.00     0.067 C 
HETATM    2  C4  UNL     1      31.671   7.457  48.805  1.00  0.00     0.023 C 
HETATM    3  C5  UNL     1      33.010   7.940  48.693  1.00  0.00     0.133 C 
HETATM    4  N1  UNL     1      34.168   7.012  48.749  1.00  0.00    -0.248 NA
HETATM    5  C6  UNL     1      35.141   8.200  48.448  1.00  0.00     0.252 C 
HETATM    6  N2  UNL     1      34.943   8.563  47.103  1.00  0.00    -0.268 NA
HETATM    7  C7  UNL     1      34.978   9.320  46.174  1.00  0.00     0.227 C 
HETATM    8  N3  UNL     1      34.441   8.229  45.471  1.00  0.00    -0.256 NA
HETATM    9  C8  UNL     1      33.320   7.769  45.191  1.00  0.00     0.123 C 
HETATM   10  C9  UNL     1      31.995   6.883  44.642  1.00  0.00     0.174 C 
HETATM   11  O2  UNL     1      31.362   7.057  45.726  1.00  0.00    -0.373 OA
HETATM   12  C10 UNL     1      31.252   7.924  46.710  1.00  0.00     0.232 C 
HETATM   13  C11 UNL     1      32.417   5.363  45.151  1.00  0.00     0.072 C 
HETATM   14  C12 UNL     1      32.471   5.605  46.627  1.00  0.00     0.005 C 
HETATM   15  C13 UNL     1      33.342   6.411  46.941  1.00  0.00     0.010 C 
HETATM   16  S1  UNL     1      34.692   6.094  47.539  1.00  0.00    -0.152 SA
HETATM   17  C14 UNL     1      34.838   4.616  47.132  1.00  0.00     0.042 C 
HETATM   18  C15 UNL     1      34.520   4.219  45.662  1.00  0.00     0.010 C 
HETATM   19  C16 UNL     1      33.633   4.789  44.731  1.00  0.00    -0.073 C 
HETATM   20  C17 UNL     1      34.087   4.695  43.292  1.00  0.00     0.044 C 
HETATM   21  H18 UNL     1      35.842   6.590  46.877  1.00  0.00     0.106 HD
ENDROOT
BRANCH   1  22
HETATM   22  O1  UNL     1      29.297   6.863  48.108  1.00  0.00    -0.354 OA
BRANCH  22  23
HETATM   23  C2  UNL     1      28.928   5.535  48.227  1.00  0.00     0.171 C 
HETATM   24  C1  UNL     1      27.429   5.484  48.573  1.00  0.00     0.034 C 
ENDBRANCH  22  23
ENDBRANCH   1  22
TORSDOF 2
ENDMDL
MODEL 9
REMARK VINA RESULT:      -5.8      8.937     11.434
REMARK  2 active torsions:
REMARK  status: ('A' for Active; 'I' for Inactive)
REMARK    1  A    between atoms: C2_2  and  O1_3 
REMARK    2  A    between atoms: O1_3  and  C3_4 
ROOT
HETATM    1  C3  UNL     1      32.307   6.055  48.323  1.00  0.00     0.067 C 
HETATM    2  C4  UNL     1      31.072   6.336  48.857  1.00  0.00     0.023 C 
HETATM    3  C5  UNL     1      29.850   6.898  48.376  1.00  0.00     0.133 C 
HETATM    4  N1  UNL     1      29.389   8.233  48.832  1.00  0.00    -0.248 NA
HETATM    5  C6  UNL     1      28.182   8.161  47.838  1.00  0.00     0.252 C 
HETATM    6  N2  UNL     1      28.709   8.305  46.542  1.00  0.00    -0.268 NA
HETATM    7  C7  UNL     1      28.693   8.171  45.350  1.00  0.00     0.227 C 
HETATM    8  N3  UNL     1      29.927   8.837  45.419  1.00  0.00    -0.256 NA
HETATM    9  C8  UNL     1      31.131   8.547  45.543  1.00  0.00     0.123 C 
HETATM   10  C9  UNL     1      32.810   8.519  45.697  1.00  0.00     0.174 C 
HETATM   11  O2  UNL     1      32.768   7.588  46.556  1.00  0.00    -0.373 OA
HETATM   12  C10 UNL     1      32.026   6.556  46.901  1.00  0.00     0.232 C 
HETATM   13  C11 UNL     1      33.017   9.616  46.922  1.00  0.00     0.072 C 
HETATM   14  C12 UNL     1      32.253   8.923  48.006  1.00  0.00     0.005 C 
HETATM   15  C13 UNL     1      31.060   8.809  47.742  1.00  0.00     0.010 C 
HETATM   16  S1  UNL     1      29.930   9.646  48.291  1.00  0.00    -0.152 SA
HETATM   17  C14 UNL     1      30.706  10.891  48.759  1.00  0.00     0.042 C 
HETATM   18  C15 UNL     1      31.747  11.520  47.789  1.00  0.00     0.010 C 
HETATM   19  C16 UNL     1      32.533  10.931  46.782  1.00  0.00    -0.073 C 
HETATM   20  C17 UNL     1      32.819  11.832  45.602  1.00  0.00     0.044 C 
HETATM   21  H18 UNL     1      29.073  10.291  47.365  1.00  0.00     0.106 HD
ENDROOT
BRANCH   1  22
HETATM   22  O1  UNL     1      33.478   5.504  48.822  1.00  0.00    -0.354 OA
BRANCH  22  23
HETATM   23  C2  UNL     1      34.705   5.490  48.185  1.00  0.00     0.171 C 
HETATM   24  C1  UNL     1      35.464   6.769  48.580  1.00  0.00     0.034 C 
ENDBRANCH  22  23
ENDBRANCH   1  22
TORSDOF 2
ENDMDL
