MODEL 1
REMARK VINA RESULT:      -7.1      0.000      0.000
REMARK  8 active torsions:
REMARK  status: ('A' for Active; 'I' for Inactive)
REMARK    1  A    between atoms: N1_2  and  C2_3 
REMARK    2  A    between atoms: N2_8  and  C6_9 
REMARK    3  A    between atoms: C6_9  and  C7_10 
REMARK    4  A    between atoms: C7_10  and  C8_11 
REMARK    5  A    between atoms: C8_11  and  O2_12 
REMARK    6  A    between atoms: O2_12  and  C9_13 
REMARK    7  A    between atoms: C11_15  and  C12_16 
REMARK    8  A    between atoms: C20_27  and  O3_28 
ROOT
HETATM    1  C9  UNL     1      22.516   1.625  52.595  1.00  0.00     0.100 C 
HETATM    2  C10 UNL     1      22.271   2.772  51.985  1.00  0.00     0.038 C 
HETATM    3  C11 UNL     1      20.975   2.684  51.363  1.00  0.00     0.082 A 
HETATM    4  C15 UNL     1      20.142   3.833  51.084  1.00  0.00     0.062 A 
HETATM    5  C16 UNL     1      20.619   5.093  50.625  1.00  0.00     0.098 C 
HETATM    6  N3  UNL     1      21.024   6.120  50.259  1.00  0.00    -0.192 NA
HETATM    7  C17 UNL     1      18.872   3.470  51.340  1.00  0.00     0.137 A 
HETATM    8  N4  UNL     1      18.824   2.103  51.804  1.00  0.00    -0.262 NA
HETATM    9  C18 UNL     1      20.062   1.648  51.828  1.00  0.00     0.058 A 
HETATM   10  C19 UNL     1      20.460   0.401  52.412  1.00  0.00     0.068 C 
HETATM   11  C20 UNL     1      21.745   0.412  52.835  1.00  0.00     0.103 C 
ENDROOT
BRANCH   3  12
HETATM   12  C12 UNL     1      21.308   2.238  49.847  1.00  0.00     0.018 C 
HETATM   13  C13 UNL     1      22.327   2.577  49.063  1.00  0.00     0.006 C 
HETATM   14  C14 UNL     1      22.507   2.079  47.662  1.00  0.00     0.061 C 
HETATM   15 CL1  UNL     1      23.718   3.617  49.291  1.00  0.00    -0.090 Cl
ENDBRANCH   3  12
BRANCH   1  16
HETATM   16  O2  UNL     1      23.782   1.585  53.192  1.00  0.00    -0.348 OA
BRANCH  16  17
HETATM   17  C8  UNL     1      24.728   2.620  53.102  1.00  0.00     0.177 C 
BRANCH  17  18
HETATM   18  C7  UNL     1      25.814   2.297  52.102  1.00  0.00     0.057 C 
BRANCH  18  19
HETATM   19  C6  UNL     1      26.027   0.808  51.962  1.00  0.00     0.277 C 
BRANCH  19  20
HETATM   20  N2  UNL     1      27.240   0.349  52.557  1.00  0.00     0.126 N 
HETATM   21  C2  UNL     1      26.920  -0.438  53.725  1.00  0.00     0.476 C 
HETATM   22  C3  UNL     1      27.145   0.290  55.024  1.00  0.00     0.236 C 
HETATM   23  O1  UNL     1      28.414   0.793  55.185  1.00  0.00    -0.385 OA
HETATM   24  C4  UNL     1      29.114   0.919  53.996  1.00  0.00     0.198 C 
HETATM   25  C5  UNL     1      28.200   1.384  52.861  1.00  0.00     0.301 C 
BRANCH  21  26
HETATM   26  N1  UNL     1      25.502  -0.836  53.734  1.00  0.00     0.115 N 
HETATM   27  C1  UNL     1      25.080  -0.998  55.128  1.00  0.00     0.309 C 
HETATM   28  H4  UNL     1      24.912  -0.020  53.393  1.00  0.00     0.318 HD
ENDBRANCH  21  26
ENDBRANCH  19  20
ENDBRANCH  18  19
ENDBRANCH  17  18
ENDBRANCH  16  17
ENDBRANCH   1  16
BRANCH  11  29
HETATM   29  O3  UNL     1      22.289  -0.694  53.470  1.00  0.00    -0.353 OA
HETATM   30  C21 UNL     1      21.529  -1.419  54.415  1.00  0.00     0.210 C 
ENDBRANCH  11  29
TORSDOF 8
ENDMDL
MODEL 2
REMARK VINA RESULT:      -6.8      1.323      2.012
REMARK  8 active torsions:
REMARK  status: ('A' for Active; 'I' for Inactive)
REMARK    1  A    between atoms: N1_2  and  C2_3 
REMARK    2  A    between atoms: N2_8  and  C6_9 
REMARK    3  A    between atoms: C6_9  and  C7_10 
REMARK    4  A    between atoms: C7_10  and  C8_11 
REMARK    5  A    between atoms: C8_11  and  O2_12 
REMARK    6  A    between atoms: O2_12  and  C9_13 
REMARK    7  A    between atoms: C11_15  and  C12_16 
REMARK    8  A    between atoms: C20_27  and  O3_28 
ROOT
HETATM    1  C9  UNL     1      22.808   1.471  52.881  1.00  0.00     0.100 C 
HETATM    2  C10 UNL     1      22.018   2.351  52.292  1.00  0.00     0.038 C 
HETATM    3  C11 UNL     1      20.880   1.649  51.756  1.00  0.00     0.082 A 
HETATM    4  C15 UNL     1      19.591   2.266  51.535  1.00  0.00     0.062 A 
HETATM    5  C16 UNL     1      19.393   3.588  51.049  1.00  0.00     0.098 C 
HETATM    6  N3  UNL     1      19.246   4.674  50.659  1.00  0.00    -0.192 NA
HETATM    7  C17 UNL     1      18.658   1.357  51.874  1.00  0.00     0.137 A 
HETATM    8  N4  UNL     1      19.284   0.141  52.336  1.00  0.00    -0.262 NA
HETATM    9  C18 UNL     1      20.590   0.320  52.278  1.00  0.00     0.058 A 
HETATM   10  C19 UNL     1      21.561  -0.578  52.831  1.00  0.00     0.068 C 
HETATM   11  C20 UNL     1      22.712   0.046  53.170  1.00  0.00     0.103 C 
ENDROOT
BRANCH   3  12
HETATM   12  C12 UNL     1      21.294   1.368  50.221  1.00  0.00     0.018 C 
HETATM   13  C13 UNL     1      21.992   2.118  49.374  1.00  0.00     0.006 C 
HETATM   14  C14 UNL     1      22.301   1.722  47.963  1.00  0.00     0.061 C 
HETATM   15 CL1  UNL     1      22.754   3.689  49.517  1.00  0.00    -0.090 Cl
ENDBRANCH   3  12
BRANCH   1  16
HETATM   16  O2  UNL     1      23.978   2.046  53.394  1.00  0.00    -0.348 OA
BRANCH  16  17
HETATM   17  C8  UNL     1      24.791   2.943  52.682  1.00  0.00     0.177 C 
BRANCH  17  18
HETATM   18  C7  UNL     1      25.526   2.256  51.555  1.00  0.00     0.057 C 
BRANCH  18  19
HETATM   19  C6  UNL     1      26.835   1.660  52.015  1.00  0.00     0.277 C 
BRANCH  19  20
HETATM   20  N2  UNL     1      26.679   0.459  52.770  1.00  0.00     0.126 N 
HETATM   21  C2  UNL     1      27.569   0.500  53.906  1.00  0.00     0.476 C 
HETATM   22  C3  UNL     1      28.798  -0.355  53.742  1.00  0.00     0.236 C 
HETATM   23  O1  UNL     1      28.542  -1.674  53.450  1.00  0.00    -0.385 OA
HETATM   24  C4  UNL     1      27.269  -1.892  52.950  1.00  0.00     0.198 C 
HETATM   25  C5  UNL     1      26.840  -0.761  52.013  1.00  0.00     0.301 C 
BRANCH  21  26
HETATM   26  N1  UNL     1      28.066   1.865  54.151  1.00  0.00     0.115 N 
HETATM   27  C1  UNL     1      29.460   1.773  54.595  1.00  0.00     0.309 C 
HETATM   28  H4  UNL     1      28.139   2.378  53.223  1.00  0.00     0.318 HD
ENDBRANCH  21  26
ENDBRANCH  19  20
ENDBRANCH  18  19
ENDBRANCH  17  18
ENDBRANCH  16  17
ENDBRANCH   1  16
BRANCH  11  29
HETATM   29  O3  UNL     1      23.747  -0.658  53.765  1.00  0.00    -0.353 OA
HETATM   30  C21 UNL     1      23.626  -1.116  55.095  1.00  0.00     0.210 C 
ENDBRANCH  11  29
TORSDOF 8
ENDMDL
MODEL 3
REMARK VINA RESULT:      -6.5      3.217      5.292
REMARK  8 active torsions:
REMARK  status: ('A' for Active; 'I' for Inactive)
REMARK    1  A    between atoms: N1_2  and  C2_3 
REMARK    2  A    between atoms: N2_8  and  C6_9 
REMARK    3  A    between atoms: C6_9  and  C7_10 
REMARK    4  A    between atoms: C7_10  and  C8_11 
REMARK    5  A    between atoms: C8_11  and  O2_12 
REMARK    6  A    between atoms: O2_12  and  C9_13 
REMARK    7  A    between atoms: C11_15  and  C12_16 
REMARK    8  A    between atoms: C20_27  and  O3_28 
ROOT
HETATM    1  C9  UNL     1      24.402   1.741  52.619  1.00  0.00     0.100 C 
HETATM    2  C10 UNL     1      23.203   2.268  52.444  1.00  0.00     0.038 C 
HETATM    3  C11 UNL     1      22.226   1.219  52.581  1.00  0.00     0.082 A 
HETATM    4  C15 UNL     1      20.857   1.449  52.988  1.00  0.00     0.062 A 
HETATM    5  C16 UNL     1      20.063   2.559  52.584  1.00  0.00     0.098 C 
HETATM    6  N3  UNL     1      19.428   3.476  52.253  1.00  0.00    -0.192 NA
HETATM    7  C17 UNL     1      20.511   0.430  53.796  1.00  0.00     0.137 A 
HETATM    8  N4  UNL     1      21.619  -0.480  53.961  1.00  0.00    -0.262 NA
HETATM    9  C18 UNL     1      22.629  -0.008  53.257  1.00  0.00     0.058 A 
HETATM   10  C19 UNL     1      23.969  -0.515  53.312  1.00  0.00     0.068 C 
HETATM   11  C20 UNL     1      24.892   0.423  53.002  1.00  0.00     0.103 C 
ENDROOT
BRANCH   3  12
HETATM   12  C12 UNL     1      21.962   0.742  51.061  1.00  0.00     0.018 C 
HETATM   13  C13 UNL     1      21.812   1.463  49.955  1.00  0.00     0.006 C 
HETATM   14  C14 UNL     1      21.570   0.875  48.599  1.00  0.00     0.061 C 
HETATM   15 CL1  UNL     1      21.827   3.186  49.639  1.00  0.00    -0.090 Cl
ENDBRANCH   3  12
BRANCH   1  16
HETATM   16  O2  UNL     1      25.436   2.672  52.454  1.00  0.00    -0.348 OA
BRANCH  16  17
HETATM   17  C8  UNL     1      26.226   2.772  51.296  1.00  0.00     0.177 C 
BRANCH  17  18
HETATM   18  C7  UNL     1      25.455   3.374  50.145  1.00  0.00     0.057 C 
BRANCH  18  19
HETATM   19  C6  UNL     1      24.920   4.747  50.480  1.00  0.00     0.277 C 
BRANCH  19  20
HETATM   20  N2  UNL     1      25.796   5.806  50.100  1.00  0.00     0.126 N 
HETATM   21  C2  UNL     1      25.133   7.068  50.328  1.00  0.00     0.476 C 
HETATM   22  C3  UNL     1      24.615   7.715  49.070  1.00  0.00     0.236 C 
HETATM   23  O1  UNL     1      25.563   7.905  48.093  1.00  0.00    -0.385 OA
HETATM   24  C4  UNL     1      26.687   7.111  48.253  1.00  0.00     0.198 C 
HETATM   25  C5  UNL     1      26.314   5.715  48.754  1.00  0.00     0.301 C 
BRANCH  21  26
HETATM   26  N1  UNL     1      23.959   6.908  51.203  1.00  0.00     0.115 N 
HETATM   27  C1  UNL     1      22.849   7.674  50.628  1.00  0.00     0.309 C 
HETATM   28  H4  UNL     1      23.618   5.903  51.144  1.00  0.00     0.318 HD
ENDBRANCH  21  26
ENDBRANCH  19  20
ENDBRANCH  18  19
ENDBRANCH  17  18
ENDBRANCH  16  17
ENDBRANCH   1  16
BRANCH  11  29
HETATM   29  O3  UNL     1      26.245   0.125  53.050  1.00  0.00    -0.353 OA
HETATM   30  C21 UNL     1      26.740  -1.046  52.432  1.00  0.00     0.210 C 
ENDBRANCH  11  29
TORSDOF 8
ENDMDL
MODEL 4
REMARK VINA RESULT:      -6.5      2.403      6.967
REMARK  8 active torsions:
REMARK  status: ('A' for Active; 'I' for Inactive)
REMARK    1  A    between atoms: N1_2  and  C2_3 
REMARK    2  A    between atoms: N2_8  and  C6_9 
REMARK    3  A    between atoms: C6_9  and  C7_10 
REMARK    4  A    between atoms: C7_10  and  C8_11 
REMARK    5  A    between atoms: C8_11  and  O2_12 
REMARK    6  A    between atoms: O2_12  and  C9_13 
REMARK    7  A    between atoms: C11_15  and  C12_16 
REMARK    8  A    between atoms: C20_27  and  O3_28 
ROOT
HETATM    1  C9  UNL     1      22.538   0.654  51.836  1.00  0.00     0.100 C 
HETATM    2  C10 UNL     1      23.502   1.382  51.300  1.00  0.00     0.038 C 
HETATM    3  C11 UNL     1      24.606   1.420  52.224  1.00  0.00     0.082 A 
HETATM    4  C15 UNL     1      25.979   1.630  51.821  1.00  0.00     0.062 A 
HETATM    5  C16 UNL     1      26.401   2.526  50.800  1.00  0.00     0.098 C 
HETATM    6  N3  UNL     1      26.731   3.257  49.957  1.00  0.00    -0.192 NA
HETATM    7  C17 UNL     1      26.740   0.827  52.588  1.00  0.00     0.137 A 
HETATM    8  N4  UNL     1      25.913   0.064  53.493  1.00  0.00    -0.262 NA
HETATM    9  C18 UNL     1      24.659   0.405  53.268  1.00  0.00     0.058 A 
HETATM   10  C19 UNL     1      23.520  -0.265  53.823  1.00  0.00     0.068 C 
HETATM   11  C20 UNL     1      22.419  -0.149  53.046  1.00  0.00     0.103 C 
ENDROOT
BRANCH   3  12
HETATM   12  C12 UNL     1      24.371   2.792  53.044  1.00  0.00     0.018 C 
HETATM   13  C13 UNL     1      23.874   3.955  52.635  1.00  0.00     0.006 C 
HETATM   14  C14 UNL     1      23.714   5.153  53.519  1.00  0.00     0.061 C 
HETATM   15 CL1  UNL     1      23.273   4.523  51.091  1.00  0.00    -0.090 Cl
ENDBRANCH   3  12
BRANCH   1  16
HETATM   16  O2  UNL     1      21.389   0.596  51.037  1.00  0.00    -0.348 OA
BRANCH  16  17
HETATM   17  C8  UNL     1      21.040   1.573  50.089  1.00  0.00     0.177 C 
BRANCH  17  18
HETATM   18  C7  UNL     1      20.165   2.647  50.692  1.00  0.00     0.057 C 
BRANCH  18  19
HETATM   19  C6  UNL     1      19.311   2.113  51.817  1.00  0.00     0.277 C 
BRANCH  19  20
HETATM   20  N2  UNL     1      17.925   2.031  51.490  1.00  0.00     0.126 N 
HETATM   21  C2  UNL     1      17.531   0.642  51.462  1.00  0.00     0.476 C 
HETATM   22  C3  UNL     1      17.380   0.084  50.071  1.00  0.00     0.236 C 
HETATM   23  O1  UNL     1      16.516   0.786  49.265  1.00  0.00    -0.385 OA
HETATM   24  C4  UNL     1      16.276   2.077  49.704  1.00  0.00     0.198 C 
HETATM   25  C5  UNL     1      17.544   2.714  50.275  1.00  0.00     0.301 C 
BRANCH  21  26
HETATM   26  N1  UNL     1      18.529  -0.214  52.126  1.00  0.00     0.115 N 
HETATM   27  C1  UNL     1      17.818  -1.220  52.920  1.00  0.00     0.309 C 
HETATM   28  H4  UNL     1      19.031  -0.795  51.389  1.00  0.00     0.318 HD
ENDBRANCH  21  26
ENDBRANCH  19  20
ENDBRANCH  18  19
ENDBRANCH  17  18
ENDBRANCH  16  17
ENDBRANCH   1  16
BRANCH  11  29
HETATM   29  O3  UNL     1      21.235  -0.775  53.402  1.00  0.00    -0.353 OA
HETATM   30  C21 UNL     1      21.236  -1.810  54.364  1.00  0.00     0.210 C 
ENDBRANCH  11  29
TORSDOF 8
ENDMDL
MODEL 5
REMARK VINA RESULT:      -6.4      5.468      7.217
REMARK  8 active torsions:
REMARK  status: ('A' for Active; 'I' for Inactive)
REMARK    1  A    between atoms: N1_2  and  C2_3 
REMARK    2  A    between atoms: N2_8  and  C6_9 
REMARK    3  A    between atoms: C6_9  and  C7_10 
REMARK    4  A    between atoms: C7_10  and  C8_11 
REMARK    5  A    between atoms: C8_11  and  O2_12 
REMARK    6  A    between atoms: O2_12  and  C9_13 
REMARK    7  A    between atoms: C11_15  and  C12_16 
REMARK    8  A    between atoms: C20_27  and  O3_28 
ROOT
HETATM    1  C9  UNL     1      26.163   5.788  49.134  1.00  0.00     0.100 C 
HETATM    2  C10 UNL     1      27.319   5.991  48.527  1.00  0.00     0.038 C 
HETATM    3  C11 UNL     1      27.602   7.403  48.558  1.00  0.00     0.082 A 
HETATM    4  C15 UNL     1      28.939   7.952  48.501  1.00  0.00     0.062 A 
HETATM    5  C16 UNL     1      29.995   7.443  47.695  1.00  0.00     0.098 C 
HETATM    6  N3  UNL     1      30.852   7.012  47.037  1.00  0.00    -0.192 NA
HETATM    7  C17 UNL     1      28.967   9.004  49.340  1.00  0.00     0.137 A 
HETATM    8  N4  UNL     1      27.683   9.173  49.979  1.00  0.00    -0.262 NA
HETATM    9  C18 UNL     1      26.887   8.223  49.527  1.00  0.00     0.058 A 
HETATM   10  C19 UNL     1      25.589   7.927  50.059  1.00  0.00     0.068 C 
HETATM   11  C20 UNL     1      25.233   6.636  49.869  1.00  0.00     0.103 C 
ENDROOT
BRANCH   3  12
HETATM   12  C12 UNL     1      27.050   7.934  47.136  1.00  0.00     0.018 C 
HETATM   13  C13 UNL     1      26.546   9.119  46.805  1.00  0.00     0.006 C 
HETATM   14  C14 UNL     1      26.069   9.471  45.430  1.00  0.00     0.061 C 
HETATM   15 CL1  UNL     1      26.256  10.591  47.710  1.00  0.00    -0.090 Cl
ENDBRANCH   3  12
BRANCH   1  16
HETATM   16  O2  UNL     1      25.765   4.445  49.114  1.00  0.00    -0.348 OA
BRANCH  16  17
HETATM   17  C8  UNL     1      26.498   3.399  49.700  1.00  0.00     0.177 C 
BRANCH  17  18
HETATM   18  C7  UNL     1      25.714   2.713  50.794  1.00  0.00     0.057 C 
BRANCH  18  19
HETATM   19  C6  UNL     1      26.614   1.978  51.758  1.00  0.00     0.277 C 
BRANCH  19  20
HETATM   20  N2  UNL     1      25.931   1.481  52.908  1.00  0.00     0.126 N 
HETATM   21  C2  UNL     1      26.778   1.648  54.065  1.00  0.00     0.476 C 
HETATM   22  C3  UNL     1      27.435   0.371  54.522  1.00  0.00     0.236 C 
HETATM   23  O1  UNL     1      26.562  -0.659  54.779  1.00  0.00    -0.385 OA
HETATM   24  C4  UNL     1      25.322  -0.495  54.185  1.00  0.00     0.198 C 
HETATM   25  C5  UNL     1      25.451   0.124  52.792  1.00  0.00     0.301 C 
BRANCH  21  26
HETATM   26  N1  UNL     1      27.882   2.585  53.794  1.00  0.00     0.115 N 
HETATM   27  C1  UNL     1      29.135   1.956  54.222  1.00  0.00     0.309 C 
HETATM   28  H4  UNL     1      28.004   2.680  52.742  1.00  0.00     0.318 HD
ENDBRANCH  21  26
ENDBRANCH  19  20
ENDBRANCH  18  19
ENDBRANCH  17  18
ENDBRANCH  16  17
ENDBRANCH   1  16
BRANCH  11  29
HETATM   29  O3  UNL     1      24.028   6.157  50.361  1.00  0.00    -0.353 OA
HETATM   30  C21 UNL     1      23.897   5.827  51.728  1.00  0.00     0.210 C 
ENDBRANCH  11  29
TORSDOF 8
ENDMDL
MODEL 6
REMARK VINA RESULT:      -6.2      2.681      6.526
REMARK  8 active torsions:
REMARK  status: ('A' for Active; 'I' for Inactive)
REMARK    1  A    between atoms: N1_2  and  C2_3 
REMARK    2  A    between atoms: N2_8  and  C6_9 
REMARK    3  A    between atoms: C6_9  and  C7_10 
REMARK    4  A    between atoms: C7_10  and  C8_11 
REMARK    5  A    between atoms: C8_11  and  O2_12 
REMARK    6  A    between atoms: O2_12  and  C9_13 
REMARK    7  A    between atoms: C11_15  and  C12_16 
REMARK    8  A    between atoms: C20_27  and  O3_28 
ROOT
HETATM    1  C9  UNL     1      21.980   1.264  50.523  1.00  0.00     0.100 C 
HETATM    2  C10 UNL     1      23.233   1.675  50.604  1.00  0.00     0.038 C 
HETATM    3  C11 UNL     1      23.732   1.344  51.914  1.00  0.00     0.082 A 
HETATM    4  C15 UNL     1      25.133   1.131  52.206  1.00  0.00     0.062 A 
HETATM    5  C16 UNL     1      26.204   1.884  51.649  1.00  0.00     0.098 C 
HETATM    6  N3  UNL     1      27.071   2.501  51.180  1.00  0.00    -0.192 NA
HETATM    7  C17 UNL     1      25.201   0.112  53.082  1.00  0.00     0.137 A 
HETATM    8  N4  UNL     1      23.878  -0.385  53.379  1.00  0.00    -0.262 NA
HETATM    9  C18 UNL     1      23.018   0.332  52.682  1.00  0.00     0.058 A 
HETATM   10  C19 UNL     1      21.623   0.029  52.549  1.00  0.00     0.068 C 
HETATM   11  C20 UNL     1      21.097   0.501  51.397  1.00  0.00     0.103 C 
ENDROOT
BRANCH   3  12
HETATM   12  C12 UNL     1      23.498   2.696  52.765  1.00  0.00     0.018 C 
HETATM   13  C13 UNL     1      23.677   3.966  52.414  1.00  0.00     0.006 C 
HETATM   14  C14 UNL     1      23.415   5.129  53.320  1.00  0.00     0.061 C 
HETATM   15 CL1  UNL     1      24.227   4.734  50.938  1.00  0.00    -0.090 Cl
ENDBRANCH   3  12
BRANCH   1  16
HETATM   16  O2  UNL     1      21.378   1.585  49.299  1.00  0.00    -0.348 OA
BRANCH  16  17
HETATM   17  C8  UNL     1      22.042   1.544  48.061  1.00  0.00     0.177 C 
BRANCH  17  18
HETATM   18  C7  UNL     1      21.850   2.824  47.283  1.00  0.00     0.057 C 
BRANCH  18  19
HETATM   19  C6  UNL     1      20.895   3.767  47.975  1.00  0.00     0.277 C 
BRANCH  19  20
HETATM   20  N2  UNL     1      21.549   4.777  48.742  1.00  0.00     0.126 N 
HETATM   21  C2  UNL     1      20.723   5.110  49.879  1.00  0.00     0.476 C 
HETATM   22  C3  UNL     1      19.981   6.412  49.726  1.00  0.00     0.236 C 
HETATM   23  O1  UNL     1      20.780   7.496  49.449  1.00  0.00    -0.385 OA
HETATM   24  C4  UNL     1      22.025   7.152  48.949  1.00  0.00     0.198 C 
HETATM   25  C5  UNL     1      21.930   5.956  48.000  1.00  0.00     0.301 C 
BRANCH  21  26
HETATM   26  N1  UNL     1      19.688   4.089  50.110  1.00  0.00     0.115 N 
HETATM   27  C1  UNL     1      19.600   3.841  51.552  1.00  0.00     0.309 C 
HETATM   28  H4  UNL     1      18.736   4.502  49.875  1.00  0.00     0.318 HD
ENDBRANCH  21  26
ENDBRANCH  19  20
ENDBRANCH  18  19
ENDBRANCH  17  18
ENDBRANCH  16  17
ENDBRANCH   1  16
BRANCH  11  29
HETATM   29  O3  UNL     1      19.770   0.260  51.076  1.00  0.00    -0.353 OA
HETATM   30  C21 UNL     1      18.850  -0.113  52.081  1.00  0.00     0.210 C 
ENDBRANCH  11  29
TORSDOF 8
ENDMDL
MODEL 7
REMARK VINA RESULT:      -6.2      3.984      6.951
REMARK  8 active torsions:
REMARK  status: ('A' for Active; 'I' for Inactive)
REMARK    1  A    between atoms: N1_2  and  C2_3 
REMARK    2  A    between atoms: N2_8  and  C6_9 
REMARK    3  A    between atoms: C6_9  and  C7_10 
REMARK    4  A    between atoms: C7_10  and  C8_11 
REMARK    5  A    between atoms: C8_11  and  O2_12 
REMARK    6  A    between atoms: O2_12  and  C9_13 
REMARK    7  A    between atoms: C11_15  and  C12_16 
REMARK    8  A    between atoms: C20_27  and  O3_28 
ROOT
HETATM    1  C9  UNL     1      24.036   3.636  51.883  1.00  0.00     0.100 C 
HETATM    2  C10 UNL     1      23.134   2.905  52.515  1.00  0.00     0.038 C 
HETATM    3  C11 UNL     1      23.480   1.517  52.344  1.00  0.00     0.082 A 
HETATM    4  C15 UNL     1      23.099   0.478  53.276  1.00  0.00     0.062 A 
HETATM    5  C16 UNL     1      21.845   0.404  53.945  1.00  0.00     0.098 C 
HETATM    6  N3  UNL     1      20.820   0.360  54.492  1.00  0.00    -0.192 NA
HETATM    7  C17 UNL     1      24.141  -0.368  53.368  1.00  0.00     0.137 A 
HETATM    8  N4  UNL     1      25.230   0.082  52.532  1.00  0.00    -0.262 NA
HETATM    9  C18 UNL     1      24.843   1.196  51.943  1.00  0.00     0.058 A 
HETATM   10  C19 UNL     1      25.703   2.058  51.185  1.00  0.00     0.068 C 
HETATM   11  C20 UNL     1      25.281   3.343  51.186  1.00  0.00     0.103 C 
ENDROOT
BRANCH   3  12
HETATM   12  C12 UNL     1      22.595   1.057  51.074  1.00  0.00     0.018 C 
HETATM   13  C13 UNL     1      21.370   1.423  50.710  1.00  0.00     0.006 C 
HETATM   14  C14 UNL     1      20.669   0.906  49.493  1.00  0.00     0.061 C 
HETATM   15 CL1  UNL     1      20.194   2.522  51.404  1.00  0.00    -0.090 Cl
ENDBRANCH   3  12
BRANCH   1  16
HETATM   16  O2  UNL     1      23.763   5.009  51.941  1.00  0.00    -0.348 OA
BRANCH  16  17
HETATM   17  C8  UNL     1      22.507   5.574  51.661  1.00  0.00     0.177 C 
BRANCH  17  18
HETATM   18  C7  UNL     1      22.623   6.752  50.722  1.00  0.00     0.057 C 
BRANCH  18  19
HETATM   19  C6  UNL     1      24.060   7.170  50.517  1.00  0.00     0.277 C 
BRANCH  19  20
HETATM   20  N2  UNL     1      24.512   7.008  49.173  1.00  0.00     0.126 N 
HETATM   21  C2  UNL     1      25.830   7.585  49.049  1.00  0.00     0.476 C 
HETATM   22  C3  UNL     1      25.840   8.926  48.362  1.00  0.00     0.236 C 
HETATM   23  O1  UNL     1      25.254   8.934  47.118  1.00  0.00    -0.385 OA
HETATM   24  C4  UNL     1      24.405   7.862  46.900  1.00  0.00     0.198 C 
HETATM   25  C5  UNL     1      23.613   7.515  48.162  1.00  0.00     0.301 C 
BRANCH  21  26
HETATM   26  N1  UNL     1      26.444   7.813  50.368  1.00  0.00     0.115 N 
HETATM   27  C1  UNL     1      27.194   9.071  50.315  1.00  0.00     0.309 C 
HETATM   28  H4  UNL     1      25.677   8.016  51.077  1.00  0.00     0.318 HD
ENDBRANCH  21  26
ENDBRANCH  19  20
ENDBRANCH  18  19
ENDBRANCH  17  18
ENDBRANCH  16  17
ENDBRANCH   1  16
BRANCH  11  29
HETATM   29  O3  UNL     1      26.016   4.327  50.543  1.00  0.00    -0.353 OA
HETATM   30  C21 UNL     1      26.790   4.011  49.404  1.00  0.00     0.210 C 
ENDBRANCH  11  29
TORSDOF 8
ENDMDL
MODEL 8
REMARK VINA RESULT:      -6.2      3.818      5.847
REMARK  8 active torsions:
REMARK  status: ('A' for Active; 'I' for Inactive)
REMARK    1  A    between atoms: N1_2  and  C2_3 
REMARK    2  A    between atoms: N2_8  and  C6_9 
REMARK    3  A    between atoms: C6_9  and  C7_10 
REMARK    4  A    between atoms: C7_10  and  C8_11 
REMARK    5  A    between atoms: C8_11  and  O2_12 
REMARK    6  A    between atoms: O2_12  and  C9_13 
REMARK    7  A    between atoms: C11_15  and  C12_16 
REMARK    8  A    between atoms: C20_27  and  O3_28 
ROOT
HETATM    1  C9  UNL     1      23.398   2.897  52.580  1.00  0.00     0.100 C 
HETATM    2  C10 UNL     1      22.119   2.799  52.263  1.00  0.00     0.038 C 
HETATM    3  C11 UNL     1      21.787   1.401  52.156  1.00  0.00     0.082 A 
HETATM    4  C15 UNL     1      20.454   0.878  52.360  1.00  0.00     0.062 A 
HETATM    5  C16 UNL     1      19.256   1.514  51.931  1.00  0.00     0.098 C 
HETATM    6  N3  UNL     1      18.283   2.048  51.583  1.00  0.00    -0.192 NA
HETATM    7  C17 UNL     1      20.587  -0.290  53.015  1.00  0.00     0.137 A 
HETATM    8  N4  UNL     1      21.980  -0.565  53.276  1.00  0.00    -0.262 NA
HETATM    9  C18 UNL     1      22.682   0.436  52.782  1.00  0.00     0.058 A 
HETATM   10  C19 UNL     1      24.084   0.637  53.004  1.00  0.00     0.068 C 
HETATM   11  C20 UNL     1      24.441   1.938  52.923  1.00  0.00     0.103 C 
ENDROOT
BRANCH   3  12
HETATM   12  C12 UNL     1      21.943   1.091  50.579  1.00  0.00     0.018 C 
HETATM   13  C13 UNL     1      21.669   1.858  49.528  1.00  0.00     0.006 C 
HETATM   14  C14 UNL     1      21.866   1.431  48.106  1.00  0.00     0.061 C 
HETATM   15 CL1  UNL     1      21.038   3.484  49.365  1.00  0.00    -0.090 Cl
ENDBRANCH   3  12
BRANCH   1  16
HETATM   16  O2  UNL     1      23.841   4.223  52.658  1.00  0.00    -0.348 OA
BRANCH  16  17
HETATM   17  C8  UNL     1      23.729   5.153  51.610  1.00  0.00     0.177 C 
BRANCH  17  18
HETATM   18  C7  UNL     1      24.542   4.737  50.406  1.00  0.00     0.057 C 
BRANCH  18  19
HETATM   19  C6  UNL     1      25.565   5.782  50.028  1.00  0.00     0.277 C 
BRANCH  19  20
HETATM   20  N2  UNL     1      25.488   6.184  48.661  1.00  0.00     0.126 N 
HETATM   21  C2  UNL     1      26.819   6.473  48.182  1.00  0.00     0.476 C 
HETATM   22  C3  UNL     1      27.118   7.946  48.079  1.00  0.00     0.236 C 
HETATM   23  O1  UNL     1      26.226   8.657  47.311  1.00  0.00    -0.385 OA
HETATM   24  C4  UNL     1      25.016   8.009  47.127  1.00  0.00     0.198 C 
HETATM   25  C5  UNL     1      24.580   7.276  48.397  1.00  0.00     0.301 C 
BRANCH  21  26
HETATM   26  N1  UNL     1      27.847   5.923  49.083  1.00  0.00     0.115 N 
HETATM   27  C1  UNL     1      29.053   5.654  48.295  1.00  0.00     0.309 C 
HETATM   28  H4  UNL     1      28.160   6.685  49.756  1.00  0.00     0.318 HD
ENDBRANCH  21  26
ENDBRANCH  19  20
ENDBRANCH  18  19
ENDBRANCH  17  18
ENDBRANCH  16  17
ENDBRANCH   1  16
BRANCH  11  29
HETATM   29  O3  UNL     1      25.751   2.326  53.158  1.00  0.00    -0.353 OA
HETATM   30  C21 UNL     1      26.735   2.159  52.158  1.00  0.00     0.210 C 
ENDBRANCH  11  29
TORSDOF 8
ENDMDL
MODEL 9
REMARK VINA RESULT:      -6.1      5.389      6.687
REMARK  8 active torsions:
REMARK  status: ('A' for Active; 'I' for Inactive)
REMARK    1  A    between atoms: N1_2  and  C2_3 
REMARK    2  A    between atoms: N2_8  and  C6_9 
REMARK    3  A    between atoms: C6_9  and  C7_10 
REMARK    4  A    between atoms: C7_10  and  C8_11 
REMARK    5  A    between atoms: C8_11  and  O2_12 
REMARK    6  A    between atoms: O2_12  and  C9_13 
REMARK    7  A    between atoms: C11_15  and  C12_16 
REMARK    8  A    between atoms: C20_27  and  O3_28 
ROOT
HETATM    1  C9  UNL     1      25.832   3.867  49.805  1.00  0.00     0.100 C 
HETATM    2  C10 UNL     1      24.839   4.552  49.266  1.00  0.00     0.038 C 
HETATM    3  C11 UNL     1      23.639   4.268  50.010  1.00  0.00     0.082 A 
HETATM    4  C15 UNL     1      22.517   5.177  50.095  1.00  0.00     0.062 A 
HETATM    5  C16 UNL     1      22.032   5.974  49.022  1.00  0.00     0.098 C 
HETATM    6  N3  UNL     1      21.651   6.627  48.137  1.00  0.00    -0.192 NA
HETATM    7  C17 UNL     1      22.050   5.107  51.355  1.00  0.00     0.137 A 
HETATM    8  N4  UNL     1      22.840   4.183  52.135  1.00  0.00    -0.262 NA
HETATM    9  C18 UNL     1      23.781   3.702  51.346  1.00  0.00     0.058 A 
HETATM   10  C19 UNL     1      24.886   2.904  51.789  1.00  0.00     0.068 C 
HETATM   11  C20 UNL     1      25.967   3.022  50.984  1.00  0.00     0.103 C 
ENDROOT
BRANCH   3  12
HETATM   12  C12 UNL     1      22.941   3.080  49.170  1.00  0.00     0.018 C 
HETATM   13  C13 UNL     1      22.178   2.074  49.587  1.00  0.00     0.006 C 
HETATM   14  C14 UNL     1      21.593   1.035  48.680  1.00  0.00     0.061 C 
HETATM   15 CL1  UNL     1      21.600   1.587  51.167  1.00  0.00    -0.090 Cl
ENDBRANCH   3  12
BRANCH   1  16
HETATM   16  O2  UNL     1      27.043   4.031  49.119  1.00  0.00    -0.348 OA
BRANCH  16  17
HETATM   17  C8  UNL     1      27.516   5.265  48.642  1.00  0.00     0.177 C 
BRANCH  17  18
HETATM   18  C7  UNL     1      28.934   5.159  48.133  1.00  0.00     0.057 C 
BRANCH  18  19
HETATM   19  C6  UNL     1      29.707   6.440  48.344  1.00  0.00     0.277 C 
BRANCH  19  20
HETATM   20  N2  UNL     1      30.974   6.243  48.969  1.00  0.00     0.126 N 
HETATM   21  C2  UNL     1      31.441   7.506  49.491  1.00  0.00     0.476 C 
HETATM   22  C3  UNL     1      32.515   8.146  48.651  1.00  0.00     0.236 C 
HETATM   23  O1  UNL     1      33.612   7.349  48.423  1.00  0.00    -0.385 OA
HETATM   24  C4  UNL     1      33.368   6.001  48.626  1.00  0.00     0.198 C 
HETATM   25  C5  UNL     1      31.972   5.610  48.138  1.00  0.00     0.301 C 
BRANCH  21  26
HETATM   26  N1  UNL     1      30.352   8.495  49.561  1.00  0.00     0.115 N 
HETATM   27  C1  UNL     1      30.878   9.790  49.120  1.00  0.00     0.309 C 
HETATM   28  H4  UNL     1      29.625   8.262  48.820  1.00  0.00     0.318 HD
ENDBRANCH  21  26
ENDBRANCH  19  20
ENDBRANCH  18  19
ENDBRANCH  17  18
ENDBRANCH  16  17
ENDBRANCH   1  16
BRANCH  11  29
HETATM   29  O3  UNL     1      27.146   2.358  51.285  1.00  0.00    -0.353 OA
HETATM   30  C21 UNL     1      27.494   2.094  52.628  1.00  0.00     0.210 C 
ENDBRANCH  11  29
TORSDOF 8
ENDMDL
