MODEL 1
REMARK VINA RESULT:      -7.2      0.000      0.000
REMARK  6 active torsions:
REMARK  status: ('A' for Active; 'I' for Inactive)
REMARK    1  A    between atoms: N1_2  and  N2_3 
REMARK    2  A    between atoms: N2_3  and  C2_4 
REMARK    3  A    between atoms: C7_10  and  C8_11 
REMARK    4  A    between atoms: C8_11  and  C9_12 
REMARK    5  A    between atoms: C12_16  and  N4_17 
REMARK       I    between atoms: N4_17  and  C13_18 
REMARK    6  A    between atoms: C13_18  and  C14_20 
ROOT
HETATM    1  C9  UNL     1      25.475   2.827  51.085  1.00  0.00     0.018 A 
HETATM    2  N3  UNL     1      24.477   2.865  51.934  1.00  0.00    -0.270 NA
HETATM    3  C10 UNL     1      24.689   2.581  53.317  1.00  0.00     0.114 A 
HETATM    4  C11 UNL     1      25.891   2.283  53.733  1.00  0.00     0.018 A 
HETATM    5  C12 UNL     1      27.104   2.207  52.881  1.00  0.00     0.114 A 
HETATM    6  C16 UNL     1      26.876   2.497  51.444  1.00  0.00     0.084 A 
ENDROOT
BRANCH   1   7
HETATM    7  C8  UNL     1      25.335   3.110  49.633  1.00  0.00     0.095 C 
BRANCH   7   8
HETATM    8  C7  UNL     1      25.957   4.370  49.228  1.00  0.00    -0.025 A 
HETATM    9  C2  UNL     1      25.235   5.564  49.169  1.00  0.00     0.058 A 
HETATM   10  C3  UNL     1      25.929   6.703  48.771  1.00  0.00     0.050 A 
HETATM   11  C4  UNL     1      27.266   6.721  48.437  1.00  0.00     0.013 A 
HETATM   12 BR1  UNL     1      28.130   8.348  47.899  1.00  0.00    -0.051 Br
HETATM   13  C5  UNL     1      27.986   5.544  48.494  1.00  0.00     0.020 A 
HETATM   14  C6  UNL     1      27.292   4.418  48.889  1.00  0.00     0.011 A 
BRANCH   9  15
HETATM   15  N2  UNL     1      23.857   5.595  49.504  1.00  0.00    -0.279 N 
HETATM   16  H3  UNL     1      23.171   5.256  48.823  1.00  0.00     0.189 HD
BRANCH  15  17
HETATM   17  N1  UNL     1      23.600   6.115  50.797  1.00  0.00    -0.198 NA
HETATM   18  C1  UNL     1      22.442   5.793  51.319  1.00  0.00     0.173 C 
ENDBRANCH  15  17
ENDBRANCH   9  15
ENDBRANCH   7   8
ENDBRANCH   1   7
BRANCH   5  19
HETATM   19  N4  UNL     1      27.766   0.918  53.009  1.00  0.00    -0.353 N 
HETATM   20  C13 UNL     1      28.844   0.801  53.916  1.00  0.00     0.217 C 
HETATM   21  O1  UNL     1      29.239   1.763  54.605  1.00  0.00    -0.274 OA
HETATM   22  H12 UNL     1      27.456   0.092  52.443  1.00  0.00     0.163 HD
BRANCH  20  23
HETATM   23  C14 UNL     1      29.584  -0.473  54.115  1.00  0.00     0.098 C 
HETATM   24  C15 UNL     1      29.075  -1.569  53.232  1.00  0.00     0.014 C 
ENDBRANCH  20  23
ENDBRANCH   5  19
TORSDOF 6
ENDMDL
MODEL 2
REMARK VINA RESULT:      -7.1      3.125      3.748
REMARK  6 active torsions:
REMARK  status: ('A' for Active; 'I' for Inactive)
REMARK    1  A    between atoms: N1_2  and  N2_3 
REMARK    2  A    between atoms: N2_3  and  C2_4 
REMARK    3  A    between atoms: C7_10  and  C8_11 
REMARK    4  A    between atoms: C8_11  and  C9_12 
REMARK    5  A    between atoms: C12_16  and  N4_17 
REMARK       I    between atoms: N4_17  and  C13_18 
REMARK    6  A    between atoms: C13_18  and  C14_20 
ROOT
HETATM    1  C9  UNL     1      24.313   2.010  53.136  1.00  0.00     0.018 A 
HETATM    2  N3  UNL     1      23.424   1.048  53.100  1.00  0.00    -0.270 NA
HETATM    3  C10 UNL     1      23.745  -0.256  53.583  1.00  0.00     0.114 A 
HETATM    4  C11 UNL     1      24.938  -0.485  54.066  1.00  0.00     0.018 A 
HETATM    5  C12 UNL     1      26.033   0.512  54.166  1.00  0.00     0.114 A 
HETATM    6  C16 UNL     1      25.694   1.864  53.656  1.00  0.00     0.084 A 
ENDROOT
BRANCH   1   7
HETATM    7  C8  UNL     1      24.054   3.392  52.654  1.00  0.00     0.095 C 
BRANCH   7   8
HETATM    8  C7  UNL     1      23.455   3.435  51.321  1.00  0.00    -0.025 A 
HETATM    9  C2  UNL     1      22.116   3.782  51.124  1.00  0.00     0.058 A 
HETATM   10  C3  UNL     1      21.651   3.791  49.813  1.00  0.00     0.050 A 
HETATM   11  C4  UNL     1      22.422   3.482  48.713  1.00  0.00     0.013 A 
HETATM   12 BR1  UNL     1      21.683   3.523  46.943  1.00  0.00    -0.051 Br
HETATM   13  C5  UNL     1      23.746   3.138  48.900  1.00  0.00     0.020 A 
HETATM   14  C6  UNL     1      24.201   3.131  50.203  1.00  0.00     0.011 A 
BRANCH   9  15
HETATM   15  N2  UNL     1      21.283   4.109  52.226  1.00  0.00    -0.279 N 
HETATM   16  H3  UNL     1      21.613   4.790  52.915  1.00  0.00     0.189 HD
BRANCH  15  17
HETATM   17  N1  UNL     1      20.048   3.415  52.228  1.00  0.00    -0.198 NA
HETATM   18  C1  UNL     1      20.090   2.180  52.666  1.00  0.00     0.173 C 
ENDBRANCH  15  17
ENDBRANCH   9  15
ENDBRANCH   7   8
ENDBRANCH   1   7
BRANCH   5  19
HETATM   19  N4  UNL     1      27.243   0.043  53.508  1.00  0.00    -0.353 N 
HETATM   20  C13 UNL     1      28.481   0.224  54.166  1.00  0.00     0.217 C 
HETATM   21  O1  UNL     1      28.564   0.768  55.285  1.00  0.00    -0.274 OA
HETATM   22  H12 UNL     1      27.204  -0.418  52.567  1.00  0.00     0.163 HD
BRANCH  20  23
HETATM   23  C14 UNL     1      29.771  -0.219  53.575  1.00  0.00     0.098 C 
HETATM   24  C15 UNL     1      29.838  -1.706  53.408  1.00  0.00     0.014 C 
ENDBRANCH  20  23
ENDBRANCH   5  19
TORSDOF 6
ENDMDL
MODEL 3
REMARK VINA RESULT:      -7.1      2.510      3.684
REMARK  6 active torsions:
REMARK  status: ('A' for Active; 'I' for Inactive)
REMARK    1  A    between atoms: N1_2  and  N2_3 
REMARK    2  A    between atoms: N2_3  and  C2_4 
REMARK    3  A    between atoms: C7_10  and  C8_11 
REMARK    4  A    between atoms: C8_11  and  C9_12 
REMARK    5  A    between atoms: C12_16  and  N4_17 
REMARK       I    between atoms: N4_17  and  C13_18 
REMARK    6  A    between atoms: C13_18  and  C14_20 
ROOT
HETATM    1  C9  UNL     1      24.392   2.158  53.150  1.00  0.00     0.018 A 
HETATM    2  N3  UNL     1      23.473   1.227  53.081  1.00  0.00    -0.270 NA
HETATM    3  C10 UNL     1      23.745  -0.099  53.536  1.00  0.00     0.114 A 
HETATM    4  C11 UNL     1      24.924  -0.379  54.025  1.00  0.00     0.018 A 
HETATM    5  C12 UNL     1      26.050   0.578  54.161  1.00  0.00     0.114 A 
HETATM    6  C16 UNL     1      25.762   1.952  53.681  1.00  0.00     0.084 A 
ENDROOT
BRANCH   1   7
HETATM    7  C8  UNL     1      24.185   3.558  52.699  1.00  0.00     0.095 C 
BRANCH   7   8
HETATM    8  C7  UNL     1      23.696   3.655  51.324  1.00  0.00    -0.025 A 
HETATM    9  C2  UNL     1      24.540   3.988  50.262  1.00  0.00     0.058 A 
HETATM   10  C3  UNL     1      23.968   4.051  48.996  1.00  0.00     0.050 A 
HETATM   11  C4  UNL     1      22.636   3.808  48.731  1.00  0.00     0.013 A 
HETATM   12 BR1  UNL     1      21.945   3.922  46.946  1.00  0.00    -0.051 Br
HETATM   13  C5  UNL     1      21.797   3.478  49.776  1.00  0.00     0.020 A 
HETATM   14  C6  UNL     1      22.371   3.417  51.030  1.00  0.00     0.011 A 
BRANCH   9  15
HETATM   15  N2  UNL     1      25.917   4.247  50.485  1.00  0.00    -0.279 N 
HETATM   16  H3  UNL     1      26.205   4.693  51.360  1.00  0.00     0.189 HD
BRANCH  15  17
HETATM   17  N1  UNL     1      26.751   3.835  49.415  1.00  0.00    -0.198 NA
HETATM   18  C1  UNL     1      27.445   4.785  48.838  1.00  0.00     0.173 C 
ENDBRANCH  15  17
ENDBRANCH   9  15
ENDBRANCH   7   8
ENDBRANCH   1   7
BRANCH   5  19
HETATM   19  N4  UNL     1      27.251   0.086  53.506  1.00  0.00    -0.353 N 
HETATM   20  C13 UNL     1      28.493   0.248  54.162  1.00  0.00     0.217 C 
HETATM   21  O1  UNL     1      28.586   0.796  55.278  1.00  0.00    -0.274 OA
HETATM   22  H12 UNL     1      27.204  -0.380  52.567  1.00  0.00     0.163 HD
BRANCH  20  23
HETATM   23  C14 UNL     1      29.774  -0.220  53.572  1.00  0.00     0.098 C 
HETATM   24  C15 UNL     1      29.790  -1.701  53.352  1.00  0.00     0.014 C 
ENDBRANCH  20  23
ENDBRANCH   5  19
TORSDOF 6
ENDMDL
MODEL 4
REMARK VINA RESULT:      -7.0      3.347      6.686
REMARK  6 active torsions:
REMARK  status: ('A' for Active; 'I' for Inactive)
REMARK    1  A    between atoms: N1_2  and  N2_3 
REMARK    2  A    between atoms: N2_3  and  C2_4 
REMARK    3  A    between atoms: C7_10  and  C8_11 
REMARK    4  A    between atoms: C8_11  and  C9_12 
REMARK    5  A    between atoms: C12_16  and  N4_17 
REMARK       I    between atoms: N4_17  and  C13_18 
REMARK    6  A    between atoms: C13_18  and  C14_20 
ROOT
HETATM    1  C9  UNL     1      24.551   2.792  51.825  1.00  0.00     0.018 A 
HETATM    2  N3  UNL     1      23.341   2.521  51.404  1.00  0.00    -0.270 NA
HETATM    3  C10 UNL     1      22.974   2.756  50.044  1.00  0.00     0.114 A 
HETATM    4  C11 UNL     1      23.861   3.244  49.217  1.00  0.00     0.018 A 
HETATM    5  C12 UNL     1      25.262   3.592  49.562  1.00  0.00     0.114 A 
HETATM    6  C16 UNL     1      25.634   3.352  50.978  1.00  0.00     0.084 A 
ENDROOT
BRANCH   1   7
HETATM    7  C8  UNL     1      25.008   2.575  53.222  1.00  0.00     0.095 C 
BRANCH   7   8
HETATM    8  C7  UNL     1      26.130   1.643  53.325  1.00  0.00    -0.025 A 
HETATM    9  C2  UNL     1      25.960   0.264  53.180  1.00  0.00     0.058 A 
HETATM   10  C3  UNL     1      27.097  -0.529  53.296  1.00  0.00     0.050 A 
HETATM   11  C4  UNL     1      28.363  -0.041  53.543  1.00  0.00     0.013 A 
HETATM   12 BR1  UNL     1      29.868  -1.222  53.686  1.00  0.00    -0.051 Br
HETATM   13  C5  UNL     1      28.538   1.321  53.686  1.00  0.00     0.020 A 
HETATM   14  C6  UNL     1      27.406   2.102  53.570  1.00  0.00     0.011 A 
BRANCH   9  15
HETATM   15  N2  UNL     1      24.676  -0.284  52.925  1.00  0.00    -0.279 N 
HETATM   16  H3  UNL     1      24.348  -0.356  51.958  1.00  0.00     0.189 HD
BRANCH  15  17
HETATM   17  N1  UNL     1      23.984  -0.676  54.098  1.00  0.00    -0.198 NA
HETATM   18  C1  UNL     1      22.678  -0.724  53.999  1.00  0.00     0.173 C 
ENDBRANCH  15  17
ENDBRANCH   9  15
ENDBRANCH   7   8
ENDBRANCH   1   7
BRANCH   5  19
HETATM   19  N4  UNL     1      25.570   4.970  49.215  1.00  0.00    -0.353 N 
HETATM   20  C13 UNL     1      26.875   5.277  48.765  1.00  0.00     0.217 C 
HETATM   21  O1  UNL     1      27.761   4.406  48.657  1.00  0.00    -0.274 OA
HETATM   22  H12 UNL     1      24.845   5.724  49.296  1.00  0.00     0.163 HD
BRANCH  20  23
HETATM   23  C14 UNL     1      27.286   6.655  48.389  1.00  0.00     0.098 C 
HETATM   24  C15 UNL     1      26.171   7.427  47.754  1.00  0.00     0.014 C 
ENDBRANCH  20  23
ENDBRANCH   5  19
TORSDOF 6
ENDMDL
MODEL 5
REMARK VINA RESULT:      -7.0      1.710      2.693
REMARK  6 active torsions:
REMARK  status: ('A' for Active; 'I' for Inactive)
REMARK    1  A    between atoms: N1_2  and  N2_3 
REMARK    2  A    between atoms: N2_3  and  C2_4 
REMARK    3  A    between atoms: C7_10  and  C8_11 
REMARK    4  A    between atoms: C8_11  and  C9_12 
REMARK    5  A    between atoms: C12_16  and  N4_17 
REMARK       I    between atoms: N4_17  and  C13_18 
REMARK    6  A    between atoms: C13_18  and  C14_20 
ROOT
HETATM    1  C9  UNL     1      25.510   2.804  50.949  1.00  0.00     0.018 A 
HETATM    2  N3  UNL     1      24.417   2.810  51.672  1.00  0.00    -0.270 NA
HETATM    3  C10 UNL     1      24.466   2.501  53.066  1.00  0.00     0.114 A 
HETATM    4  C11 UNL     1      25.615   2.212  53.618  1.00  0.00     0.018 A 
HETATM    5  C12 UNL     1      26.922   2.171  52.917  1.00  0.00     0.114 A 
HETATM    6  C16 UNL     1      26.863   2.487  51.468  1.00  0.00     0.084 A 
ENDROOT
BRANCH   1   7
HETATM    7  C8  UNL     1      25.540   3.115  49.497  1.00  0.00     0.095 C 
BRANCH   7   8
HETATM    8  C7  UNL     1      25.331   4.533  49.206  1.00  0.00    -0.025 A 
HETATM    9  C2  UNL     1      26.392   5.441  49.161  1.00  0.00     0.058 A 
HETATM   10  C3  UNL     1      26.078   6.766  48.875  1.00  0.00     0.050 A 
HETATM   11  C4  UNL     1      24.801   7.228  48.635  1.00  0.00     0.013 A 
HETATM   12 BR1  UNL     1      24.474   9.078  48.249  1.00  0.00    -0.051 Br
HETATM   13  C5  UNL     1      23.749   6.335  48.677  1.00  0.00     0.020 A 
HETATM   14  C6  UNL     1      24.066   5.023  48.962  1.00  0.00     0.011 A 
BRANCH   9  15
HETATM   15  N2  UNL     1      27.723   5.012  49.400  1.00  0.00    -0.279 N 
HETATM   16  H3  UNL     1      28.002   4.760  50.352  1.00  0.00     0.189 HD
BRANCH  15  17
HETATM   17  N1  UNL     1      28.529   4.990  48.234  1.00  0.00    -0.198 NA
HETATM   18  C1  UNL     1      29.549   5.812  48.233  1.00  0.00     0.173 C 
ENDBRANCH  15  17
ENDBRANCH   9  15
ENDBRANCH   7   8
ENDBRANCH   1   7
BRANCH   5  19
HETATM   19  N4  UNL     1      27.585   0.889  53.099  1.00  0.00    -0.353 N 
HETATM   20  C13 UNL     1      28.729   0.833  53.928  1.00  0.00     0.217 C 
HETATM   21  O1  UNL     1      29.180   1.843  54.504  1.00  0.00    -0.274 OA
HETATM   22  H12 UNL     1      27.228   0.023  52.627  1.00  0.00     0.163 HD
BRANCH  20  23
HETATM   23  C14 UNL     1      29.475  -0.428  54.174  1.00  0.00     0.098 C 
HETATM   24  C15 UNL     1      29.066  -1.522  53.237  1.00  0.00     0.014 C 
ENDBRANCH  20  23
ENDBRANCH   5  19
TORSDOF 6
ENDMDL
MODEL 6
REMARK VINA RESULT:      -6.7      1.900      2.312
REMARK  6 active torsions:
REMARK  status: ('A' for Active; 'I' for Inactive)
REMARK    1  A    between atoms: N1_2  and  N2_3 
REMARK    2  A    between atoms: N2_3  and  C2_4 
REMARK    3  A    between atoms: C7_10  and  C8_11 
REMARK    4  A    between atoms: C8_11  and  C9_12 
REMARK    5  A    between atoms: C12_16  and  N4_17 
REMARK       I    between atoms: N4_17  and  C13_18 
REMARK    6  A    between atoms: C13_18  and  C14_20 
ROOT
HETATM    1  C9  UNL     1      23.942   1.375  51.726  1.00  0.00     0.018 A 
HETATM    2  N3  UNL     1      23.189   0.539  52.397  1.00  0.00    -0.270 NA
HETATM    3  C10 UNL     1      23.703  -0.146  53.540  1.00  0.00     0.114 A 
HETATM    4  C11 UNL     1      24.936   0.071  53.916  1.00  0.00     0.018 A 
HETATM    5  C12 UNL     1      25.891   0.990  53.249  1.00  0.00     0.114 A 
HETATM    6  C16 UNL     1      25.353   1.693  52.058  1.00  0.00     0.084 A 
ENDROOT
BRANCH   1   7
HETATM    7  C8  UNL     1      23.480   2.124  50.529  1.00  0.00     0.095 C 
BRANCH   7   8
HETATM    8  C7  UNL     1      24.067   3.459  50.421  1.00  0.00    -0.025 A 
HETATM    9  C2  UNL     1      23.586   4.540  51.164  1.00  0.00     0.058 A 
HETATM   10  C3  UNL     1      24.221   5.764  50.983  1.00  0.00     0.050 A 
HETATM   11  C4  UNL     1      25.281   5.970  50.125  1.00  0.00     0.013 A 
HETATM   12 BR1  UNL     1      26.087   7.702  49.948  1.00  0.00    -0.051 Br
HETATM   13  C5  UNL     1      25.762   4.907  49.389  1.00  0.00     0.020 A 
HETATM   14  C6  UNL     1      25.128   3.694  49.573  1.00  0.00     0.011 A 
BRANCH   9  15
HETATM   15  N2  UNL     1      22.498   4.375  52.060  1.00  0.00    -0.279 N 
HETATM   16  H3  UNL     1      22.664   3.943  52.973  1.00  0.00     0.189 HD
BRANCH  15  17
HETATM   17  N1  UNL     1      21.265   4.852  51.546  1.00  0.00    -0.198 NA
HETATM   18  C1  UNL     1      20.299   3.969  51.480  1.00  0.00     0.173 C 
ENDBRANCH  15  17
ENDBRANCH   9  15
ENDBRANCH   7   8
ENDBRANCH   1   7
BRANCH   5  19
HETATM   19  N4  UNL     1      27.122   0.307  52.883  1.00  0.00    -0.353 N 
HETATM   20  C13 UNL     1      28.217   0.367  53.776  1.00  0.00     0.217 C 
HETATM   21  O1  UNL     1      28.156   0.982  54.860  1.00  0.00    -0.274 OA
HETATM   22  H12 UNL     1      27.203  -0.218  51.979  1.00  0.00     0.163 HD
BRANCH  20  23
HETATM   23  C14 UNL     1      29.516  -0.297  53.491  1.00  0.00     0.098 C 
HETATM   24  C15 UNL     1      29.375  -1.780  53.342  1.00  0.00     0.014 C 
ENDBRANCH  20  23
ENDBRANCH   5  19
TORSDOF 6
ENDMDL
MODEL 7
REMARK VINA RESULT:      -6.7      3.890      7.064
REMARK  6 active torsions:
REMARK  status: ('A' for Active; 'I' for Inactive)
REMARK    1  A    between atoms: N1_2  and  N2_3 
REMARK    2  A    between atoms: N2_3  and  C2_4 
REMARK    3  A    between atoms: C7_10  and  C8_11 
REMARK    4  A    between atoms: C8_11  and  C9_12 
REMARK    5  A    between atoms: C12_16  and  N4_17 
REMARK       I    between atoms: N4_17  and  C13_18 
REMARK    6  A    between atoms: C13_18  and  C14_20 
ROOT
HETATM    1  C9  UNL     1      25.109   4.843  50.160  1.00  0.00     0.018 A 
HETATM    2  N3  UNL     1      24.199   5.286  50.992  1.00  0.00    -0.270 NA
HETATM    3  C10 UNL     1      24.019   6.688  51.193  1.00  0.00     0.114 A 
HETATM    4  C11 UNL     1      24.773   7.531  50.537  1.00  0.00     0.018 A 
HETATM    5  C12 UNL     1      25.835   7.164  49.568  1.00  0.00     0.114 A 
HETATM    6  C16 UNL     1      26.020   5.705  49.369  1.00  0.00     0.084 A 
ENDROOT
BRANCH   1   7
HETATM    7  C8  UNL     1      25.355   3.401  49.897  1.00  0.00     0.095 C 
BRANCH   7   8
HETATM    8  C7  UNL     1      24.743   2.520  50.890  1.00  0.00    -0.025 A 
HETATM    9  C2  UNL     1      25.412   2.147  52.059  1.00  0.00     0.058 A 
HETATM   10  C3  UNL     1      24.734   1.305  52.934  1.00  0.00     0.050 A 
HETATM   11  C4  UNL     1      23.459   0.825  52.720  1.00  0.00     0.013 A 
HETATM   12 BR1  UNL     1      22.612  -0.334  53.993  1.00  0.00    -0.051 Br
HETATM   13  C5  UNL     1      22.792   1.190  51.568  1.00  0.00     0.020 A 
HETATM   14  C6  UNL     1      23.470   2.025  50.703  1.00  0.00     0.011 A 
BRANCH   9  15
HETATM   15  N2  UNL     1      26.725   2.617  52.322  1.00  0.00    -0.279 N 
HETATM   16  H3  UNL     1      27.216   3.154  51.602  1.00  0.00     0.189 HD
BRANCH  15  17
HETATM   17  N1  UNL     1      27.206   2.262  53.608  1.00  0.00    -0.198 NA
HETATM   18  C1  UNL     1      28.509   2.220  53.734  1.00  0.00     0.173 C 
ENDBRANCH  15  17
ENDBRANCH   9  15
ENDBRANCH   7   8
ENDBRANCH   1   7
BRANCH   5  19
HETATM   19  N4  UNL     1      27.112   7.763  49.925  1.00  0.00    -0.353 N 
HETATM   20  C13 UNL     1      27.630   8.787  49.099  1.00  0.00     0.217 C 
HETATM   21  O1  UNL     1      27.027   9.188  48.083  1.00  0.00    -0.274 OA
HETATM   22  H12 UNL     1      27.641   7.445  50.773  1.00  0.00     0.163 HD
BRANCH  20  23
HETATM   23  C14 UNL     1      28.926   9.458  49.379  1.00  0.00     0.098 C 
HETATM   24  C15 UNL     1      30.099   8.591  49.040  1.00  0.00     0.014 C 
ENDBRANCH  20  23
ENDBRANCH   5  19
TORSDOF 6
ENDMDL
MODEL 8
REMARK VINA RESULT:      -6.6      3.972      7.423
REMARK  6 active torsions:
REMARK  status: ('A' for Active; 'I' for Inactive)
REMARK    1  A    between atoms: N1_2  and  N2_3 
REMARK    2  A    between atoms: N2_3  and  C2_4 
REMARK    3  A    between atoms: C7_10  and  C8_11 
REMARK    4  A    between atoms: C8_11  and  C9_12 
REMARK    5  A    between atoms: C12_16  and  N4_17 
REMARK       I    between atoms: N4_17  and  C13_18 
REMARK    6  A    between atoms: C13_18  and  C14_20 
ROOT
HETATM    1  C9  UNL     1      25.637   2.995  51.079  1.00  0.00     0.018 A 
HETATM    2  N3  UNL     1      24.687   3.688  51.657  1.00  0.00    -0.270 NA
HETATM    3  C10 UNL     1      24.332   4.982  51.169  1.00  0.00     0.114 A 
HETATM    4  C11 UNL     1      24.963   5.473  50.135  1.00  0.00     0.018 A 
HETATM    5  C12 UNL     1      26.052   4.794  49.389  1.00  0.00     0.114 A 
HETATM    6  C16 UNL     1      26.421   3.453  49.906  1.00  0.00     0.084 A 
ENDROOT
BRANCH   1   7
HETATM    7  C8  UNL     1      26.063   1.644  51.528  1.00  0.00     0.095 C 
BRANCH   7   8
HETATM    8  C7  UNL     1      25.023   0.927  52.265  1.00  0.00    -0.025 A 
HETATM    9  C2  UNL     1      25.320   0.134  53.376  1.00  0.00     0.058 A 
HETATM   10  C3  UNL     1      24.253  -0.503  54.001  1.00  0.00     0.050 A 
HETATM   11  C4  UNL     1      22.940  -0.399  53.595  1.00  0.00     0.013 A 
HETATM   12 BR1  UNL     1      21.540  -1.321  54.528  1.00  0.00    -0.051 Br
HETATM   13  C5  UNL     1      22.639   0.383  52.498  1.00  0.00     0.020 A 
HETATM   14  C6  UNL     1      23.702   1.012  51.882  1.00  0.00     0.011 A 
BRANCH   9  15
HETATM   15  N2  UNL     1      26.657  -0.003  53.831  1.00  0.00    -0.279 N 
HETATM   16  H3  UNL     1      27.052   0.718  54.442  1.00  0.00     0.189 HD
BRANCH  15  17
HETATM   17  N1  UNL     1      27.300  -1.174  53.357  1.00  0.00    -0.198 NA
HETATM   18  C1  UNL     1      28.610  -1.138  53.345  1.00  0.00     0.173 C 
ENDBRANCH  15  17
ENDBRANCH   9  15
ENDBRANCH   7   8
ENDBRANCH   1   7
BRANCH   5  19
HETATM   19  N4  UNL     1      27.246   5.623  49.318  1.00  0.00    -0.353 N 
HETATM   20  C13 UNL     1      27.253   6.721  48.427  1.00  0.00     0.217 C 
HETATM   21  O1  UNL     1      26.272   6.997  47.708  1.00  0.00    -0.274 OA
HETATM   22  H12 UNL     1      28.086   5.415  49.911  1.00  0.00     0.163 HD
BRANCH  20  23
HETATM   23  C14 UNL     1      28.425   7.623  48.282  1.00  0.00     0.098 C 
HETATM   24  C15 UNL     1      29.584   6.947  47.617  1.00  0.00     0.014 C 
ENDBRANCH  20  23
ENDBRANCH   5  19
TORSDOF 6
ENDMDL
MODEL 9
REMARK VINA RESULT:      -6.5      4.885      6.703
REMARK  6 active torsions:
REMARK  status: ('A' for Active; 'I' for Inactive)
REMARK    1  A    between atoms: N1_2  and  N2_3 
REMARK    2  A    between atoms: N2_3  and  C2_4 
REMARK    3  A    between atoms: C7_10  and  C8_11 
REMARK    4  A    between atoms: C8_11  and  C9_12 
REMARK    5  A    between atoms: C12_16  and  N4_17 
REMARK       I    between atoms: N4_17  and  C13_18 
REMARK    6  A    between atoms: C13_18  and  C14_20 
ROOT
HETATM    1  C9  UNL     1      30.028   7.220  48.010  1.00  0.00     0.018 A 
HETATM    2  N3  UNL     1      30.316   7.992  49.029  1.00  0.00    -0.270 NA
HETATM    3  C10 UNL     1      31.637   8.022  49.568  1.00  0.00     0.114 A 
HETATM    4  C11 UNL     1      32.565   7.271  49.034  1.00  0.00     0.018 A 
HETATM    5  C12 UNL     1      32.375   6.358  47.880  1.00  0.00     0.114 A 
HETATM    6  C16 UNL     1      30.997   6.326  47.329  1.00  0.00     0.084 A 
ENDROOT
BRANCH   1   7
HETATM    7  C8  UNL     1      28.679   7.134  47.394  1.00  0.00     0.095 C 
BRANCH   7   8
HETATM    8  C7  UNL     1      27.717   6.395  48.211  1.00  0.00    -0.025 A 
HETATM    9  C2  UNL     1      26.601   7.015  48.779  1.00  0.00     0.058 A 
HETATM   10  C3  UNL     1      25.753   6.216  49.538  1.00  0.00     0.050 A 
HETATM   11  C4  UNL     1      25.945   4.869  49.760  1.00  0.00     0.013 A 
HETATM   12 BR1  UNL     1      24.713   3.855  50.825  1.00  0.00    -0.051 Br
HETATM   13  C5  UNL     1      27.045   4.250  49.201  1.00  0.00     0.020 A 
HETATM   14  C6  UNL     1      27.884   5.048  48.449  1.00  0.00     0.011 A 
BRANCH   9  15
HETATM   15  N2  UNL     1      26.362   8.399  48.578  1.00  0.00    -0.279 N 
HETATM   16  H3  UNL     1      25.819   8.698  47.763  1.00  0.00     0.189 HD
BRANCH  15  17
HETATM   17  N1  UNL     1      26.933   9.224  49.579  1.00  0.00    -0.198 NA
HETATM   18  C1  UNL     1      27.546  10.299  49.148  1.00  0.00     0.173 C 
ENDBRANCH  15  17
ENDBRANCH   9  15
ENDBRANCH   7   8
ENDBRANCH   1   7
BRANCH   5  19
HETATM   19  N4  UNL     1      32.791   5.001  48.200  1.00  0.00    -0.353 N 
HETATM   20  C13 UNL     1      33.914   4.465  47.529  1.00  0.00     0.217 C 
HETATM   21  O1  UNL     1      34.552   5.117  46.678  1.00  0.00    -0.274 OA
HETATM   22  H12 UNL     1      32.274   4.429  48.911  1.00  0.00     0.163 HD
BRANCH  20  23
HETATM   23  C14 UNL     1      34.415   3.089  47.786  1.00  0.00     0.098 C 
HETATM   24  C15 UNL     1      33.303   2.097  47.927  1.00  0.00     0.014 C 
ENDBRANCH  20  23
ENDBRANCH   5  19
TORSDOF 6
ENDMDL
