MODEL 1
REMARK VINA RESULT:      -9.4      0.000      0.000
REMARK  2 active torsions:
REMARK  status: ('A' for Active; 'I' for Inactive)
REMARK    1  A    between atoms: C7_9  and  C8_10 
REMARK    2  A    between atoms: C8_10  and  C9_11 
ROOT
HETATM    1  C9  UNL     1      25.129   3.682  50.260  1.00  0.00     0.040 C 
HETATM    2  N1  UNL     1      24.278   2.988  50.904  1.00  0.00    -0.139 NA
HETATM    3  N2  UNL     1      22.936   3.093  50.909  1.00  0.00    -0.043 NA
HETATM    4  N3  UNL     1      22.063   2.391  51.502  1.00  0.00    -0.131 NA
HETATM    5  C10 UNL     1      22.326   1.284  52.331  1.00  0.00     0.081 A 
HETATM    6  C11 UNL     1      21.343   0.322  52.587  1.00  0.00     0.033 A 
HETATM    7  C12 UNL     1      21.560  -0.814  53.379  1.00  0.00     0.003 A 
HETATM    8  C13 UNL     1      22.773  -1.079  53.976  1.00  0.00     0.007 A 
HETATM    9  C14 UNL     1      23.828  -0.229  53.815  1.00  0.00    -0.052 A 
HETATM   10  C15 UNL     1      23.419   0.814  53.015  1.00  0.00     0.040 A 
HETATM   11  C16 UNL     1      25.280  -0.104  54.180  1.00  0.00     0.065 C 
HETATM   12  C17 UNL     1      26.079  -1.053  53.319  1.00  0.00    -0.026 C 
HETATM   13  C18 UNL     1      26.602  -0.460  52.201  1.00  0.00    -0.025 C 
HETATM   14  C19 UNL     1      26.780   0.765  51.356  1.00  0.00     0.043 C 
HETATM   15  C20 UNL     1      26.342   2.053  51.549  1.00  0.00    -0.014 C 
HETATM   16  C21 UNL     1      26.553   3.187  50.630  1.00  0.00     0.058 C 
ENDROOT
BRANCH   1  17
HETATM   17  C8  UNL     1      25.208   4.818  49.296  1.00  0.00     0.086 C 
BRANCH  17  18
HETATM   18  C7  UNL     1      26.648   4.986  48.946  1.00  0.00     0.019 C 
HETATM   19  C6  UNL     1      27.110   6.079  48.374  1.00  0.00     0.098 C 
HETATM   20  C3  UNL     1      28.514   6.247  48.031  1.00  0.00     0.097 C 
HETATM   21  O2  UNL     1      26.206   7.096  48.098  1.00  0.00    -0.346 OA
HETATM   22  C2  UNL     1      29.396   5.310  48.276  1.00  0.00     0.008 C 
HETATM   23  O1  UNL     1      28.903   7.434  47.432  1.00  0.00    -0.347 OA
HETATM   24  C1  UNL     1      30.812   5.570  47.890  1.00  0.00     0.039 C 
HETATM   25  C4  UNL     1      27.866   8.210  46.828  1.00  0.00     0.202 C 
HETATM   26  C5  UNL     1      26.760   8.389  47.851  1.00  0.00     0.202 C 
ENDBRANCH  17  18
ENDBRANCH   1  17
TORSDOF 2
ENDMDL
MODEL 2
REMARK VINA RESULT:      -9.4      1.684      3.562
REMARK  2 active torsions:
REMARK  status: ('A' for Active; 'I' for Inactive)
REMARK    1  A    between atoms: C7_9  and  C8_10 
REMARK    2  A    between atoms: C8_10  and  C9_11 
ROOT
HETATM    1  C9  UNL     1      25.395   2.502  50.686  1.00  0.00     0.040 C 
HETATM    2  N1  UNL     1      25.075   1.606  51.532  1.00  0.00    -0.139 NA
HETATM    3  N2  UNL     1      25.878   0.787  52.237  1.00  0.00    -0.043 NA
HETATM    4  N3  UNL     1      25.593  -0.081  53.116  1.00  0.00    -0.131 NA
HETATM    5  C10 UNL     1      24.297  -0.390  53.572  1.00  0.00     0.081 A 
HETATM    6  C11 UNL     1      24.095  -1.014  54.807  1.00  0.00     0.033 A 
HETATM    7  C12 UNL     1      22.828  -1.316  55.323  1.00  0.00     0.003 A 
HETATM    8  C13 UNL     1      21.665  -1.020  54.648  1.00  0.00     0.007 A 
HETATM    9  C14 UNL     1      21.704  -0.409  53.429  1.00  0.00    -0.052 A 
HETATM   10  C15 UNL     1      23.024  -0.199  53.099  1.00  0.00     0.040 A 
HETATM   11  C16 UNL     1      20.781   0.147  52.383  1.00  0.00     0.065 C 
HETATM   12  C17 UNL     1      20.220   1.458  52.878  1.00  0.00    -0.026 C 
HETATM   13  C18 UNL     1      20.919   2.548  52.434  1.00  0.00    -0.025 C 
HETATM   14  C19 UNL     1      22.055   3.113  51.634  1.00  0.00     0.043 C 
HETATM   15  C20 UNL     1      22.996   2.484  50.856  1.00  0.00    -0.014 C 
HETATM   16  C21 UNL     1      24.096   3.141  50.126  1.00  0.00     0.058 C 
ENDROOT
BRANCH   1  17
HETATM   17  C8  UNL     1      26.595   3.116  50.045  1.00  0.00     0.086 C 
BRANCH  17  18
HETATM   18  C7  UNL     1      26.144   4.395  49.425  1.00  0.00     0.019 C 
HETATM   19  C6  UNL     1      26.989   5.257  48.897  1.00  0.00     0.098 C 
HETATM   20  C3  UNL     1      26.553   6.506  48.291  1.00  0.00     0.097 C 
HETATM   21  O2  UNL     1      28.341   4.941  48.932  1.00  0.00    -0.346 OA
HETATM   22  C2  UNL     1      25.287   6.837  48.240  1.00  0.00     0.008 C 
HETATM   23  O1  UNL     1      27.518   7.348  47.762  1.00  0.00    -0.347 OA
HETATM   24  C1  UNL     1      24.933   8.136  47.600  1.00  0.00     0.039 C 
HETATM   25  C4  UNL     1      28.859   7.138  48.211  1.00  0.00     0.202 C 
HETATM   26  C5  UNL     1      29.185   5.667  48.037  1.00  0.00     0.202 C 
ENDBRANCH  17  18
ENDBRANCH   1  17
TORSDOF 2
ENDMDL
MODEL 3
REMARK VINA RESULT:      -9.0      1.633      3.301
REMARK  2 active torsions:
REMARK  status: ('A' for Active; 'I' for Inactive)
REMARK    1  A    between atoms: C7_9  and  C8_10 
REMARK    2  A    between atoms: C8_10  and  C9_11 
ROOT
HETATM    1  C9  UNL     1      24.976   2.199  51.139  1.00  0.00     0.040 C 
HETATM    2  N1  UNL     1      23.725   2.005  51.005  1.00  0.00    -0.139 NA
HETATM    3  N2  UNL     1      22.923   2.351  49.981  1.00  0.00    -0.043 NA
HETATM    4  N3  UNL     1      21.688   2.133  49.800  1.00  0.00    -0.131 NA
HETATM    5  C10 UNL     1      20.840   1.439  50.683  1.00  0.00     0.081 A 
HETATM    6  C11 UNL     1      19.641   0.871  50.238  1.00  0.00     0.033 A 
HETATM    7  C12 UNL     1      18.776   0.143  51.066  1.00  0.00     0.003 A 
HETATM    8  C13 UNL     1      19.038  -0.075  52.400  1.00  0.00     0.007 A 
HETATM    9  C14 UNL     1      20.172   0.419  52.976  1.00  0.00    -0.052 A 
HETATM   10  C15 UNL     1      20.881   1.097  52.011  1.00  0.00     0.040 A 
HETATM   11  C16 UNL     1      20.902   0.409  54.289  1.00  0.00     0.065 C 
HETATM   12  C17 UNL     1      21.553  -0.942  54.470  1.00  0.00    -0.026 C 
HETATM   13  C18 UNL     1      22.860  -0.971  54.066  1.00  0.00    -0.025 C 
HETATM   14  C19 UNL     1      24.048  -0.260  53.489  1.00  0.00     0.043 C 
HETATM   15  C20 UNL     1      24.202   1.049  53.105  1.00  0.00    -0.014 C 
HETATM   16  C21 UNL     1      25.418   1.643  52.519  1.00  0.00     0.058 C 
ENDROOT
BRANCH   1  17
HETATM   17  C8  UNL     1      26.139   2.800  50.424  1.00  0.00     0.086 C 
BRANCH  17  18
HETATM   18  C7  UNL     1      25.648   4.048  49.774  1.00  0.00     0.019 C 
HETATM   19  C6  UNL     1      26.460   4.902  49.185  1.00  0.00     0.098 C 
HETATM   20  C3  UNL     1      25.983   6.122  48.550  1.00  0.00     0.097 C 
HETATM   21  O2  UNL     1      27.817   4.607  49.183  1.00  0.00    -0.346 OA
HETATM   22  C2  UNL     1      24.712   6.433  48.531  1.00  0.00     0.008 C 
HETATM   23  O1  UNL     1      26.917   6.957  47.957  1.00  0.00    -0.347 OA
HETATM   24  C1  UNL     1      24.316   7.702  47.858  1.00  0.00     0.039 C 
HETATM   25  C4  UNL     1      28.275   6.783  48.366  1.00  0.00     0.202 C 
HETATM   26  C5  UNL     1      28.618   5.311  48.233  1.00  0.00     0.202 C 
ENDBRANCH  17  18
ENDBRANCH   1  17
TORSDOF 2
ENDMDL
MODEL 4
REMARK VINA RESULT:      -8.9      1.631      3.494
REMARK  2 active torsions:
REMARK  status: ('A' for Active; 'I' for Inactive)
REMARK    1  A    between atoms: C7_9  and  C8_10 
REMARK    2  A    between atoms: C8_10  and  C9_11 
ROOT
HETATM    1  C9  UNL     1      25.943   3.190  50.082  1.00  0.00     0.040 C 
HETATM    2  N1  UNL     1      25.864   2.275  50.963  1.00  0.00    -0.139 NA
HETATM    3  N2  UNL     1      26.860   1.619  51.588  1.00  0.00    -0.043 NA
HETATM    4  N3  UNL     1      26.814   0.739  52.499  1.00  0.00    -0.131 NA
HETATM    5  C10 UNL     1      25.641   0.229  53.088  1.00  0.00     0.081 A 
HETATM    6  C11 UNL     1      25.672  -0.389  54.343  1.00  0.00     0.033 A 
HETATM    7  C12 UNL     1      24.532  -0.885  54.988  1.00  0.00     0.003 A 
HETATM    8  C13 UNL     1      23.274  -0.804  54.434  1.00  0.00     0.007 A 
HETATM    9  C14 UNL     1      23.088  -0.226  53.212  1.00  0.00    -0.052 A 
HETATM   10  C15 UNL     1      24.313   0.192  52.746  1.00  0.00     0.040 A 
HETATM   11  C16 UNL     1      21.984   0.141  52.262  1.00  0.00     0.065 C 
HETATM   12  C17 UNL     1      21.262   1.352  52.801  1.00  0.00    -0.026 C 
HETATM   13  C18 UNL     1      21.720   2.532  52.279  1.00  0.00    -0.025 C 
HETATM   14  C19 UNL     1      22.658   3.258  51.362  1.00  0.00     0.043 C 
HETATM   15  C20 UNL     1      23.610   2.776  50.497  1.00  0.00    -0.014 C 
HETATM   16  C21 UNL     1      24.505   3.589  49.653  1.00  0.00     0.058 C 
ENDROOT
BRANCH   1  17
HETATM   17  C8  UNL     1      26.951   3.980  49.317  1.00  0.00     0.086 C 
BRANCH  17  18
HETATM   18  C7  UNL     1      26.304   5.274  48.959  1.00  0.00     0.019 C 
HETATM   19  C6  UNL     1      26.989   6.300  48.496  1.00  0.00     0.098 C 
HETATM   20  C3  UNL     1      26.360   7.565  48.146  1.00  0.00     0.097 C 
HETATM   21  O2  UNL     1      28.360   6.146  48.345  1.00  0.00    -0.346 OA
HETATM   22  C2  UNL     1      25.070   7.747  48.275  1.00  0.00     0.008 C 
HETATM   23  O1  UNL     1      27.167   8.585  47.668  1.00  0.00    -0.347 OA
HETATM   24  C1  UNL     1      24.514   9.076  47.892  1.00  0.00     0.039 C 
HETATM   25  C4  UNL     1      28.565   8.471  47.942  1.00  0.00     0.202 C 
HETATM   26  C5  UNL     1      29.017   7.092  47.500  1.00  0.00     0.202 C 
ENDBRANCH  17  18
ENDBRANCH   1  17
TORSDOF 2
ENDMDL
MODEL 5
REMARK VINA RESULT:      -8.8      1.424      3.084
REMARK  2 active torsions:
REMARK  status: ('A' for Active; 'I' for Inactive)
REMARK    1  A    between atoms: C7_9  and  C8_10 
REMARK    2  A    between atoms: C8_10  and  C9_11 
ROOT
HETATM    1  C9  UNL     1      24.612   3.998  49.912  1.00  0.00     0.040 C 
HETATM    2  N1  UNL     1      25.258   3.222  50.686  1.00  0.00    -0.139 NA
HETATM    3  N2  UNL     1      26.578   3.199  50.948  1.00  0.00    -0.043 NA
HETATM    4  N3  UNL     1      27.242   2.471  51.745  1.00  0.00    -0.131 NA
HETATM    5  C10 UNL     1      26.707   1.470  52.578  1.00  0.00     0.081 A 
HETATM    6  C11 UNL     1      27.400   1.025  53.709  1.00  0.00     0.033 A 
HETATM    7  C12 UNL     1      26.901   0.054  54.589  1.00  0.00     0.003 A 
HETATM    8  C13 UNL     1      25.676  -0.547  54.410  1.00  0.00     0.007 A 
HETATM    9  C14 UNL     1      24.885  -0.213  53.348  1.00  0.00    -0.052 A 
HETATM   10  C15 UNL     1      25.544   0.744  52.610  1.00  0.00     0.040 A 
HETATM   11  C16 UNL     1      23.529  -0.512  52.776  1.00  0.00     0.065 C 
HETATM   12  C17 UNL     1      22.485   0.192  53.609  1.00  0.00    -0.026 C 
HETATM   13  C18 UNL     1      22.118   1.409  53.101  1.00  0.00    -0.025 C 
HETATM   14  C19 UNL     1      22.259   2.459  52.040  1.00  0.00     0.043 C 
HETATM   15  C20 UNL     1      23.032   2.480  50.904  1.00  0.00    -0.014 C 
HETATM   16  C21 UNL     1      23.115   3.586  49.933  1.00  0.00     0.058 C 
ENDROOT
BRANCH   1  17
HETATM   17  C8  UNL     1      24.821   5.147  48.982  1.00  0.00     0.086 C 
BRANCH  17  18
HETATM   18  C7  UNL     1      26.284   5.210  48.699  1.00  0.00     0.019 C 
HETATM   19  C6  UNL     1      26.965   6.336  48.765  1.00  0.00     0.098 C 
HETATM   20  C3  UNL     1      28.393   6.402  48.489  1.00  0.00     0.097 C 
HETATM   21  O2  UNL     1      26.276   7.489  49.113  1.00  0.00    -0.346 OA
HETATM   22  C2  UNL     1      29.076   5.335  48.158  1.00  0.00     0.008 C 
HETATM   23  O1  UNL     1      29.021   7.633  48.585  1.00  0.00    -0.347 OA
HETATM   24  C1  UNL     1      30.534   5.498  47.893  1.00  0.00     0.039 C 
HETATM   25  C4  UNL     1      28.174   8.783  48.535  1.00  0.00     0.202 C 
HETATM   26  C5  UNL     1      27.067   8.594  49.555  1.00  0.00     0.202 C 
ENDBRANCH  17  18
ENDBRANCH   1  17
TORSDOF 2
ENDMDL
MODEL 6
REMARK VINA RESULT:      -8.7      1.704      3.585
REMARK  2 active torsions:
REMARK  status: ('A' for Active; 'I' for Inactive)
REMARK    1  A    between atoms: C7_9  and  C8_10 
REMARK    2  A    between atoms: C8_10  and  C9_11 
ROOT
HETATM    1  C9  UNL     1      22.856   2.939  50.230  1.00  0.00     0.040 C 
HETATM    2  N1  UNL     1      23.630   2.289  51.003  1.00  0.00    -0.139 NA
HETATM    3  N2  UNL     1      24.972   2.344  51.094  1.00  0.00    -0.043 NA
HETATM    4  N3  UNL     1      25.764   1.744  51.882  1.00  0.00    -0.131 NA
HETATM    5  C10 UNL     1      25.386   0.839  52.891  1.00  0.00     0.081 A 
HETATM    6  C11 UNL     1      26.233   0.563  53.970  1.00  0.00     0.033 A 
HETATM    7  C12 UNL     1      25.895  -0.304  55.017  1.00  0.00     0.003 A 
HETATM    8  C13 UNL     1      24.687  -0.964  55.070  1.00  0.00     0.007 A 
HETATM    9  C14 UNL     1      23.757  -0.793  54.086  1.00  0.00    -0.052 A 
HETATM   10  C15 UNL     1      24.272   0.084  53.159  1.00  0.00     0.040 A 
HETATM   11  C16 UNL     1      22.357  -1.208  53.733  1.00  0.00     0.065 C 
HETATM   12  C17 UNL     1      21.390  -0.439  54.601  1.00  0.00    -0.026 C 
HETATM   13  C18 UNL     1      20.904   0.691  54.001  1.00  0.00    -0.025 C 
HETATM   14  C19 UNL     1      20.862   1.602  52.811  1.00  0.00     0.043 C 
HETATM   15  C20 UNL     1      21.488   1.506  51.592  1.00  0.00    -0.014 C 
HETATM   16  C21 UNL     1      21.396   2.483  50.492  1.00  0.00     0.058 C 
ENDROOT
BRANCH   1  17
HETATM   17  C8  UNL     1      22.893   3.968  49.149  1.00  0.00     0.086 C 
BRANCH  17  18
HETATM   18  C7  UNL     1      24.322   4.353  48.970  1.00  0.00     0.019 C 
HETATM   19  C6  UNL     1      24.788   5.526  49.348  1.00  0.00     0.098 C 
HETATM   20  C3  UNL     1      26.183   5.905  49.174  1.00  0.00     0.097 C 
HETATM   21  O2  UNL     1      23.898   6.417  49.932  1.00  0.00    -0.346 OA
HETATM   22  C2  UNL     1      27.051   5.092  48.628  1.00  0.00     0.008 C 
HETATM   23  O1  UNL     1      26.576   7.162  49.604  1.00  0.00    -0.347 OA
HETATM   24  C1  UNL     1      28.457   5.565  48.491  1.00  0.00     0.039 C 
HETATM   25  C4  UNL     1      25.535   8.123  49.794  1.00  0.00     0.202 C 
HETATM   26  C5  UNL     1      24.472   7.494  50.674  1.00  0.00     0.202 C 
ENDBRANCH  17  18
ENDBRANCH   1  17
TORSDOF 2
ENDMDL
MODEL 7
REMARK VINA RESULT:      -8.7      5.643     10.431
REMARK  2 active torsions:
REMARK  status: ('A' for Active; 'I' for Inactive)
REMARK    1  A    between atoms: C7_9  and  C8_10 
REMARK    2  A    between atoms: C8_10  and  C9_11 
ROOT
HETATM    1  C9  UNL     1      20.537  -0.606  53.124  1.00  0.00     0.040 C 
HETATM    2  N1  UNL     1      21.772  -0.300  53.107  1.00  0.00    -0.139 NA
HETATM    3  N2  UNL     1      22.770  -0.780  53.873  1.00  0.00    -0.043 NA
HETATM    4  N3  UNL     1      24.013  -0.529  53.849  1.00  0.00    -0.131 NA
HETATM    5  C10 UNL     1      24.653   0.358  52.963  1.00  0.00     0.081 A 
HETATM    6  C11 UNL     1      26.025   0.259  52.706  1.00  0.00     0.033 A 
HETATM    7  C12 UNL     1      26.706   1.094  51.811  1.00  0.00     0.003 A 
HETATM    8  C13 UNL     1      26.074   2.091  51.102  1.00  0.00     0.007 A 
HETATM    9  C14 UNL     1      24.734   2.307  51.248  1.00  0.00    -0.052 A 
HETATM   10  C15 UNL     1      24.252   1.397  52.161  1.00  0.00     0.040 A 
HETATM   11  C16 UNL     1      23.634   3.167  50.696  1.00  0.00     0.065 C 
HETATM   12  C17 UNL     1      23.272   2.667  49.318  1.00  0.00    -0.026 C 
HETATM   13  C18 UNL     1      22.211   1.802  49.317  1.00  0.00    -0.025 C 
HETATM   14  C19 UNL     1      21.154   1.057  50.077  1.00  0.00     0.043 C 
HETATM   15  C20 UNL     1      20.852   1.059  51.417  1.00  0.00    -0.014 C 
HETATM   16  C21 UNL     1      19.798   0.259  52.069  1.00  0.00     0.058 C 
ENDROOT
BRANCH   1  17
HETATM   17  C8  UNL     1      19.573  -1.496  53.834  1.00  0.00     0.086 C 
BRANCH  17  18
HETATM   18  C7  UNL     1      18.235  -1.259  53.219  1.00  0.00     0.019 C 
HETATM   19  C6  UNL     1      17.330  -2.211  53.114  1.00  0.00     0.098 C 
HETATM   20  C3  UNL     1      16.024  -1.984  52.514  1.00  0.00     0.097 C 
HETATM   21  O2  UNL     1      17.656  -3.470  53.602  1.00  0.00    -0.346 OA
HETATM   22  C2  UNL     1      15.681  -0.811  52.044  1.00  0.00     0.008 C 
HETATM   23  O1  UNL     1      15.140  -3.049  52.450  1.00  0.00    -0.347 OA
HETATM   24  C1  UNL     1      14.322  -0.671  51.447  1.00  0.00     0.039 C 
HETATM   25  C4  UNL     1      15.707  -4.354  52.588  1.00  0.00     0.202 C 
HETATM   26  C5  UNL     1      16.566  -4.362  53.838  1.00  0.00     0.202 C 
ENDBRANCH  17  18
ENDBRANCH   1  17
TORSDOF 2
ENDMDL
MODEL 8
REMARK VINA RESULT:      -8.6      3.232      8.600
REMARK  2 active torsions:
REMARK  status: ('A' for Active; 'I' for Inactive)
REMARK    1  A    between atoms: C7_9  and  C8_10 
REMARK    2  A    between atoms: C8_10  and  C9_11 
ROOT
HETATM    1  C9  UNL     1      23.332   3.295  49.571  1.00  0.00     0.040 C 
HETATM    2  N1  UNL     1      24.505   3.766  49.421  1.00  0.00    -0.139 NA
HETATM    3  N2  UNL     1      25.689   3.173  49.664  1.00  0.00    -0.043 NA
HETATM    4  N3  UNL     1      26.869   3.599  49.483  1.00  0.00    -0.131 NA
HETATM    5  C10 UNL     1      27.215   4.858  48.956  1.00  0.00     0.081 A 
HETATM    6  C11 UNL     1      28.474   5.084  48.391  1.00  0.00     0.033 A 
HETATM    7  C12 UNL     1      28.860   6.307  47.825  1.00  0.00     0.003 A 
HETATM    8  C13 UNL     1      28.020   7.397  47.778  1.00  0.00     0.007 A 
HETATM    9  C14 UNL     1      26.757   7.326  48.291  1.00  0.00    -0.052 A 
HETATM   10  C15 UNL     1      26.573   6.059  48.796  1.00  0.00     0.040 A 
HETATM   11  C16 UNL     1      25.514   8.158  48.423  1.00  0.00     0.065 C 
HETATM   12  C17 UNL     1      24.826   8.219  47.081  1.00  0.00    -0.026 C 
HETATM   13  C18 UNL     1      23.841   7.280  46.933  1.00  0.00    -0.025 C 
HETATM   14  C19 UNL     1      23.055   6.136  47.501  1.00  0.00     0.043 C 
HETATM   15  C20 UNL     1      23.115   5.541  48.738  1.00  0.00    -0.014 C 
HETATM   16  C21 UNL     1      22.305   4.394  49.187  1.00  0.00     0.058 C 
ENDROOT
BRANCH   1  17
HETATM   17  C8  UNL     1      22.628   2.056  50.013  1.00  0.00     0.086 C 
BRANCH  17  18
HETATM   18  C7  UNL     1      23.429   1.480  51.130  1.00  0.00     0.019 C 
HETATM   19  C6  UNL     1      22.871   0.846  52.142  1.00  0.00     0.098 C 
HETATM   20  C3  UNL     1      23.650   0.283  53.235  1.00  0.00     0.097 C 
HETATM   21  O2  UNL     1      21.489   0.723  52.144  1.00  0.00    -0.346 OA
HETATM   22  C2  UNL     1      24.956   0.379  53.266  1.00  0.00     0.008 C 
HETATM   23  O1  UNL     1      22.972  -0.366  54.254  1.00  0.00    -0.347 OA
HETATM   24  C1  UNL     1      25.670  -0.228  54.425  1.00  0.00     0.039 C 
HETATM   25  C4  UNL     1      21.577  -0.078  54.372  1.00  0.00     0.202 C 
HETATM   26  C5  UNL     1      20.941  -0.274  53.009  1.00  0.00     0.202 C 
ENDBRANCH  17  18
ENDBRANCH   1  17
TORSDOF 2
ENDMDL
MODEL 9
REMARK VINA RESULT:      -8.5      5.287      8.254
REMARK  2 active torsions:
REMARK  status: ('A' for Active; 'I' for Inactive)
REMARK    1  A    between atoms: C7_9  and  C8_10 
REMARK    2  A    between atoms: C8_10  and  C9_11 
ROOT
HETATM    1  C9  UNL     1      31.480   7.687  48.170  1.00  0.00     0.040 C 
HETATM    2  N1  UNL     1      30.459   6.930  48.234  1.00  0.00    -0.139 NA
HETATM    3  N2  UNL     1      30.397   5.588  48.145  1.00  0.00    -0.043 NA
HETATM    4  N3  UNL     1      29.405   4.806  48.250  1.00  0.00    -0.131 NA
HETATM    5  C10 UNL     1      28.076   5.197  48.499  1.00  0.00     0.081 A 
HETATM    6  C11 UNL     1      27.143   4.296  49.022  1.00  0.00     0.033 A 
HETATM    7  C12 UNL     1      25.817   4.640  49.318  1.00  0.00     0.003 A 
HETATM    8  C13 UNL     1      25.319   5.908  49.115  1.00  0.00     0.007 A 
HETATM    9  C14 UNL     1      26.114   6.895  48.609  1.00  0.00    -0.052 A 
HETATM   10  C15 UNL     1      27.364   6.364  48.385  1.00  0.00     0.040 A 
HETATM   11  C16 UNL     1      26.071   8.360  48.280  1.00  0.00     0.065 C 
HETATM   12  C17 UNL     1      26.133   9.148  49.567  1.00  0.00    -0.026 C 
HETATM   13  C18 UNL     1      27.400   9.548  49.896  1.00  0.00    -0.025 C 
HETATM   14  C19 UNL     1      28.864   9.588  49.575  1.00  0.00     0.043 C 
HETATM   15  C20 UNL     1      29.553   9.089  48.496  1.00  0.00    -0.014 C 
HETATM   16  C21 UNL     1      31.012   9.162  48.291  1.00  0.00     0.058 C 
ENDROOT
BRANCH   1  17
HETATM   17  C8  UNL     1      32.961   7.624  47.994  1.00  0.00     0.086 C 
BRANCH  17  18
HETATM   18  C7  UNL     1      33.211   6.964  46.681  1.00  0.00     0.019 C 
HETATM   19  C6  UNL     1      33.706   5.747  46.588  1.00  0.00     0.098 C 
HETATM   20  C3  UNL     1      33.952   5.099  45.308  1.00  0.00     0.097 C 
HETATM   21  O2  UNL     1      33.997   5.076  47.768  1.00  0.00    -0.346 OA
HETATM   22  C2  UNL     1      33.690   5.701  44.175  1.00  0.00     0.008 C 
HETATM   23  O1  UNL     1      34.476   3.817  45.315  1.00  0.00    -0.347 OA
HETATM   24  C1  UNL     1      33.974   4.961  42.913  1.00  0.00     0.039 C 
HETATM   25  C4  UNL     1      35.111   3.396  46.524  1.00  0.00     0.202 C 
HETATM   26  C5  UNL     1      34.154   3.659  47.671  1.00  0.00     0.202 C 
ENDBRANCH  17  18
ENDBRANCH   1  17
TORSDOF 2
ENDMDL
