MODEL 1
REMARK VINA RESULT:      -8.0      0.000      0.000
REMARK  5 active torsions:
REMARK  status: ('A' for Active; 'I' for Inactive)
REMARK    1  A    between atoms: C11_11  and  O1_12 
REMARK    2  A    between atoms: O1_12  and  C12_13 
REMARK    3  A    between atoms: C12_13  and  C13_14 
REMARK    4  A    between atoms: C13_14  and  O2_15 
REMARK    5  A    between atoms: C15_17  and  O3_18 
ROOT
HETATM    1  C1  UNL     1      22.052  -0.193  54.236  1.00  0.00     0.018 C 
HETATM    2  C2  UNL     1      22.026   0.192  53.085  1.00  0.00    -0.077 C 
HETATM    3  C3  UNL     1      21.971   0.640  51.725  1.00  0.00     0.031 A 
HETATM    4  C4  UNL     1      21.035   0.252  50.803  1.00  0.00     0.022 A 
HETATM    5  C5  UNL     1      21.065   0.740  49.526  1.00  0.00     0.004 A 
HETATM    6  C6  UNL     1      22.023   1.631  49.109  1.00  0.00     0.030 A 
HETATM    7  C7  UNL     1      22.971   2.030  50.028  1.00  0.00     0.047 A 
HETATM    8  C8  UNL     1      22.927   1.517  51.347  1.00  0.00     0.038 A 
HETATM    9  C9  UNL     1      23.882   1.846  52.453  1.00  0.00     0.074 C 
HETATM   10  C10 UNL     1      24.643   0.890  53.099  1.00  0.00     0.072 C 
HETATM   11  C11 UNL     1      25.732   1.025  52.248  1.00  0.00     0.106 C 
HETATM   12  C15 UNL     1      26.517   1.872  51.472  1.00  0.00     0.125 C 
HETATM   13  C16 UNL     1      26.359   2.137  50.117  1.00  0.00     0.045 C 
HETATM   14  C17 UNL     1      26.354   3.366  49.488  1.00  0.00     0.053 C 
HETATM   15  C18 UNL     1      25.043   3.552  49.878  1.00  0.00     0.129 C 
HETATM   16  N1  UNL     1      25.098   4.420  50.956  1.00  0.00    -0.225 NA
HETATM   17  C19 UNL     1      24.723   4.164  52.261  1.00  0.00     0.235 C 
HETATM   18  N2  UNL     1      24.130   3.119  52.946  1.00  0.00    -0.241 NA
HETATM   19  N3  UNL     1      23.833   2.963  49.310  1.00  0.00    -0.340 N 
HETATM   20  H16 UNL     1      23.457   3.127  48.373  1.00  0.00     0.167 HD
ENDROOT
BRANCH  11  21
HETATM   21  O1  UNL     1      26.588  -0.013  51.829  1.00  0.00    -0.346 OA
BRANCH  21  22
HETATM   22  C12 UNL     1      26.514  -1.326  52.352  1.00  0.00     0.201 C 
BRANCH  22  23
HETATM   23  C13 UNL     1      27.893  -1.786  52.738  1.00  0.00     0.193 C 
BRANCH  23  24
HETATM   24  O2  UNL     1      28.413  -1.235  53.868  1.00  0.00    -0.394 OA
HETATM   25  C14 UNL     1      29.660  -0.684  53.776  1.00  0.00     0.201 C 
ENDBRANCH  23  24
ENDBRANCH  22  23
ENDBRANCH  21  22
ENDBRANCH  11  21
BRANCH  12  26
HETATM   26  O3  UNL     1      27.592   2.546  52.086  1.00  0.00    -0.238 OA
HETATM   27 CL1  UNL     1      27.957   2.459  53.744  1.00  0.00     0.067 Cl
ENDBRANCH  12  26
TORSDOF 5
ENDMDL
MODEL 2
REMARK VINA RESULT:      -7.6      2.462      5.072
REMARK  5 active torsions:
REMARK  status: ('A' for Active; 'I' for Inactive)
REMARK    1  A    between atoms: C11_11  and  O1_12 
REMARK    2  A    between atoms: O1_12  and  C12_13 
REMARK    3  A    between atoms: C12_13  and  C13_14 
REMARK    4  A    between atoms: C13_14  and  O2_15 
REMARK    5  A    between atoms: C15_17  and  O3_18 
ROOT
HETATM    1  C1  UNL     1      28.035   5.060  48.358  1.00  0.00     0.018 C 
HETATM    2  C2  UNL     1      27.111   5.578  48.948  1.00  0.00    -0.077 C 
HETATM    3  C3  UNL     1      26.024   6.212  49.636  1.00  0.00     0.031 A 
HETATM    4  C4  UNL     1      25.928   7.554  49.891  1.00  0.00     0.022 A 
HETATM    5  C5  UNL     1      24.846   8.065  50.555  1.00  0.00     0.004 A 
HETATM    6  C6  UNL     1      23.817   7.269  50.992  1.00  0.00     0.030 A 
HETATM    7  C7  UNL     1      23.902   5.915  50.740  1.00  0.00     0.047 A 
HETATM    8  C8  UNL     1      25.028   5.400  50.053  1.00  0.00     0.038 A 
HETATM    9  C9  UNL     1      25.270   3.962  49.710  1.00  0.00     0.074 C 
HETATM   10  C10 UNL     1      26.378   3.262  50.145  1.00  0.00     0.072 C 
HETATM   11  C11 UNL     1      25.761   2.784  51.294  1.00  0.00     0.106 C 
HETATM   12  C15 UNL     1      24.592   2.326  51.894  1.00  0.00     0.125 C 
HETATM   13  C16 UNL     1      23.670   3.089  52.601  1.00  0.00     0.045 C 
HETATM   14  C17 UNL     1      22.296   3.096  52.470  1.00  0.00     0.053 C 
HETATM   15  C18 UNL     1      22.413   3.908  51.360  1.00  0.00     0.129 C 
HETATM   16  N1  UNL     1      22.229   3.073  50.271  1.00  0.00    -0.225 NA
HETATM   17  C19 UNL     1      23.147   2.766  49.283  1.00  0.00     0.235 C 
HETATM   18  N2  UNL     1      24.427   3.168  48.946  1.00  0.00    -0.241 NA
HETATM   19  N3  UNL     1      22.686   5.342  51.307  1.00  0.00    -0.340 N 
HETATM   20  H16 UNL     1      22.080   6.091  51.649  1.00  0.00     0.167 HD
ENDROOT
BRANCH  11  21
HETATM   21  O1  UNL     1      26.380   2.582  52.543  1.00  0.00    -0.346 OA
BRANCH  21  22
HETATM   22  C12 UNL     1      27.509   1.745  52.713  1.00  0.00     0.201 C 
BRANCH  22  23
HETATM   23  C13 UNL     1      28.494   2.418  53.627  1.00  0.00     0.193 C 
BRANCH  23  24
HETATM   24  O2  UNL     1      29.026   1.642  54.610  1.00  0.00    -0.394 OA
HETATM   25  C14 UNL     1      28.505   0.390  54.766  1.00  0.00     0.201 C 
ENDBRANCH  23  24
ENDBRANCH  22  23
ENDBRANCH  21  22
ENDBRANCH  11  21
BRANCH  12  26
HETATM   26  O3  UNL     1      24.276   0.956  51.798  1.00  0.00    -0.238 OA
HETATM   27 CL1  UNL     1      24.096  -0.081  53.133  1.00  0.00     0.067 Cl
ENDBRANCH  12  26
TORSDOF 5
ENDMDL
MODEL 3
REMARK VINA RESULT:      -6.9      3.767      6.474
REMARK  5 active torsions:
REMARK  status: ('A' for Active; 'I' for Inactive)
REMARK    1  A    between atoms: C11_11  and  O1_12 
REMARK    2  A    between atoms: O1_12  and  C12_13 
REMARK    3  A    between atoms: C12_13  and  C13_14 
REMARK    4  A    between atoms: C13_14  and  O2_15 
REMARK    5  A    between atoms: C15_17  and  O3_18 
ROOT
HETATM    1  C1  UNL     1      26.446   3.204  50.594  1.00  0.00     0.018 C 
HETATM    2  C2  UNL     1      25.773   2.411  51.218  1.00  0.00    -0.077 C 
HETATM    3  C3  UNL     1      24.997   1.466  51.967  1.00  0.00     0.031 A 
HETATM    4  C4  UNL     1      25.495   0.348  52.583  1.00  0.00     0.022 A 
HETATM    5  C5  UNL     1      24.672  -0.494  53.279  1.00  0.00     0.004 A 
HETATM    6  C6  UNL     1      23.323  -0.263  53.394  1.00  0.00     0.030 A 
HETATM    7  C7  UNL     1      22.810   0.859  52.779  1.00  0.00     0.047 A 
HETATM    8  C8  UNL     1      23.674   1.722  52.061  1.00  0.00     0.038 A 
HETATM    9  C9  UNL     1      23.272   2.970  51.337  1.00  0.00     0.074 C 
HETATM   10  C10 UNL     1      23.480   3.154  49.984  1.00  0.00     0.072 C 
HETATM   11  C11 UNL     1      22.237   2.655  49.614  1.00  0.00     0.106 C 
HETATM   12  C15 UNL     1      20.885   2.532  49.917  1.00  0.00     0.125 C 
HETATM   13  C16 UNL     1      20.282   1.485  50.606  1.00  0.00     0.045 C 
HETATM   14  C17 UNL     1      19.382   1.562  51.649  1.00  0.00     0.053 C 
HETATM   15  C18 UNL     1      20.425   1.796  52.522  1.00  0.00     0.129 C 
HETATM   16  N1  UNL     1      20.398   3.158  52.772  1.00  0.00    -0.225 NA
HETATM   17  C19 UNL     1      21.370   4.089  52.454  1.00  0.00     0.235 C 
HETATM   18  N2  UNL     1      22.643   4.064  51.914  1.00  0.00    -0.241 NA
HETATM   19  N3  UNL     1      21.381   0.840  53.073  1.00  0.00    -0.340 N 
HETATM   20  H16 UNL     1      21.172   0.068  53.711  1.00  0.00     0.167 HD
ENDROOT
BRANCH  11  21
HETATM   21  O1  UNL     1      21.959   1.903  48.456  1.00  0.00    -0.346 OA
BRANCH  21  22
HETATM   22  C12 UNL     1      22.568   2.168  47.206  1.00  0.00     0.201 C 
BRANCH  22  23
HETATM   23  C13 UNL     1      21.863   3.319  46.543  1.00  0.00     0.193 C 
BRANCH  23  24
HETATM   24  O2  UNL     1      22.097   3.478  45.212  1.00  0.00    -0.394 OA
HETATM   25  C14 UNL     1      21.106   4.052  44.469  1.00  0.00     0.201 C 
ENDBRANCH  23  24
ENDBRANCH  22  23
ENDBRANCH  21  22
ENDBRANCH  11  21
BRANCH  12  26
HETATM   26  O3  UNL     1      20.004   3.550  49.501  1.00  0.00    -0.238 OA
HETATM   27 CL1  UNL     1      20.459   5.171  49.261  1.00  0.00     0.067 Cl
ENDBRANCH  12  26
TORSDOF 5
ENDMDL
MODEL 4
REMARK VINA RESULT:      -6.9      2.895      4.540
REMARK  5 active torsions:
REMARK  status: ('A' for Active; 'I' for Inactive)
REMARK    1  A    between atoms: C11_11  and  O1_12 
REMARK    2  A    between atoms: O1_12  and  C12_13 
REMARK    3  A    between atoms: C12_13  and  C13_14 
REMARK    4  A    between atoms: C13_14  and  O2_15 
REMARK    5  A    between atoms: C15_17  and  O3_18 
ROOT
HETATM    1  C1  UNL     1      26.414   1.689  54.118  1.00  0.00     0.018 C 
HETATM    2  C2  UNL     1      25.354   1.314  53.663  1.00  0.00    -0.077 C 
HETATM    3  C3  UNL     1      24.101   0.854  53.141  1.00  0.00     0.031 A 
HETATM    4  C4  UNL     1      23.621  -0.425  53.253  1.00  0.00     0.022 A 
HETATM    5  C5  UNL     1      22.409  -0.767  52.721  1.00  0.00     0.004 A 
HETATM    6  C6  UNL     1      21.621   0.141  52.058  1.00  0.00     0.030 A 
HETATM    7  C7  UNL     1      22.093   1.432  51.939  1.00  0.00     0.047 A 
HETATM    8  C8  UNL     1      23.350   1.772  52.494  1.00  0.00     0.038 A 
HETATM    9  C9  UNL     1      24.000   3.121  52.444  1.00  0.00     0.074 C 
HETATM   10  C10 UNL     1      25.237   3.339  51.868  1.00  0.00     0.072 C 
HETATM   11  C11 UNL     1      24.720   3.648  50.616  1.00  0.00     0.106 C 
HETATM   12  C15 UNL     1      23.697   4.240  49.883  1.00  0.00     0.125 C 
HETATM   13  C16 UNL     1      22.565   3.609  49.382  1.00  0.00     0.045 C 
HETATM   14  C17 UNL     1      21.252   4.025  49.471  1.00  0.00     0.053 C 
HETATM   15  C18 UNL     1      21.193   3.538  50.761  1.00  0.00     0.129 C 
HETATM   16  N1  UNL     1      21.304   4.649  51.581  1.00  0.00    -0.225 NA
HETATM   17  C19 UNL     1      22.319   4.935  52.475  1.00  0.00     0.235 C 
HETATM   18  N2  UNL     1      23.451   4.294  52.942  1.00  0.00    -0.241 NA
HETATM   19  N3  UNL     1      21.058   2.152  51.205  1.00  0.00    -0.340 N 
HETATM   20  H16 UNL     1      20.251   1.542  51.060  1.00  0.00     0.167 HD
ENDROOT
BRANCH  11  21
HETATM   21  O1  UNL     1      25.309   3.328  49.377  1.00  0.00    -0.346 OA
BRANCH  21  22
HETATM   22  C12 UNL     1      26.710   3.288  49.180  1.00  0.00     0.201 C 
BRANCH  22  23
HETATM   23  C13 UNL     1      27.210   4.673  48.878  1.00  0.00     0.193 C 
BRANCH  23  24
HETATM   24  O2  UNL     1      28.496   4.764  48.444  1.00  0.00    -0.394 OA
HETATM   25  C14 UNL     1      28.978   6.014  48.180  1.00  0.00     0.201 C 
ENDBRANCH  23  24
ENDBRANCH  22  23
ENDBRANCH  21  22
ENDBRANCH  11  21
BRANCH  12  26
HETATM   26  O3  UNL     1      23.781   5.618  49.598  1.00  0.00    -0.238 OA
HETATM   27 CL1  UNL     1      24.683   6.732  50.511  1.00  0.00     0.067 Cl
ENDBRANCH  12  26
TORSDOF 5
ENDMDL
MODEL 5
REMARK VINA RESULT:      -6.7      2.820      5.116
REMARK  5 active torsions:
REMARK  status: ('A' for Active; 'I' for Inactive)
REMARK    1  A    between atoms: C11_11  and  O1_12 
REMARK    2  A    between atoms: O1_12  and  C12_13 
REMARK    3  A    between atoms: C12_13  and  C13_14 
REMARK    4  A    between atoms: C13_14  and  O2_15 
REMARK    5  A    between atoms: C15_17  and  O3_18 
ROOT
HETATM    1  C1  UNL     1      26.783   5.037  49.001  1.00  0.00     0.018 C 
HETATM    2  C2  UNL     1      25.732   5.506  49.387  1.00  0.00    -0.077 C 
HETATM    3  C3  UNL     1      24.498   6.082  49.833  1.00  0.00     0.031 A 
HETATM    4  C4  UNL     1      24.272   7.420  50.019  1.00  0.00     0.022 A 
HETATM    5  C5  UNL     1      23.054   7.873  50.446  1.00  0.00     0.004 A 
HETATM    6  C6  UNL     1      22.010   7.020  50.705  1.00  0.00     0.030 A 
HETATM    7  C7  UNL     1      22.224   5.670  50.521  1.00  0.00     0.047 A 
HETATM    8  C8  UNL     1      23.490   5.216  50.078  1.00  0.00     0.038 A 
HETATM    9  C9  UNL     1      23.880   3.790  49.838  1.00  0.00     0.074 C 
HETATM   10  C10 UNL     1      24.925   3.173  50.500  1.00  0.00     0.072 C 
HETATM   11  C11 UNL     1      24.128   2.681  51.525  1.00  0.00     0.106 C 
HETATM   12  C15 UNL     1      22.895   2.160  51.907  1.00  0.00     0.125 C 
HETATM   13  C16 UNL     1      21.809   2.876  52.398  1.00  0.00     0.045 C 
HETATM   14  C17 UNL     1      20.489   2.789  52.007  1.00  0.00     0.053 C 
HETATM   15  C18 UNL     1      20.768   3.583  50.913  1.00  0.00     0.129 C 
HETATM   16  N1  UNL     1      20.848   2.714  49.838  1.00  0.00    -0.225 NA
HETATM   17  C19 UNL     1      21.956   2.447  49.055  1.00  0.00     0.235 C 
HETATM   18  N2  UNL     1      23.250   2.924  48.955  1.00  0.00    -0.241 NA
HETATM   19  N3  UNL     1      20.959   5.030  50.865  1.00  0.00    -0.340 N 
HETATM   20  H16 UNL     1      20.254   5.745  51.059  1.00  0.00     0.167 HD
ENDROOT
BRANCH  11  21
HETATM   21  O1  UNL     1      24.506   2.548  52.876  1.00  0.00    -0.346 OA
BRANCH  21  22
HETATM   22  C12 UNL     1      25.803   2.142  53.273  1.00  0.00     0.201 C 
BRANCH  22  23
HETATM   23  C13 UNL     1      25.725   0.780  53.906  1.00  0.00     0.193 C 
BRANCH  23  24
HETATM   24  O2  UNL     1      25.910  -0.279  53.073  1.00  0.00    -0.394 OA
HETATM   25  C14 UNL     1      26.680  -0.074  51.965  1.00  0.00     0.201 C 
ENDBRANCH  23  24
ENDBRANCH  22  23
ENDBRANCH  21  22
ENDBRANCH  11  21
BRANCH  12  26
HETATM   26  O3  UNL     1      22.688   0.770  51.800  1.00  0.00    -0.238 OA
HETATM   27 CL1  UNL     1      22.328  -0.249  53.112  1.00  0.00     0.067 Cl
ENDBRANCH  12  26
TORSDOF 5
ENDMDL
MODEL 6
REMARK VINA RESULT:      -6.6      3.813      6.660
REMARK  5 active torsions:
REMARK  status: ('A' for Active; 'I' for Inactive)
REMARK    1  A    between atoms: C11_11  and  O1_12 
REMARK    2  A    between atoms: O1_12  and  C12_13 
REMARK    3  A    between atoms: C12_13  and  C13_14 
REMARK    4  A    between atoms: C13_14  and  O2_15 
REMARK    5  A    between atoms: C15_17  and  O3_18 
ROOT
HETATM    1  C1  UNL     1      26.796   4.253  49.327  1.00  0.00     0.018 C 
HETATM    2  C2  UNL     1      26.345   3.415  50.080  1.00  0.00    -0.077 C 
HETATM    3  C3  UNL     1      25.834   2.421  50.977  1.00  0.00     0.031 A 
HETATM    4  C4  UNL     1      26.563   1.391  51.511  1.00  0.00     0.022 A 
HETATM    5  C5  UNL     1      25.983   0.492  52.364  1.00  0.00     0.004 A 
HETATM    6  C6  UNL     1      24.661   0.576  52.723  1.00  0.00     0.030 A 
HETATM    7  C7  UNL     1      23.917   1.610  52.193  1.00  0.00     0.047 A 
HETATM    8  C8  UNL     1      24.530   2.533  51.311  1.00  0.00     0.038 A 
HETATM    9  C9  UNL     1      23.861   3.699  50.651  1.00  0.00     0.074 C 
HETATM   10  C10 UNL     1      23.795   3.851  49.280  1.00  0.00     0.072 C 
HETATM   11  C11 UNL     1      22.572   3.204  49.157  1.00  0.00     0.106 C 
HETATM   12  C15 UNL     1      21.322   2.944  49.709  1.00  0.00     0.125 C 
HETATM   13  C16 UNL     1      20.980   1.865  50.516  1.00  0.00     0.045 C 
HETATM   14  C17 UNL     1      20.283   1.884  51.707  1.00  0.00     0.053 C 
HETATM   15  C18 UNL     1      21.433   2.266  52.367  1.00  0.00     0.129 C 
HETATM   16  N1  UNL     1      21.295   3.626  52.591  1.00  0.00    -0.225 NA
HETATM   17  C19 UNL     1      22.078   4.645  52.081  1.00  0.00     0.235 C 
HETATM   18  N2  UNL     1      23.225   4.739  51.315  1.00  0.00    -0.241 NA
HETATM   19  N3  UNL     1      22.579   1.444  52.748  1.00  0.00    -0.340 N 
HETATM   20  H16 UNL     1      22.581   0.680  53.428  1.00  0.00     0.167 HD
ENDROOT
BRANCH  11  21
HETATM   21  O1  UNL     1      22.176   2.380  48.085  1.00  0.00    -0.346 OA
BRANCH  21  22
HETATM   22  C12 UNL     1      22.620   2.585  46.756  1.00  0.00     0.201 C 
BRANCH  22  23
HETATM   23  C13 UNL     1      21.847   3.719  46.143  1.00  0.00     0.193 C 
BRANCH  23  24
HETATM   24  O2  UNL     1      21.656   3.655  44.798  1.00  0.00    -0.394 OA
HETATM   25  C14 UNL     1      21.092   4.744  44.196  1.00  0.00     0.201 C 
ENDBRANCH  23  24
ENDBRANCH  22  23
ENDBRANCH  21  22
ENDBRANCH  11  21
BRANCH  12  26
HETATM   26  O3  UNL     1      20.268   3.841  49.444  1.00  0.00    -0.238 OA
HETATM   27 CL1  UNL     1      20.483   5.462  48.980  1.00  0.00     0.067 Cl
ENDBRANCH  12  26
TORSDOF 5
ENDMDL
MODEL 7
REMARK VINA RESULT:      -6.6      4.291      7.384
REMARK  5 active torsions:
REMARK  status: ('A' for Active; 'I' for Inactive)
REMARK    1  A    between atoms: C11_11  and  O1_12 
REMARK    2  A    between atoms: O1_12  and  C12_13 
REMARK    3  A    between atoms: C12_13  and  C13_14 
REMARK    4  A    between atoms: C13_14  and  O2_15 
REMARK    5  A    between atoms: C15_17  and  O3_18 
ROOT
HETATM    1  C1  UNL     1      23.985   7.933  47.996  1.00  0.00     0.018 C 
HETATM    2  C2  UNL     1      24.592   6.954  48.379  1.00  0.00    -0.077 C 
HETATM    3  C3  UNL     1      25.328   5.810  48.829  1.00  0.00     0.031 A 
HETATM    4  C4  UNL     1      26.654   5.576  48.576  1.00  0.00     0.022 A 
HETATM    5  C5  UNL     1      27.270   4.452  49.053  1.00  0.00     0.004 A 
HETATM    6  C6  UNL     1      26.600   3.514  49.799  1.00  0.00     0.030 A 
HETATM    7  C7  UNL     1      25.265   3.738  50.061  1.00  0.00     0.047 A 
HETATM    8  C8  UNL     1      24.640   4.907  49.560  1.00  0.00     0.038 A 
HETATM    9  C9  UNL     1      23.204   5.290  49.752  1.00  0.00     0.074 C 
HETATM   10  C10 UNL     1      22.333   5.493  48.699  1.00  0.00     0.072 C 
HETATM   11  C11 UNL     1      21.880   4.181  48.677  1.00  0.00     0.106 C 
HETATM   12  C15 UNL     1      21.554   3.040  49.402  1.00  0.00     0.125 C 
HETATM   13  C16 UNL     1      22.395   1.970  49.686  1.00  0.00     0.045 C 
HETATM   14  C17 UNL     1      22.599   1.350  50.902  1.00  0.00     0.053 C 
HETATM   15  C18 UNL     1      23.450   2.371  51.272  1.00  0.00     0.129 C 
HETATM   16  N1  UNL     1      22.712   3.175  52.126  1.00  0.00    -0.225 NA
HETATM   17  C19 UNL     1      22.339   4.491  51.927  1.00  0.00     0.235 C 
HETATM   18  N2  UNL     1      22.579   5.467  50.978  1.00  0.00    -0.241 NA
HETATM   19  N3  UNL     1      24.833   2.597  50.860  1.00  0.00    -0.340 N 
HETATM   20  H16 UNL     1      25.638   2.004  51.075  1.00  0.00     0.167 HD
ENDROOT
BRANCH  11  21
HETATM   21  O1  UNL     1      21.523   3.449  47.527  1.00  0.00    -0.346 OA
BRANCH  21  22
HETATM   22  C12 UNL     1      20.845   4.028  46.428  1.00  0.00     0.201 C 
BRANCH  22  23
HETATM   23  C13 UNL     1      21.767   4.071  45.241  1.00  0.00     0.193 C 
BRANCH  23  24
HETATM   24  O2  UNL     1      21.266   3.581  44.076  1.00  0.00    -0.394 OA
HETATM   25  C14 UNL     1      19.924   3.727  43.864  1.00  0.00     0.201 C 
ENDBRANCH  23  24
ENDBRANCH  22  23
ENDBRANCH  21  22
ENDBRANCH  11  21
BRANCH  12  26
HETATM   26  O3  UNL     1      20.248   2.918  49.919  1.00  0.00    -0.238 OA
HETATM   27 CL1  UNL     1      19.180   4.222  50.139  1.00  0.00     0.067 Cl
ENDBRANCH  12  26
TORSDOF 5
ENDMDL
MODEL 8
REMARK VINA RESULT:      -6.4      8.319     11.655
REMARK  5 active torsions:
REMARK  status: ('A' for Active; 'I' for Inactive)
REMARK    1  A    between atoms: C11_11  and  O1_12 
REMARK    2  A    between atoms: O1_12  and  C12_13 
REMARK    3  A    between atoms: C12_13  and  C13_14 
REMARK    4  A    between atoms: C13_14  and  O2_15 
REMARK    5  A    between atoms: C15_17  and  O3_18 
ROOT
HETATM    1  C1  UNL     1      33.624  10.065  45.722  1.00  0.00     0.018 C 
HETATM    2  C2  UNL     1      33.795   9.001  45.163  1.00  0.00    -0.077 C 
HETATM    3  C3  UNL     1      34.007   7.757  44.485  1.00  0.00     0.031 A 
HETATM    4  C4  UNL     1      34.241   7.620  43.142  1.00  0.00     0.022 A 
HETATM    5  C5  UNL     1      34.434   6.385  42.587  1.00  0.00     0.004 A 
HETATM    6  C6  UNL     1      34.406   5.236  43.338  1.00  0.00     0.030 A 
HETATM    7  C7  UNL     1      34.172   5.361  44.692  1.00  0.00     0.047 A 
HETATM    8  C8  UNL     1      33.973   6.646  45.252  1.00  0.00     0.038 A 
HETATM    9  C9  UNL     1      33.704   6.946  46.695  1.00  0.00     0.074 C 
HETATM   10  C10 UNL     1      32.566   7.600  47.128  1.00  0.00     0.072 C 
HETATM   11  C11 UNL     1      31.843   6.433  47.336  1.00  0.00     0.106 C 
HETATM   12  C15 UNL     1      31.855   5.099  47.734  1.00  0.00     0.125 C 
HETATM   13  C16 UNL     1      32.002   3.990  46.909  1.00  0.00     0.045 C 
HETATM   14  C17 UNL     1      32.840   2.907  47.085  1.00  0.00     0.053 C 
HETATM   15  C18 UNL     1      33.894   3.653  46.599  1.00  0.00     0.129 C 
HETATM   16  N1  UNL     1      34.620   4.036  47.716  1.00  0.00    -0.225 NA
HETATM   17  C19 UNL     1      34.830   5.321  48.181  1.00  0.00     0.235 C 
HETATM   18  N2  UNL     1      34.532   6.601  47.753  1.00  0.00    -0.241 NA
HETATM   19  N3  UNL     1      34.202   3.999  45.214  1.00  0.00    -0.340 N 
HETATM   20  H16 UNL     1      34.468   3.351  44.469  1.00  0.00     0.167 HD
ENDROOT
BRANCH  11  21
HETATM   21  O1  UNL     1      30.460   6.267  47.121  1.00  0.00    -0.346 OA
BRANCH  21  22
HETATM   22  C12 UNL     1      29.513   7.278  47.410  1.00  0.00     0.201 C 
BRANCH  22  23
HETATM   23  C13 UNL     1      28.329   6.667  48.106  1.00  0.00     0.193 C 
BRANCH  23  24
HETATM   24  O2  UNL     1      28.491   5.394  48.557  1.00  0.00    -0.394 OA
HETATM   25  C14 UNL     1      27.360   4.666  48.789  1.00  0.00     0.201 C 
ENDBRANCH  23  24
ENDBRANCH  22  23
ENDBRANCH  21  22
ENDBRANCH  11  21
BRANCH  12  26
HETATM   26  O3  UNL     1      31.706   4.803  49.104  1.00  0.00    -0.238 OA
HETATM   27 CL1  UNL     1      31.766   5.960  50.347  1.00  0.00     0.067 Cl
ENDBRANCH  12  26
TORSDOF 5
ENDMDL
MODEL 9
REMARK VINA RESULT:      -6.4      9.548     11.638
REMARK  5 active torsions:
REMARK  status: ('A' for Active; 'I' for Inactive)
REMARK    1  A    between atoms: C11_11  and  O1_12 
REMARK    2  A    between atoms: O1_12  and  C12_13 
REMARK    3  A    between atoms: C12_13  and  C13_14 
REMARK    4  A    between atoms: C13_14  and  O2_15 
REMARK    5  A    between atoms: C15_17  and  O3_18 
ROOT
HETATM    1  C1  UNL     1      36.420   7.074  48.936  1.00  0.00     0.018 C 
HETATM    2  C2  UNL     1      35.510   6.340  48.612  1.00  0.00    -0.077 C 
HETATM    3  C3  UNL     1      34.448   5.454  48.236  1.00  0.00     0.031 A 
HETATM    4  C4  UNL     1      34.585   4.110  48.005  1.00  0.00     0.022 A 
HETATM    5  C5  UNL     1      33.507   3.346  47.652  1.00  0.00     0.004 A 
HETATM    6  C6  UNL     1      32.250   3.880  47.515  1.00  0.00     0.030 A 
HETATM    7  C7  UNL     1      32.098   5.232  47.745  1.00  0.00     0.047 A 
HETATM    8  C8  UNL     1      33.224   6.010  48.109  1.00  0.00     0.038 A 
HETATM    9  C9  UNL     1      33.225   7.483  48.386  1.00  0.00     0.074 C 
HETATM   10  C10 UNL     1      33.997   8.381  47.675  1.00  0.00     0.072 C 
HETATM   11  C11 UNL     1      33.009   8.655  46.738  1.00  0.00     0.106 C 
HETATM   12  C15 UNL     1      31.652   8.821  46.478  1.00  0.00     0.125 C 
HETATM   13  C16 UNL     1      30.768   7.843  46.039  1.00  0.00     0.045 C 
HETATM   14  C17 UNL     1      29.514   7.550  46.534  1.00  0.00     0.053 C 
HETATM   15  C18 UNL     1      30.095   6.839  47.565  1.00  0.00     0.129 C 
HETATM   16  N1  UNL     1      30.026   7.671  48.671  1.00  0.00    -0.225 NA
HETATM   17  C19 UNL     1      31.081   8.217  49.377  1.00  0.00     0.235 C 
HETATM   18  N2  UNL     1      32.460   8.117  49.354  1.00  0.00    -0.241 NA
HETATM   19  N3  UNL     1      30.681   5.502  47.530  1.00  0.00    -0.340 N 
HETATM   20  H16 UNL     1      30.186   4.624  47.358  1.00  0.00     0.167 HD
ENDROOT
BRANCH  11  21
HETATM   21  O1  UNL     1      33.217   8.921  45.370  1.00  0.00    -0.346 OA
BRANCH  21  22
HETATM   22  C12 UNL     1      34.378   8.505  44.676  1.00  0.00     0.201 C 
BRANCH  22  23
HETATM   23  C13 UNL     1      34.083   7.233  43.930  1.00  0.00     0.193 C 
BRANCH  23  24
HETATM   24  O2  UNL     1      33.935   6.114  44.690  1.00  0.00    -0.394 OA
HETATM   25  C14 UNL     1      33.178   5.103  44.170  1.00  0.00     0.201 C 
ENDBRANCH  23  24
ENDBRANCH  22  23
ENDBRANCH  21  22
ENDBRANCH  11  21
BRANCH  12  26
HETATM   26  O3  UNL     1      31.080  10.096  46.666  1.00  0.00    -0.238 OA
HETATM   27 CL1  UNL     1      31.834  11.371  47.500  1.00  0.00     0.067 Cl
ENDBRANCH  12  26
TORSDOF 5
ENDMDL
