MODEL 1
REMARK VINA RESULT:      -6.9      0.000      0.000
REMARK  5 active torsions:
REMARK  status: ('A' for Active; 'I' for Inactive)
REMARK    1  A    between atoms: C2_2  and  O1_3 
REMARK    2  A    between atoms: O1_3  and  C3_4 
REMARK    3  A    between atoms: C8_9  and  C9_10 
REMARK    4  A    between atoms: C12_15  and  C13_16 
REMARK       I    between atoms: C13_16  and  N2_18 
REMARK    5  A    between atoms: N2_18  and  C14_19 
ROOT
HETATM    1  C14 UNL     1      25.935  -0.004  54.033  1.00  0.00     0.247 C 
HETATM    2  C15 UNL     1      26.982  -0.875  53.522  1.00  0.00     0.078 C 
HETATM    3  N3  UNL     1      27.807  -1.568  53.104  1.00  0.00    -0.196 NA
ENDROOT
BRANCH   1   4
HETATM    4  N2  UNL     1      24.619  -0.641  53.882  1.00  0.00    -0.348 N 
HETATM    5  C13 UNL     1      23.607   0.248  53.384  1.00  0.00     0.236 C 
HETATM    6  O3  UNL     1      24.205   1.367  53.222  1.00  0.00    -0.272 OA
HETATM    7  H13 UNL     1      24.460  -1.665  54.126  1.00  0.00     0.163 HD
BRANCH   5   8
HETATM    8  C12 UNL     1      22.274  -0.452  53.246  1.00  0.00     0.205 A 
HETATM    9  C9  UNL     1      21.324   0.585  52.763  1.00  0.00    -0.007 A 
HETATM   10  C10 UNL     1      20.437   0.831  53.678  1.00  0.00     0.100 A 
HETATM   11  N1  UNL     1      20.599   0.051  54.855  1.00  0.00    -0.336 N 
HETATM   12  C11 UNL     1      21.735  -0.765  54.597  1.00  0.00     0.239 A 
HETATM   13  H11 UNL     1      20.082  -0.007  55.760  1.00  0.00     0.168 HD
HETATM   14  O2  UNL     1      22.304  -1.653  55.304  1.00  0.00    -0.272 OA
BRANCH   9  15
HETATM   15  C8  UNL     1      21.427   1.212  51.452  1.00  0.00     0.006 A 
HETATM   16  C3  UNL     1      21.574   2.561  51.197  1.00  0.00     0.079 A 
HETATM   17  C4  UNL     1      21.657   3.061  49.917  1.00  0.00     0.037 A 
HETATM   18  C5  UNL     1      21.597   2.242  48.813  1.00  0.00     0.003 A 
HETATM   19  C6  UNL     1      21.452   0.908  49.007  1.00  0.00     0.001 A 
HETATM   20  C7  UNL     1      21.372   0.429  50.292  1.00  0.00     0.015 A 
BRANCH  16  21
HETATM   21  O1  UNL     1      21.639   3.408  52.257  1.00  0.00    -0.351 OA
BRANCH  21  22
HETATM   22  C2  UNL     1      22.156   4.702  52.263  1.00  0.00     0.171 C 
HETATM   23  C1  UNL     1      23.562   4.762  52.817  1.00  0.00     0.034 C 
ENDBRANCH  21  22
ENDBRANCH  16  21
ENDBRANCH   9  15
ENDBRANCH   5   8
ENDBRANCH   1   4
TORSDOF 5
ENDMDL
MODEL 2
REMARK VINA RESULT:      -6.6      2.793      6.075
REMARK  5 active torsions:
REMARK  status: ('A' for Active; 'I' for Inactive)
REMARK    1  A    between atoms: C2_2  and  O1_3 
REMARK    2  A    between atoms: O1_3  and  C3_4 
REMARK    3  A    between atoms: C8_9  and  C9_10 
REMARK    4  A    between atoms: C12_15  and  C13_16 
REMARK       I    between atoms: C13_16  and  N2_18 
REMARK    5  A    between atoms: N2_18  and  C14_19 
ROOT
HETATM    1  C14 UNL     1      20.366   2.104  51.385  1.00  0.00     0.247 C 
HETATM    2  C15 UNL     1      19.159   2.868  51.663  1.00  0.00     0.078 C 
HETATM    3  N3  UNL     1      18.206   3.486  51.874  1.00  0.00    -0.196 NA
ENDROOT
BRANCH   1   4
HETATM    4  N2  UNL     1      21.561   2.918  51.652  1.00  0.00    -0.348 N 
HETATM    5  C13 UNL     1      22.686   2.566  50.833  1.00  0.00     0.236 C 
HETATM    6  O3  UNL     1      22.268   1.610  50.095  1.00  0.00    -0.272 OA
HETATM    7  H13 UNL     1      21.562   3.688  52.388  1.00  0.00     0.163 HD
BRANCH   5   8
HETATM    8  C12 UNL     1      23.889   3.429  51.144  1.00  0.00     0.205 A 
HETATM    9  C9  UNL     1      24.423   2.925  52.437  1.00  0.00    -0.007 A 
HETATM   10  C10 UNL     1      24.273   3.827  53.358  1.00  0.00     0.100 A 
HETATM   11  N1  UNL     1      23.672   5.027  52.890  1.00  0.00    -0.336 N 
HETATM   12  C11 UNL     1      23.437   4.799  51.505  1.00  0.00     0.239 A 
HETATM   13  H11 UNL     1      23.411   5.929  53.346  1.00  0.00     0.168 HD
HETATM   14  O2  UNL     1      22.937   5.547  50.610  1.00  0.00    -0.272 OA
BRANCH   9  15
HETATM   15  C8  UNL     1      25.004   1.598  52.596  1.00  0.00     0.006 A 
HETATM   16  C3  UNL     1      24.370   0.478  53.095  1.00  0.00     0.079 A 
HETATM   17  C4  UNL     1      25.008  -0.735  53.213  1.00  0.00     0.037 A 
HETATM   18  C5  UNL     1      26.322  -0.903  52.840  1.00  0.00     0.003 A 
HETATM   19  C6  UNL     1      26.993   0.165  52.344  1.00  0.00     0.001 A 
HETATM   20  C7  UNL     1      26.338   1.368  52.234  1.00  0.00     0.015 A 
BRANCH  16  21
HETATM   21  O1  UNL     1      23.071   0.597  53.476  1.00  0.00    -0.351 OA
BRANCH  21  22
HETATM   22  C2  UNL     1      22.100  -0.402  53.457  1.00  0.00     0.171 C 
HETATM   23  C1  UNL     1      21.690  -0.840  54.846  1.00  0.00     0.034 C 
ENDBRANCH  21  22
ENDBRANCH  16  21
ENDBRANCH   9  15
ENDBRANCH   5   8
ENDBRANCH   1   4
TORSDOF 5
ENDMDL
MODEL 3
REMARK VINA RESULT:      -6.6      3.734      5.594
REMARK  5 active torsions:
REMARK  status: ('A' for Active; 'I' for Inactive)
REMARK    1  A    between atoms: C2_2  and  O1_3 
REMARK    2  A    between atoms: O1_3  and  C3_4 
REMARK    3  A    between atoms: C8_9  and  C9_10 
REMARK    4  A    between atoms: C12_15  and  C13_16 
REMARK       I    between atoms: C13_16  and  N2_18 
REMARK    5  A    between atoms: N2_18  and  C14_19 
ROOT
HETATM    1  C14 UNL     1      26.711   4.015  49.149  1.00  0.00     0.247 C 
HETATM    2  C15 UNL     1      27.682   4.976  48.650  1.00  0.00     0.078 C 
HETATM    3  N3  UNL     1      28.459   5.740  48.266  1.00  0.00    -0.196 NA
ENDROOT
BRANCH   1   4
HETATM    4  N2  UNL     1      26.074   4.518  50.375  1.00  0.00    -0.348 N 
HETATM    5  C13 UNL     1      24.729   4.050  50.554  1.00  0.00     0.236 C 
HETATM    6  O3  UNL     1      24.504   3.304  49.540  1.00  0.00    -0.272 OA
HETATM    7  H13 UNL     1      26.585   5.168  51.046  1.00  0.00     0.163 HD
BRANCH   5   8
HETATM    8  C12 UNL     1      24.118   4.594  51.826  1.00  0.00     0.205 A 
HETATM    9  C9  UNL     1      22.895   3.782  52.064  1.00  0.00    -0.007 A 
HETATM   10  C10 UNL     1      21.840   4.525  51.934  1.00  0.00     0.100 A 
HETATM   11  N1  UNL     1      22.130   5.881  51.625  1.00  0.00    -0.336 N 
HETATM   12  C11 UNL     1      23.551   5.944  51.567  1.00  0.00     0.239 A 
HETATM   13  H11 UNL     1      21.541   6.726  51.456  1.00  0.00     0.168 HD
HETATM   14  O2  UNL     1      24.335   6.916  51.343  1.00  0.00    -0.272 OA
BRANCH   9  15
HETATM   15  C8  UNL     1      22.932   2.359  52.379  1.00  0.00     0.006 A 
HETATM   16  C3  UNL     1      23.905   1.704  53.107  1.00  0.00     0.079 A 
HETATM   17  C4  UNL     1      23.854   0.350  53.348  1.00  0.00     0.037 A 
HETATM   18  C5  UNL     1      22.826  -0.434  52.873  1.00  0.00     0.003 A 
HETATM   19  C6  UNL     1      21.844   0.160  52.151  1.00  0.00     0.001 A 
HETATM   20  C7  UNL     1      21.913   1.512  51.923  1.00  0.00     0.015 A 
BRANCH  16  21
HETATM   21  O1  UNL     1      24.939   2.437  53.596  1.00  0.00    -0.351 OA
BRANCH  21  22
HETATM   22  C2  UNL     1      26.247   2.004  53.804  1.00  0.00     0.171 C 
HETATM   23  C1  UNL     1      27.022   1.863  52.513  1.00  0.00     0.034 C 
ENDBRANCH  21  22
ENDBRANCH  16  21
ENDBRANCH   9  15
ENDBRANCH   5   8
ENDBRANCH   1   4
TORSDOF 5
ENDMDL
MODEL 4
REMARK VINA RESULT:      -6.6      2.606      5.508
REMARK  5 active torsions:
REMARK  status: ('A' for Active; 'I' for Inactive)
REMARK    1  A    between atoms: C2_2  and  O1_3 
REMARK    2  A    between atoms: O1_3  and  C3_4 
REMARK    3  A    between atoms: C8_9  and  C9_10 
REMARK    4  A    between atoms: C12_15  and  C13_16 
REMARK       I    between atoms: C13_16  and  N2_18 
REMARK    5  A    between atoms: N2_18  and  C14_19 
ROOT
HETATM    1  C14 UNL     1      22.703   4.696  52.512  1.00  0.00     0.247 C 
HETATM    2  C15 UNL     1      22.020   5.583  51.583  1.00  0.00     0.078 C 
HETATM    3  N3  UNL     1      21.469   6.276  50.840  1.00  0.00    -0.196 NA
ENDROOT
BRANCH   1   4
HETATM    4  N2  UNL     1      23.226   3.517  51.806  1.00  0.00    -0.348 N 
HETATM    5  C13 UNL     1      24.281   2.849  52.513  1.00  0.00     0.236 C 
HETATM    6  O3  UNL     1      24.437   3.526  53.586  1.00  0.00    -0.272 OA
HETATM    7  H13 UNL     1      22.839   3.212  50.861  1.00  0.00     0.163 HD
BRANCH   5   8
HETATM    8  C12 UNL     1      24.784   1.645  51.748  1.00  0.00     0.205 A 
HETATM    9  C9  UNL     1      24.603   0.484  52.660  1.00  0.00    -0.007 A 
HETATM   10  C10 UNL     1      25.760   0.012  53.009  1.00  0.00     0.100 A 
HETATM   11  N1  UNL     1      26.858   0.702  52.427  1.00  0.00    -0.336 N 
HETATM   12  C11 UNL     1      26.265   1.718  51.625  1.00  0.00     0.239 A 
HETATM   13  H11 UNL     1      27.894   0.593  52.489  1.00  0.00     0.168 HD
HETATM   14  O2  UNL     1      26.785   2.603  50.881  1.00  0.00    -0.272 OA
BRANCH   9  15
HETATM   15  C8  UNL     1      23.295  -0.001  53.081  1.00  0.00     0.006 A 
HETATM   16  C3  UNL     1      22.120   0.070  52.359  1.00  0.00     0.079 A 
HETATM   17  C4  UNL     1      20.928  -0.414  52.847  1.00  0.00     0.037 A 
HETATM   18  C5  UNL     1      20.837  -0.999  54.090  1.00  0.00     0.003 A 
HETATM   19  C6  UNL     1      21.961  -1.095  54.842  1.00  0.00     0.001 A 
HETATM   20  C7  UNL     1      23.141  -0.606  54.336  1.00  0.00     0.015 A 
BRANCH  16  21
HETATM   21  O1  UNL     1      22.163   0.640  51.126  1.00  0.00    -0.351 OA
BRANCH  21  22
HETATM   22  C2  UNL     1      21.098   0.799  50.242  1.00  0.00     0.171 C 
HETATM   23  C1  UNL     1      21.554   1.141  48.841  1.00  0.00     0.034 C 
ENDBRANCH  21  22
ENDBRANCH  16  21
ENDBRANCH   9  15
ENDBRANCH   5   8
ENDBRANCH   1   4
TORSDOF 5
ENDMDL
MODEL 5
REMARK VINA RESULT:      -6.5      2.390      4.442
REMARK  5 active torsions:
REMARK  status: ('A' for Active; 'I' for Inactive)
REMARK    1  A    between atoms: C2_2  and  O1_3 
REMARK    2  A    between atoms: O1_3  and  C3_4 
REMARK    3  A    between atoms: C8_9  and  C9_10 
REMARK    4  A    between atoms: C12_15  and  C13_16 
REMARK       I    between atoms: C13_16  and  N2_18 
REMARK    5  A    between atoms: N2_18  and  C14_19 
ROOT
HETATM    1  C14 UNL     1      26.885   1.680  53.832  1.00  0.00     0.247 C 
HETATM    2  C15 UNL     1      26.549   0.566  54.705  1.00  0.00     0.078 C 
HETATM    3  N3  UNL     1      26.273  -0.324  55.389  1.00  0.00    -0.196 NA
ENDROOT
BRANCH   1   4
HETATM    4  N2  UNL     1      25.667   2.386  53.409  1.00  0.00    -0.348 N 
HETATM    5  C13 UNL     1      25.277   2.094  52.059  1.00  0.00     0.236 C 
HETATM    6  O3  UNL     1      26.158   1.271  51.634  1.00  0.00    -0.272 OA
HETATM    7  H13 UNL     1      25.145   3.044  54.063  1.00  0.00     0.163 HD
BRANCH   5   8
HETATM    8  C12 UNL     1      24.021   2.843  51.671  1.00  0.00     0.205 A 
HETATM    9  C9  UNL     1      22.977   1.802  51.474  1.00  0.00    -0.007 A 
HETATM   10  C10 UNL     1      22.631   1.755  50.225  1.00  0.00     0.100 A 
HETATM   11  N1  UNL     1      23.312   2.697  49.407  1.00  0.00    -0.336 N 
HETATM   12  C11 UNL     1      24.176   3.394  50.298  1.00  0.00     0.239 A 
HETATM   13  H11 UNL     1      23.281   2.926  48.389  1.00  0.00     0.168 HD
HETATM   14  O2  UNL     1      24.991   4.345  50.097  1.00  0.00    -0.272 OA
BRANCH   9  15
HETATM   15  C8  UNL     1      22.464   0.973  52.557  1.00  0.00     0.006 A 
HETATM   16  C3  UNL     1      21.253   1.123  53.203  1.00  0.00     0.079 A 
HETATM   17  C4  UNL     1      20.857   0.289  54.223  1.00  0.00     0.037 A 
HETATM   18  C5  UNL     1      21.649  -0.747  54.662  1.00  0.00     0.003 A 
HETATM   19  C6  UNL     1      22.850  -0.939  54.063  1.00  0.00     0.001 A 
HETATM   20  C7  UNL     1      23.226  -0.096  53.045  1.00  0.00     0.015 A 
BRANCH  16  21
HETATM   21  O1  UNL     1      20.437   2.133  52.803  1.00  0.00    -0.351 OA
BRANCH  21  22
HETATM   22  C2  UNL     1      19.280   2.019  52.034  1.00  0.00     0.171 C 
HETATM   23  C1  UNL     1      19.232   0.727  51.248  1.00  0.00     0.034 C 
ENDBRANCH  21  22
ENDBRANCH  16  21
ENDBRANCH   9  15
ENDBRANCH   5   8
ENDBRANCH   1   4
TORSDOF 5
ENDMDL
MODEL 6
REMARK VINA RESULT:      -6.4      3.467      5.103
REMARK  5 active torsions:
REMARK  status: ('A' for Active; 'I' for Inactive)
REMARK    1  A    between atoms: C2_2  and  O1_3 
REMARK    2  A    between atoms: O1_3  and  C3_4 
REMARK    3  A    between atoms: C8_9  and  C9_10 
REMARK    4  A    between atoms: C12_15  and  C13_16 
REMARK       I    between atoms: C13_16  and  N2_18 
REMARK    5  A    between atoms: N2_18  and  C14_19 
ROOT
HETATM    1  C14 UNL     1      26.224   4.976  49.387  1.00  0.00     0.247 C 
HETATM    2  C15 UNL     1      27.556   4.990  48.801  1.00  0.00     0.078 C 
HETATM    3  N3  UNL     1      28.613   4.987  48.334  1.00  0.00    -0.196 NA
ENDROOT
BRANCH   1   4
HETATM    4  N2  UNL     1      26.152   3.987  50.473  1.00  0.00    -0.348 N 
HETATM    5  C13 UNL     1      25.035   3.094  50.359  1.00  0.00     0.236 C 
HETATM    6  O3  UNL     1      24.429   3.460  49.294  1.00  0.00    -0.272 OA
HETATM    7  H13 UNL     1      26.873   3.961  51.256  1.00  0.00     0.163 HD
BRANCH   5   8
HETATM    8  C12 UNL     1      25.004   2.098  51.497  1.00  0.00     0.205 A 
HETATM    9  C9  UNL     1      24.038   2.646  52.485  1.00  0.00    -0.007 A 
HETATM   10  C10 UNL     1      24.661   2.981  53.572  1.00  0.00     0.100 A 
HETATM   11  N1  UNL     1      26.058   2.723  53.533  1.00  0.00    -0.336 N 
HETATM   12  C11 UNL     1      26.287   2.159  52.246  1.00  0.00     0.239 A 
HETATM   13  H11 UNL     1      26.839   2.866  54.211  1.00  0.00     0.168 HD
HETATM   14  O2  UNL     1      27.350   1.735  51.698  1.00  0.00    -0.272 OA
BRANCH   9  15
HETATM   15  C8  UNL     1      22.612   2.781  52.216  1.00  0.00     0.006 A 
HETATM   16  C3  UNL     1      21.683   1.759  52.178  1.00  0.00     0.079 A 
HETATM   17  C4  UNL     1      20.353   1.987  51.908  1.00  0.00     0.037 A 
HETATM   18  C5  UNL     1      19.869   3.251  51.658  1.00  0.00     0.003 A 
HETATM   19  C6  UNL     1      20.739   4.291  51.683  1.00  0.00     0.001 A 
HETATM   20  C7  UNL     1      22.062   4.043  51.955  1.00  0.00     0.015 A 
BRANCH  16  21
HETATM   21  O1  UNL     1      22.116   0.494  52.419  1.00  0.00    -0.351 OA
BRANCH  21  22
HETATM   22  C2  UNL     1      21.932  -0.244  53.586  1.00  0.00     0.171 C 
HETATM   23  C1  UNL     1      23.234  -0.768  54.151  1.00  0.00     0.034 C 
ENDBRANCH  21  22
ENDBRANCH  16  21
ENDBRANCH   9  15
ENDBRANCH   5   8
ENDBRANCH   1   4
TORSDOF 5
ENDMDL
MODEL 7
REMARK VINA RESULT:      -6.4      3.285      6.217
REMARK  5 active torsions:
REMARK  status: ('A' for Active; 'I' for Inactive)
REMARK    1  A    between atoms: C2_2  and  O1_3 
REMARK    2  A    between atoms: O1_3  and  C3_4 
REMARK    3  A    between atoms: C8_9  and  C9_10 
REMARK    4  A    between atoms: C12_15  and  C13_16 
REMARK       I    between atoms: C13_16  and  N2_18 
REMARK    5  A    between atoms: N2_18  and  C14_19 
ROOT
HETATM    1  C14 UNL     1      22.419   2.278  48.033  1.00  0.00     0.247 C 
HETATM    2  C15 UNL     1      21.889   3.089  46.947  1.00  0.00     0.078 C 
HETATM    3  N3  UNL     1      21.481   3.735  46.081  1.00  0.00    -0.196 NA
ENDROOT
BRANCH   1   4
HETATM    4  N2  UNL     1      23.429   3.032  48.790  1.00  0.00    -0.348 N 
HETATM    5  C13 UNL     1      23.344   2.835  50.209  1.00  0.00     0.236 C 
HETATM    6  O3  UNL     1      22.368   2.025  50.370  1.00  0.00    -0.272 OA
HETATM    7  H13 UNL     1      24.143   3.656  48.305  1.00  0.00     0.163 HD
BRANCH   5   8
HETATM    8  C12 UNL     1      24.402   3.629  50.943  1.00  0.00     0.205 A 
HETATM    9  C9  UNL     1      24.511   3.007  52.288  1.00  0.00    -0.007 A 
HETATM   10  C10 UNL     1      24.095   3.837  53.194  1.00  0.00     0.100 A 
HETATM   11  N1  UNL     1      23.675   5.090  52.671  1.00  0.00    -0.336 N 
HETATM   12  C11 UNL     1      23.873   4.981  51.265  1.00  0.00     0.239 A 
HETATM   13  H11 UNL     1      23.295   5.962  53.101  1.00  0.00     0.168 HD
HETATM   14  O2  UNL     1      23.676   5.814  50.328  1.00  0.00    -0.272 OA
BRANCH   9  15
HETATM   15  C8  UNL     1      25.005   1.652  52.503  1.00  0.00     0.006 A 
HETATM   16  C3  UNL     1      24.306   0.603  53.066  1.00  0.00     0.079 A 
HETATM   17  C4  UNL     1      24.863  -0.644  53.232  1.00  0.00     0.037 A 
HETATM   18  C5  UNL     1      26.156  -0.919  52.846  1.00  0.00     0.003 A 
HETATM   19  C6  UNL     1      26.887   0.076  52.288  1.00  0.00     0.001 A 
HETATM   20  C7  UNL     1      26.312   1.314  52.130  1.00  0.00     0.015 A 
BRANCH  16  21
HETATM   21  O1  UNL     1      23.026   0.828  53.461  1.00  0.00    -0.351 OA
BRANCH  21  22
HETATM   22  C2  UNL     1      21.952  -0.055  53.360  1.00  0.00     0.171 C 
HETATM   23  C1  UNL     1      21.421  -0.478  54.712  1.00  0.00     0.034 C 
ENDBRANCH  21  22
ENDBRANCH  16  21
ENDBRANCH   9  15
ENDBRANCH   5   8
ENDBRANCH   1   4
TORSDOF 5
ENDMDL
MODEL 8
REMARK VINA RESULT:      -6.3      2.975      6.091
REMARK  5 active torsions:
REMARK  status: ('A' for Active; 'I' for Inactive)
REMARK    1  A    between atoms: C2_2  and  O1_3 
REMARK    2  A    between atoms: O1_3  and  C3_4 
REMARK    3  A    between atoms: C8_9  and  C9_10 
REMARK    4  A    between atoms: C12_15  and  C13_16 
REMARK       I    between atoms: C13_16  and  N2_18 
REMARK    5  A    between atoms: N2_18  and  C14_19 
ROOT
HETATM    1  C14 UNL     1      20.792   3.156  49.031  1.00  0.00     0.247 C 
HETATM    2  C15 UNL     1      20.008   4.304  49.461  1.00  0.00     0.078 C 
HETATM    3  N3  UNL     1      19.397   5.224  49.800  1.00  0.00    -0.196 NA
ENDROOT
BRANCH   1   4
HETATM    4  N2  UNL     1      22.095   3.140  49.712  1.00  0.00    -0.348 N 
HETATM    5  C13 UNL     1      22.467   1.844  50.203  1.00  0.00     0.236 C 
HETATM    6  O3  UNL     1      21.498   1.078  49.872  1.00  0.00    -0.272 OA
HETATM    7  H13 UNL     1      22.684   4.021  49.817  1.00  0.00     0.163 HD
BRANCH   5   8
HETATM    8  C12 UNL     1      23.812   1.878  50.894  1.00  0.00     0.205 A 
HETATM    9  C9  UNL     1      23.515   2.001  52.345  1.00  0.00    -0.007 A 
HETATM   10  C10 UNL     1      23.919   3.154  52.782  1.00  0.00     0.100 A 
HETATM   11  N1  UNL     1      24.536   3.959  51.785  1.00  0.00    -0.336 N 
HETATM   12  C11 UNL     1      24.488   3.169  50.601  1.00  0.00     0.239 A 
HETATM   13  H11 UNL     1      24.960   4.912  51.787  1.00  0.00     0.168 HD
HETATM   14  O2  UNL     1      24.911   3.400  49.428  1.00  0.00    -0.272 OA
BRANCH   9  15
HETATM   15  C8  UNL     1      22.851   0.957  53.115  1.00  0.00     0.006 A 
HETATM   16  C3  UNL     1      23.403  -0.243  53.518  1.00  0.00     0.079 A 
HETATM   17  C4  UNL     1      22.691  -1.172  54.241  1.00  0.00     0.037 A 
HETATM   18  C5  UNL     1      21.381  -0.960  54.605  1.00  0.00     0.003 A 
HETATM   19  C6  UNL     1      20.790   0.203  54.234  1.00  0.00     0.001 A 
HETATM   20  C7  UNL     1      21.518   1.117  53.514  1.00  0.00     0.015 A 
BRANCH  16  21
HETATM   21  O1  UNL     1      24.695  -0.496  53.182  1.00  0.00    -0.351 OA
BRANCH  21  22
HETATM   22  C2  UNL     1      25.752  -0.749  54.054  1.00  0.00     0.171 C 
HETATM   23  C1  UNL     1      26.338   0.517  54.638  1.00  0.00     0.034 C 
ENDBRANCH  21  22
ENDBRANCH  16  21
ENDBRANCH   9  15
ENDBRANCH   5   8
ENDBRANCH   1   4
TORSDOF 5
ENDMDL
MODEL 9
REMARK VINA RESULT:      -6.3      2.464      3.782
REMARK  5 active torsions:
REMARK  status: ('A' for Active; 'I' for Inactive)
REMARK    1  A    between atoms: C2_2  and  O1_3 
REMARK    2  A    between atoms: O1_3  and  C3_4 
REMARK    3  A    between atoms: C8_9  and  C9_10 
REMARK    4  A    between atoms: C12_15  and  C13_16 
REMARK       I    between atoms: C13_16  and  N2_18 
REMARK    5  A    between atoms: N2_18  and  C14_19 
ROOT
HETATM    1  C14 UNL     1      26.632  -1.485  52.512  1.00  0.00     0.247 C 
HETATM    2  C15 UNL     1      27.954  -1.880  52.975  1.00  0.00     0.078 C 
HETATM    3  N3  UNL     1      29.003  -2.183  53.353  1.00  0.00    -0.196 NA
ENDROOT
BRANCH   1   4
HETATM    4  N2  UNL     1      26.604  -0.047  52.207  1.00  0.00    -0.348 N 
HETATM    5  C13 UNL     1      25.600   0.673  52.937  1.00  0.00     0.236 C 
HETATM    6  O3  UNL     1      25.021  -0.211  53.657  1.00  0.00    -0.272 OA
HETATM    7  H13 UNL     1      27.276   0.391  51.506  1.00  0.00     0.163 HD
BRANCH   5   8
HETATM    8  C12 UNL     1      25.610   2.145  52.589  1.00  0.00     0.205 A 
HETATM    9  C9  UNL     1      24.577   2.316  51.534  1.00  0.00    -0.007 A 
HETATM   10  C10 UNL     1      25.141   2.649  50.414  1.00  0.00     0.100 A 
HETATM   11  N1  UNL     1      26.555   2.773  50.501  1.00  0.00    -0.336 N 
HETATM   12  C11 UNL     1      26.862   2.474  51.858  1.00  0.00     0.239 A 
HETATM   13  H11 UNL     1      27.302   3.017  49.815  1.00  0.00     0.168 HD
HETATM   14  O2  UNL     1      27.969   2.453  52.478  1.00  0.00    -0.272 OA
BRANCH   9  15
HETATM   15  C8  UNL     1      23.153   2.113  51.771  1.00  0.00     0.006 A 
HETATM   16  C3  UNL     1      22.249   3.062  52.204  1.00  0.00     0.079 A 
HETATM   17  C4  UNL     1      20.920   2.771  52.405  1.00  0.00     0.037 A 
HETATM   18  C5  UNL     1      20.411   1.511  52.185  1.00  0.00     0.003 A 
HETATM   19  C6  UNL     1      21.256   0.541  51.759  1.00  0.00     0.001 A 
HETATM   20  C7  UNL     1      22.580   0.852  51.564  1.00  0.00     0.015 A 
BRANCH  16  21
HETATM   21  O1  UNL     1      22.706   4.321  52.434  1.00  0.00    -0.351 OA
BRANCH  21  22
HETATM   22  C2  UNL     1      22.589   5.421  51.587  1.00  0.00     0.171 C 
HETATM   23  C1  UNL     1      23.900   6.152  51.401  1.00  0.00     0.034 C 
ENDBRANCH  21  22
ENDBRANCH  16  21
ENDBRANCH   9  15
ENDBRANCH   5   8
ENDBRANCH   1   4
TORSDOF 5
ENDMDL
