MODEL 1
REMARK VINA RESULT:      -9.3      0.000      0.000
REMARK  2 active torsions:
REMARK  status: ('A' for Active; 'I' for Inactive)
REMARK       I    between atoms: C1_2  and  N1_3 
REMARK    1  A    between atoms: C1_2  and  C14_18 
REMARK    2  A    between atoms: N1_3  and  C2_4 
ROOT
HETATM    1  C2  UNL     1      25.240   3.006  51.510  1.00  0.00     0.013 C 
HETATM    2  C3  UNL     1      23.921   2.968  51.205  1.00  0.00     0.022 C 
HETATM    3  C4  UNL     1      22.920   1.970  51.707  1.00  0.00    -0.014 C 
HETATM    4  C5  UNL     1      22.435   0.905  52.387  1.00  0.00     0.061 C 
HETATM    5  C6  UNL     1      22.402  -0.277  53.266  1.00  0.00     0.093 C 
HETATM    6  N2  UNL     1      23.373  -0.893  53.905  1.00  0.00    -0.293 NA
HETATM    7  C7  UNL     1      24.715  -0.427  53.797  1.00  0.00     0.160 C 
HETATM    8  C8  UNL     1      26.016  -0.477  53.576  1.00  0.00     0.030 C 
HETATM    9  C9  UNL     1      27.036   0.595  53.660  1.00  0.00     0.040 A 
HETATM   10  N3  UNL     1      27.867   0.973  54.573  1.00  0.00    -0.265 NA
HETATM   11  C10 UNL     1      28.586   2.080  54.045  1.00  0.00     0.113 A 
HETATM   12  C11 UNL     1      28.205   2.386  52.817  1.00  0.00     0.004 A 
HETATM   13  C12 UNL     1      27.140   1.465  52.382  1.00  0.00     0.067 A 
HETATM   14  C13 UNL     1      25.773   1.989  52.378  1.00  0.00     0.071 C 
ENDROOT
BRANCH   1  15
HETATM   15  N1  UNL     1      25.850   4.111  50.834  1.00  0.00    -0.327 N 
HETATM   16  C1  UNL     1      26.584   3.998  49.627  1.00  0.00     0.255 C 
HETATM   17  O1  UNL     1      26.605   2.782  49.256  1.00  0.00    -0.267 OA
HETATM   18  H1  UNL     1      25.770   5.096  51.224  1.00  0.00     0.169 HD
BRANCH  16  19
HETATM   19  C14 UNL     1      27.231   5.085  48.899  1.00  0.00     0.032 A 
HETATM   20  C15 UNL     1      28.528   5.215  48.433  1.00  0.00     0.017 A 
HETATM   21  C16 UNL     1      28.911   6.351  47.754  1.00  0.00     0.001 A 
HETATM   22  C17 UNL     1      28.005   7.381  47.529  1.00  0.00     0.000 A 
HETATM   23  C18 UNL     1      26.700   7.291  47.978  1.00  0.00     0.001 A 
HETATM   24  C19 UNL     1      26.373   6.150  48.641  1.00  0.00     0.017 A 
ENDBRANCH  16  19
ENDBRANCH   1  15
TORSDOF 2
ENDMDL
MODEL 2
REMARK VINA RESULT:      -9.3      3.544      6.242
REMARK  2 active torsions:
REMARK  status: ('A' for Active; 'I' for Inactive)
REMARK       I    between atoms: C1_2  and  N1_3 
REMARK    1  A    between atoms: C1_2  and  C14_18 
REMARK    2  A    between atoms: N1_3  and  C2_4 
ROOT
HETATM    1  C2  UNL     1      24.177   1.528  51.993  1.00  0.00     0.013 C 
HETATM    2  C3  UNL     1      24.308   2.667  51.271  1.00  0.00     0.022 C 
HETATM    3  C4  UNL     1      23.229   3.668  50.984  1.00  0.00    -0.014 C 
HETATM    4  C5  UNL     1      22.000   4.234  50.999  1.00  0.00     0.061 C 
HETATM    5  C6  UNL     1      20.569   4.427  51.292  1.00  0.00     0.093 C 
HETATM    6  N2  UNL     1      19.718   3.657  51.935  1.00  0.00    -0.293 NA
HETATM    7  C7  UNL     1      20.141   2.408  52.472  1.00  0.00     0.160 C 
HETATM    8  C8  UNL     1      20.137   1.107  52.701  1.00  0.00     0.030 C 
HETATM    9  C9  UNL     1      21.053   0.285  53.527  1.00  0.00     0.040 A 
HETATM   10  N3  UNL     1      21.011  -0.163  54.738  1.00  0.00    -0.265 NA
HETATM   11  C10 UNL     1      22.211  -0.896  54.949  1.00  0.00     0.113 A 
HETATM   12  C11 UNL     1      22.989  -0.903  53.880  1.00  0.00     0.004 A 
HETATM   13  C12 UNL     1      22.352  -0.136  52.795  1.00  0.00     0.067 A 
HETATM   14  C13 UNL     1      22.882   1.203  52.530  1.00  0.00     0.071 C 
ENDROOT
BRANCH   1  15
HETATM   15  N1  UNL     1      25.438   0.850  52.039  1.00  0.00    -0.327 N 
HETATM   16  C1  UNL     1      26.316   0.879  53.151  1.00  0.00     0.255 C 
HETATM   17  O1  UNL     1      25.805   1.587  54.076  1.00  0.00    -0.267 OA
HETATM   18  H1  UNL     1      25.775   0.276  51.212  1.00  0.00     0.169 HD
BRANCH  16  19
HETATM   19  C14 UNL     1      27.612   0.216  53.252  1.00  0.00     0.032 A 
HETATM   20  C15 UNL     1      28.867   0.722  53.545  1.00  0.00     0.017 A 
HETATM   21  C16 UNL     1      29.959  -0.115  53.590  1.00  0.00     0.001 A 
HETATM   22  C17 UNL     1      29.819  -1.477  53.343  1.00  0.00     0.000 A 
HETATM   23  C18 UNL     1      28.584  -2.023  53.047  1.00  0.00     0.001 A 
HETATM   24  C19 UNL     1      27.538  -1.154  53.014  1.00  0.00     0.017 A 
ENDBRANCH  16  19
ENDBRANCH   1  15
TORSDOF 2
ENDMDL
MODEL 3
REMARK VINA RESULT:      -9.1      0.413      1.062
REMARK  2 active torsions:
REMARK  status: ('A' for Active; 'I' for Inactive)
REMARK       I    between atoms: C1_2  and  N1_3 
REMARK    1  A    between atoms: C1_2  and  C14_18 
REMARK    2  A    between atoms: N1_3  and  C2_4 
ROOT
HETATM    1  C2  UNL     1      24.947   2.988  51.790  1.00  0.00     0.013 C 
HETATM    2  C3  UNL     1      23.604   2.944  51.617  1.00  0.00     0.022 C 
HETATM    3  C4  UNL     1      22.667   1.922  52.190  1.00  0.00    -0.014 C 
HETATM    4  C5  UNL     1      22.262   0.834  52.885  1.00  0.00     0.061 C 
HETATM    5  C6  UNL     1      22.327  -0.372  53.729  1.00  0.00     0.093 C 
HETATM    6  N2  UNL     1      23.362  -0.994  54.250  1.00  0.00    -0.293 NA
HETATM    7  C7  UNL     1      24.682  -0.511  54.021  1.00  0.00     0.160 C 
HETATM    8  C8  UNL     1      25.955  -0.541  53.669  1.00  0.00     0.030 C 
HETATM    9  C9  UNL     1      26.969   0.539  53.680  1.00  0.00     0.040 A 
HETATM   10  N3  UNL     1      27.885   0.901  54.515  1.00  0.00    -0.265 NA
HETATM   11  C10 UNL     1      28.538   2.030  53.949  1.00  0.00     0.113 A 
HETATM   12  C11 UNL     1      28.033   2.365  52.774  1.00  0.00     0.004 A 
HETATM   13  C12 UNL     1      26.937   1.444  52.423  1.00  0.00     0.067 A 
HETATM   14  C13 UNL     1      25.572   1.953  52.570  1.00  0.00     0.071 C 
ENDROOT
BRANCH   1  15
HETATM   15  N1  UNL     1      25.476   4.118  51.087  1.00  0.00    -0.327 N 
HETATM   16  C1  UNL     1      26.079   4.046  49.806  1.00  0.00     0.255 C 
HETATM   17  O1  UNL     1      26.066   2.842  49.398  1.00  0.00    -0.267 OA
HETATM   18  H1  UNL     1      25.434   5.090  51.513  1.00  0.00     0.169 HD
BRANCH  16  19
HETATM   19  C14 UNL     1      26.640   5.159  49.047  1.00  0.00     0.032 A 
HETATM   20  C15 UNL     1      26.060   6.335  48.602  1.00  0.00     0.017 A 
HETATM   21  C16 UNL     1      26.806   7.253  47.897  1.00  0.00     0.001 A 
HETATM   22  C17 UNL     1      28.148   7.014  47.622  1.00  0.00     0.000 A 
HETATM   23  C18 UNL     1      28.766   5.853  48.047  1.00  0.00     0.001 A 
HETATM   24  C19 UNL     1      27.986   4.979  48.738  1.00  0.00     0.017 A 
ENDBRANCH  16  19
ENDBRANCH   1  15
TORSDOF 2
ENDMDL
MODEL 4
REMARK VINA RESULT:      -8.5      1.813      3.845
REMARK  2 active torsions:
REMARK  status: ('A' for Active; 'I' for Inactive)
REMARK       I    between atoms: C1_2  and  N1_3 
REMARK    1  A    between atoms: C1_2  and  C14_18 
REMARK    2  A    between atoms: N1_3  and  C2_4 
ROOT
HETATM    1  C2  UNL     1      24.810   2.869  51.199  1.00  0.00     0.013 C 
HETATM    2  C3  UNL     1      25.467   2.512  52.328  1.00  0.00     0.022 C 
HETATM    3  C4  UNL     1      25.106   1.385  53.250  1.00  0.00    -0.014 C 
HETATM    4  C5  UNL     1      24.415   0.329  53.737  1.00  0.00     0.061 C 
HETATM    5  C6  UNL     1      23.383  -0.717  53.848  1.00  0.00     0.093 C 
HETATM    6  N2  UNL     1      22.330  -0.961  53.098  1.00  0.00    -0.293 NA
HETATM    7  C7  UNL     1      22.045  -0.139  51.970  1.00  0.00     0.160 C 
HETATM    8  C8  UNL     1      21.342   0.638  51.166  1.00  0.00     0.030 C 
HETATM    9  C9  UNL     1      21.733   1.290  49.894  1.00  0.00     0.040 A 
HETATM   10  N3  UNL     1      21.593   0.981  48.648  1.00  0.00    -0.265 NA
HETATM   11  C10 UNL     1      22.194   2.026  47.893  1.00  0.00     0.113 A 
HETATM   12  C11 UNL     1      22.702   2.973  48.664  1.00  0.00     0.004 A 
HETATM   13  C12 UNL     1      22.477   2.636  50.080  1.00  0.00     0.067 A 
HETATM   14  C13 UNL     1      23.629   2.133  50.832  1.00  0.00     0.071 C 
ENDROOT
BRANCH   1  15
HETATM   15  N1  UNL     1      25.471   3.989  50.601  1.00  0.00    -0.327 N 
HETATM   16  C1  UNL     1      26.414   3.887  49.547  1.00  0.00     0.255 C 
HETATM   17  O1  UNL     1      26.563   2.664  49.230  1.00  0.00    -0.267 OA
HETATM   18  H1  UNL     1      25.273   4.978  50.935  1.00  0.00     0.169 HD
BRANCH  16  19
HETATM   19  C14 UNL     1      27.123   4.989  48.905  1.00  0.00     0.032 A 
HETATM   20  C15 UNL     1      28.438   5.096  48.486  1.00  0.00     0.017 A 
HETATM   21  C16 UNL     1      28.883   6.255  47.889  1.00  0.00     0.001 A 
HETATM   22  C17 UNL     1      28.023   7.331  47.701  1.00  0.00     0.000 A 
HETATM   23  C18 UNL     1      26.703   7.265  48.105  1.00  0.00     0.001 A 
HETATM   24  C19 UNL     1      26.313   6.100  48.689  1.00  0.00     0.017 A 
ENDBRANCH  16  19
ENDBRANCH   1  15
TORSDOF 2
ENDMDL
MODEL 5
REMARK VINA RESULT:      -8.5      2.168      4.514
REMARK  2 active torsions:
REMARK  status: ('A' for Active; 'I' for Inactive)
REMARK       I    between atoms: C1_2  and  N1_3 
REMARK    1  A    between atoms: C1_2  and  C14_18 
REMARK    2  A    between atoms: N1_3  and  C2_4 
ROOT
HETATM    1  C2  UNL     1      24.144   1.329  51.905  1.00  0.00     0.013 C 
HETATM    2  C3  UNL     1      25.026   0.805  52.789  1.00  0.00     0.022 C 
HETATM    3  C4  UNL     1      24.708  -0.146  53.906  1.00  0.00    -0.014 C 
HETATM    4  C5  UNL     1      23.964  -0.934  54.715  1.00  0.00     0.061 C 
HETATM    5  C6  UNL     1      22.787  -1.614  55.283  1.00  0.00     0.093 C 
HETATM    6  N2  UNL     1      21.515  -1.536  54.955  1.00  0.00    -0.293 NA
HETATM    7  C7  UNL     1      21.097  -0.683  53.895  1.00  0.00     0.160 C 
HETATM    8  C8  UNL     1      20.406   0.261  53.280  1.00  0.00     0.030 C 
HETATM    9  C9  UNL     1      20.494   0.744  51.882  1.00  0.00     0.040 A 
HETATM   10  N3  UNL     1      19.847   0.476  50.797  1.00  0.00    -0.265 NA
HETATM   11  C10 UNL     1      20.414   1.276  49.768  1.00  0.00     0.113 A 
HETATM   12  C11 UNL     1      21.403   2.034  50.210  1.00  0.00     0.004 A 
HETATM   13  C12 UNL     1      21.603   1.802  51.652  1.00  0.00     0.067 A 
HETATM   14  C13 UNL     1      22.753   0.982  52.037  1.00  0.00     0.071 C 
ENDROOT
BRANCH   1  15
HETATM   15  N1  UNL     1      24.841   2.186  50.994  1.00  0.00    -0.327 N 
HETATM   16  C1  UNL     1      24.855   3.600  51.084  1.00  0.00     0.255 C 
HETATM   17  O1  UNL     1      24.166   3.967  52.089  1.00  0.00    -0.267 OA
HETATM   18  H1  UNL     1      25.397   1.779  50.185  1.00  0.00     0.169 HD
BRANCH  16  19
HETATM   19  C14 UNL     1      25.540   4.522  50.184  1.00  0.00     0.032 A 
HETATM   20  C15 UNL     1      25.242   5.826  49.827  1.00  0.00     0.017 A 
HETATM   21  C16 UNL     1      26.055   6.507  48.949  1.00  0.00     0.001 A 
HETATM   22  C17 UNL     1      27.182   5.898  48.408  1.00  0.00     0.000 A 
HETATM   23  C18 UNL     1      27.514   4.597  48.737  1.00  0.00     0.001 A 
HETATM   24  C19 UNL     1      26.680   3.969  49.608  1.00  0.00     0.017 A 
ENDBRANCH  16  19
ENDBRANCH   1  15
TORSDOF 2
ENDMDL
MODEL 6
REMARK VINA RESULT:      -8.4      2.604      6.155
REMARK  2 active torsions:
REMARK  status: ('A' for Active; 'I' for Inactive)
REMARK       I    between atoms: C1_2  and  N1_3 
REMARK    1  A    between atoms: C1_2  and  C14_18 
REMARK    2  A    between atoms: N1_3  and  C2_4 
ROOT
HETATM    1  C2  UNL     1      24.187   0.934  52.311  1.00  0.00     0.013 C 
HETATM    2  C3  UNL     1      23.245   0.190  52.937  1.00  0.00     0.022 C 
HETATM    3  C4  UNL     1      21.799   0.549  53.114  1.00  0.00    -0.014 C 
HETATM    4  C5  UNL     1      20.662   1.277  53.023  1.00  0.00     0.061 C 
HETATM    5  C6  UNL     1      19.751   2.383  52.681  1.00  0.00     0.093 C 
HETATM    6  N2  UNL     1      19.989   3.532  52.085  1.00  0.00    -0.293 NA
HETATM    7  C7  UNL     1      21.308   3.864  51.665  1.00  0.00     0.160 C 
HETATM    8  C8  UNL     1      22.415   4.577  51.545  1.00  0.00     0.030 C 
HETATM    9  C9  UNL     1      23.666   4.272  50.813  1.00  0.00     0.040 A 
HETATM   10  N3  UNL     1      24.119   4.581  49.643  1.00  0.00    -0.265 NA
HETATM   11  C10 UNL     1      25.399   3.973  49.523  1.00  0.00     0.113 A 
HETATM   12  C11 UNL     1      25.737   3.295  50.607  1.00  0.00     0.004 A 
HETATM   13  C12 UNL     1      24.660   3.389  51.608  1.00  0.00     0.067 A 
HETATM   14  C13 UNL     1      23.804   2.212  51.772  1.00  0.00     0.071 C 
ENDROOT
BRANCH   1  15
HETATM   15  N1  UNL     1      25.440   0.242  52.351  1.00  0.00    -0.327 N 
HETATM   16  C1  UNL     1      26.485   0.540  53.261  1.00  0.00     0.255 C 
HETATM   17  O1  UNL     1      26.127   1.499  54.017  1.00  0.00    -0.267 OA
HETATM   18  H1  UNL     1      25.642  -0.554  51.677  1.00  0.00     0.169 HD
BRANCH  16  19
HETATM   19  C14 UNL     1      27.781  -0.124  53.344  1.00  0.00     0.032 A 
HETATM   20  C15 UNL     1      29.037   0.377  53.643  1.00  0.00     0.017 A 
HETATM   21  C16 UNL     1      30.130  -0.460  53.668  1.00  0.00     0.001 A 
HETATM   22  C17 UNL     1      29.990  -1.816  53.393  1.00  0.00     0.000 A 
HETATM   23  C18 UNL     1      28.754  -2.357  53.090  1.00  0.00     0.001 A 
HETATM   24  C19 UNL     1      27.708  -1.489  53.078  1.00  0.00     0.017 A 
ENDBRANCH  16  19
ENDBRANCH   1  15
TORSDOF 2
ENDMDL
MODEL 7
REMARK VINA RESULT:      -8.4      2.087      4.284
REMARK  2 active torsions:
REMARK  status: ('A' for Active; 'I' for Inactive)
REMARK       I    between atoms: C1_2  and  N1_3 
REMARK    1  A    between atoms: C1_2  and  C14_18 
REMARK    2  A    between atoms: N1_3  and  C2_4 
ROOT
HETATM    1  C2  UNL     1      24.248   2.794  51.791  1.00  0.00     0.013 C 
HETATM    2  C3  UNL     1      24.983   1.750  52.242  1.00  0.00     0.022 C 
HETATM    3  C4  UNL     1      24.452   0.487  52.854  1.00  0.00    -0.014 C 
HETATM    4  C5  UNL     1      23.544  -0.405  53.314  1.00  0.00     0.061 C 
HETATM    5  C6  UNL     1      22.242  -1.000  53.659  1.00  0.00     0.093 C 
HETATM    6  N2  UNL     1      21.025  -0.512  53.552  1.00  0.00    -0.293 NA
HETATM    7  C7  UNL     1      20.818   0.799  53.034  1.00  0.00     0.160 C 
HETATM    8  C8  UNL     1      20.374   2.042  52.985  1.00  0.00     0.030 C 
HETATM    9  C9  UNL     1      20.566   3.079  51.944  1.00  0.00     0.040 A 
HETATM   10  N3  UNL     1      19.864   3.480  50.937  1.00  0.00    -0.265 NA
HETATM   11  C10 UNL     1      20.601   4.521  50.308  1.00  0.00     0.113 A 
HETATM   12  C11 UNL     1      21.749   4.763  50.919  1.00  0.00     0.004 A 
HETATM   13  C12 UNL     1      21.897   3.861  52.075  1.00  0.00     0.067 A 
HETATM   14  C13 UNL     1      22.816   2.732  51.919  1.00  0.00     0.071 C 
ENDROOT
BRANCH   1  15
HETATM   15  N1  UNL     1      25.126   3.802  51.275  1.00  0.00    -0.327 N 
HETATM   16  C1  UNL     1      25.305   4.070  49.895  1.00  0.00     0.255 C 
HETATM   17  O1  UNL     1      24.570   3.288  49.213  1.00  0.00    -0.267 OA
HETATM   18  H1  UNL     1      25.696   4.412  51.932  1.00  0.00     0.169 HD
BRANCH  16  19
HETATM   19  C14 UNL     1      26.188   5.076  49.314  1.00  0.00     0.032 A 
HETATM   20  C15 UNL     1      26.012   6.436  49.128  1.00  0.00     0.017 A 
HETATM   21  C16 UNL     1      27.008   7.193  48.552  1.00  0.00     0.001 A 
HETATM   22  C17 UNL     1      28.201   6.604  48.148  1.00  0.00     0.000 A 
HETATM   23  C18 UNL     1      28.418   5.249  48.314  1.00  0.00     0.001 A 
HETATM   24  C19 UNL     1      27.404   4.547  48.887  1.00  0.00     0.017 A 
ENDBRANCH  16  19
ENDBRANCH   1  15
TORSDOF 2
ENDMDL
MODEL 8
REMARK VINA RESULT:      -8.2      3.521      7.899
REMARK  2 active torsions:
REMARK  status: ('A' for Active; 'I' for Inactive)
REMARK       I    between atoms: C1_2  and  N1_3 
REMARK    1  A    between atoms: C1_2  and  C14_18 
REMARK    2  A    between atoms: N1_3  and  C2_4 
ROOT
HETATM    1  C2  UNL     1      22.780  -0.019  52.805  1.00  0.00     0.013 C 
HETATM    2  C3  UNL     1      23.250  -0.883  53.737  1.00  0.00     0.022 C 
HETATM    3  C4  UNL     1      24.570  -0.796  54.446  1.00  0.00    -0.014 C 
HETATM    4  C5  UNL     1      25.786  -0.312  54.787  1.00  0.00     0.061 C 
HETATM    5  C6  UNL     1      26.971   0.563  54.808  1.00  0.00     0.093 C 
HETATM    6  N2  UNL     1      27.259   1.627  54.091  1.00  0.00    -0.293 NA
HETATM    7  C7  UNL     1      26.350   2.093  53.099  1.00  0.00     0.160 C 
HETATM    8  C8  UNL     1      25.927   2.491  51.912  1.00  0.00     0.030 C 
HETATM    9  C9  UNL     1      24.578   2.926  51.481  1.00  0.00     0.040 A 
HETATM   10  N3  UNL     1      24.008   4.076  51.343  1.00  0.00    -0.265 NA
HETATM   11  C10 UNL     1      22.682   3.829  50.893  1.00  0.00     0.113 A 
HETATM   12  C11 UNL     1      22.433   2.538  50.752  1.00  0.00     0.004 A 
HETATM   13  C12 UNL     1      23.629   1.758  51.112  1.00  0.00     0.067 A 
HETATM   14  C13 UNL     1      23.614   1.086  52.413  1.00  0.00     0.071 C 
ENDROOT
BRANCH   1  15
HETATM   15  N1  UNL     1      21.483  -0.447  52.377  1.00  0.00    -0.327 N 
HETATM   16  C1  UNL     1      20.268   0.146  52.804  1.00  0.00     0.255 C 
HETATM   17  O1  UNL     1      20.522   1.099  53.607  1.00  0.00    -0.267 OA
HETATM   18  H1  UNL     1      21.376  -1.254  51.694  1.00  0.00     0.169 HD
BRANCH  16  19
HETATM   19  C14 UNL     1      18.921  -0.251  52.408  1.00  0.00     0.032 A 
HETATM   20  C15 UNL     1      17.964  -0.997  53.075  1.00  0.00     0.017 A 
HETATM   21  C16 UNL     1      16.741  -1.239  52.490  1.00  0.00     0.001 A 
HETATM   22  C17 UNL     1      16.450  -0.741  51.225  1.00  0.00     0.000 A 
HETATM   23  C18 UNL     1      17.377   0.008  50.524  1.00  0.00     0.001 A 
HETATM   24  C19 UNL     1      18.568   0.218  51.145  1.00  0.00     0.017 A 
ENDBRANCH  16  19
ENDBRANCH   1  15
TORSDOF 2
ENDMDL
MODEL 9
REMARK VINA RESULT:      -8.1      2.253      2.686
REMARK  2 active torsions:
REMARK  status: ('A' for Active; 'I' for Inactive)
REMARK       I    between atoms: C1_2  and  N1_3 
REMARK    1  A    between atoms: C1_2  and  C14_18 
REMARK    2  A    between atoms: N1_3  and  C2_4 
ROOT
HETATM    1  C2  UNL     1      23.432   2.083  51.996  1.00  0.00     0.013 C 
HETATM    2  C3  UNL     1      22.101   1.836  52.030  1.00  0.00     0.022 C 
HETATM    3  C4  UNL     1      21.403   0.838  52.906  1.00  0.00    -0.014 C 
HETATM    4  C5  UNL     1      21.252  -0.133  53.837  1.00  0.00     0.061 C 
HETATM    5  C6  UNL     1      21.598  -1.129  54.865  1.00  0.00     0.093 C 
HETATM    6  N2  UNL     1      22.770  -1.500  55.335  1.00  0.00    -0.293 NA
HETATM    7  C7  UNL     1      23.965  -0.909  54.835  1.00  0.00     0.160 C 
HETATM    8  C8  UNL     1      25.177  -0.846  54.314  1.00  0.00     0.030 C 
HETATM    9  C9  UNL     1      26.010   0.334  53.985  1.00  0.00     0.040 A 
HETATM   10  N3  UNL     1      26.952   0.967  54.601  1.00  0.00    -0.265 NA
HETATM   11  C10 UNL     1      27.355   2.035  53.752  1.00  0.00     0.113 A 
HETATM   12  C11 UNL     1      26.671   2.063  52.621  1.00  0.00     0.004 A 
HETATM   13  C12 UNL     1      25.694   0.960  52.603  1.00  0.00     0.067 A 
HETATM   14  C13 UNL     1      24.294   1.312  52.852  1.00  0.00     0.071 C 
ENDROOT
BRANCH   1  15
HETATM   15  N1  UNL     1      23.698   3.109  51.033  1.00  0.00    -0.327 N 
HETATM   16  C1  UNL     1      23.872   4.478  51.356  1.00  0.00     0.255 C 
HETATM   17  O1  UNL     1      23.759   4.634  52.614  1.00  0.00    -0.267 OA
HETATM   18  H1  UNL     1      23.780   2.875  50.000  1.00  0.00     0.169 HD
BRANCH  16  19
HETATM   19  C14 UNL     1      24.136   5.565  50.420  1.00  0.00     0.032 A 
HETATM   20  C15 UNL     1      24.542   5.540  49.096  1.00  0.00     0.017 A 
HETATM   21  C16 UNL     1      24.723   6.717  48.404  1.00  0.00     0.001 A 
HETATM   22  C17 UNL     1      24.503   7.943  49.022  1.00  0.00     0.000 A 
HETATM   23  C18 UNL     1      24.098   8.012  50.341  1.00  0.00     0.001 A 
HETATM   24  C19 UNL     1      23.934   6.823  50.980  1.00  0.00     0.017 A 
ENDBRANCH  16  19
ENDBRANCH   1  15
TORSDOF 2
ENDMDL
