MODEL 1
REMARK VINA RESULT:      -9.2      0.000      0.000
REMARK  2 active torsions:
REMARK  status: ('A' for Active; 'I' for Inactive)
REMARK    1  A    between atoms: C4_5  and  N1_6 
REMARK    2  A    between atoms: N1_6  and  C5_7 
ROOT
HETATM    1  C5  UNL     1      23.995   0.040  53.079  1.00  0.00     0.109 C 
HETATM    2  N2  UNL     1      24.138   1.175  52.431  1.00  0.00    -0.229 NA
HETATM    3  C6  UNL     1      23.280   1.440  51.338  1.00  0.00     0.228 C 
HETATM    4  N3  UNL     1      22.613   2.358  50.789  1.00  0.00    -0.283 NA
HETATM    5  C7  UNL     1      22.512   3.736  51.228  1.00  0.00     0.152 C 
HETATM    6  C8  UNL     1      22.463   4.654  50.006  1.00  0.00     0.048 C 
HETATM    7  C9  UNL     1      21.223   4.237  49.180  1.00  0.00     0.169 C 
HETATM    8  O1  UNL     1      21.211   4.941  48.028  1.00  0.00    -0.389 OA
HETATM    9  C10 UNL     1      20.156   4.763  47.175  1.00  0.00     0.197 C 
HETATM   10  C11 UNL     1      19.914   3.342  46.805  1.00  0.00     0.295 C 
HETATM   11  N4  UNL     1      19.520   2.536  47.951  1.00  0.00     0.087 N 
HETATM   12  C12 UNL     1      18.173   2.936  48.275  1.00  0.00     0.299 C 
HETATM   13  C13 UNL     1      17.639   2.209  49.451  1.00  0.00     0.301 C 
HETATM   14  N5  UNL     1      18.365   2.535  50.684  1.00  0.00     0.102 N 
HETATM   15  C14 UNL     1      17.684   1.872  51.789  1.00  0.00     0.392 C 
HETATM   16  N6  UNL     1      17.812   0.440  51.772  1.00  0.00    -0.375 N 
HETATM   17  C15 UNL     1      19.137   0.023  52.167  1.00  0.00     0.084 C 
HETATM   18  C16 UNL     1      19.652  -0.472  53.292  1.00  0.00     0.016 C 
HETATM   19  C17 UNL     1      20.734  -0.984  54.119  1.00  0.00    -0.002 C 
HETATM   20  C18 UNL     1      21.999  -1.125  53.765  1.00  0.00    -0.019 C 
HETATM   21  C19 UNL     1      22.924  -0.934  52.649  1.00  0.00     0.105 C 
HETATM   22  H15 UNL     1      19.484   1.538  47.628  1.00  0.00     0.316 HD
HETATM   23  H20 UNL     1      18.281   3.573  50.767  1.00  0.00     0.318 HD
HETATM   24  H23 UNL     1      17.623  -0.574  51.672  1.00  0.00     0.160 HD
ENDROOT
BRANCH   1  25
HETATM   25  N1  UNL     1      24.876  -0.146  54.142  1.00  0.00    -0.344 N 
HETATM   26  H3  UNL     1      24.413  -0.331  55.059  1.00  0.00     0.167 HD
BRANCH  25  27
HETATM   27  C4  UNL     1      26.286  -0.097  54.010  1.00  0.00     0.035 A 
HETATM   28  C3  UNL     1      26.869  -1.192  53.370  1.00  0.00     0.032 A 
HETATM   29  C2  UNL     1      28.230  -1.374  53.111  1.00  0.00     0.046 A 
HETATM   30  C1  UNL     1      29.059  -0.337  53.551  1.00  0.00     0.138 A 
HETATM   31  F1  UNL     1      30.389  -0.468  53.326  1.00  0.00    -0.204 F 
HETATM   32  C21 UNL     1      28.520   0.752  54.184  1.00  0.00     0.074 A 
HETATM   33  C20 UNL     1      27.172   0.867  54.405  1.00  0.00     0.056 A 
HETATM   34 CL1  UNL     1      29.574   2.055  54.734  1.00  0.00    -0.081 Cl
ENDBRANCH  25  27
ENDBRANCH   1  25
TORSDOF 2
ENDMDL
MODEL 2
REMARK VINA RESULT:      -9.1      1.596      1.933
REMARK  2 active torsions:
REMARK  status: ('A' for Active; 'I' for Inactive)
REMARK    1  A    between atoms: C4_5  and  N1_6 
REMARK    2  A    between atoms: N1_6  and  C5_7 
ROOT
HETATM    1  C5  UNL     1      24.835   1.795  52.857  1.00  0.00     0.109 C 
HETATM    2  N2  UNL     1      24.565   3.041  52.536  1.00  0.00    -0.229 NA
HETATM    3  C6  UNL     1      23.640   3.284  51.494  1.00  0.00     0.228 C 
HETATM    4  N3  UNL     1      22.686   4.036  51.158  1.00  0.00    -0.283 NA
HETATM    5  C7  UNL     1      22.132   5.131  51.931  1.00  0.00     0.152 C 
HETATM    6  C8  UNL     1      21.741   6.270  50.988  1.00  0.00     0.048 C 
HETATM    7  C9  UNL     1      20.697   5.696  50.001  1.00  0.00     0.169 C 
HETATM    8  O1  UNL     1      20.415   6.636  49.073  1.00  0.00    -0.389 OA
HETATM    9  C10 UNL     1      19.463   6.349  48.134  1.00  0.00     0.197 C 
HETATM   10  C11 UNL     1      19.711   5.082  47.392  1.00  0.00     0.295 C 
HETATM   11  N4  UNL     1      19.645   3.916  48.261  1.00  0.00     0.087 N 
HETATM   12  C12 UNL     1      18.251   3.740  48.587  1.00  0.00     0.299 C 
HETATM   13  C13 UNL     1      18.028   2.590  49.494  1.00  0.00     0.301 C 
HETATM   14  N5  UNL     1      18.630   2.800  50.817  1.00  0.00     0.102 N 
HETATM   15  C14 UNL     1      18.245   1.677  51.663  1.00  0.00     0.392 C 
HETATM   16  N6  UNL     1      18.854   0.431  51.284  1.00  0.00    -0.375 N 
HETATM   17  C15 UNL     1      20.252   0.393  51.646  1.00  0.00     0.084 C 
HETATM   18  C16 UNL     1      20.934  -0.181  52.636  1.00  0.00     0.016 C 
HETATM   19  C17 UNL     1      22.146  -0.501  53.373  1.00  0.00    -0.002 C 
HETATM   20  C18 UNL     1      23.373  -0.110  53.081  1.00  0.00    -0.019 C 
HETATM   21  C19 UNL     1      24.149   0.670  52.118  1.00  0.00     0.105 C 
HETATM   22  H15 UNL     1      19.944   3.088  47.689  1.00  0.00     0.316 HD
HETATM   23  H20 UNL     1      18.200   3.687  51.159  1.00  0.00     0.318 HD
HETATM   24  H23 UNL     1      19.019  -0.522  50.912  1.00  0.00     0.160 HD
ENDROOT
BRANCH   1  25
HETATM   25  N1  UNL     1      25.753   1.639  53.893  1.00  0.00    -0.344 N 
HETATM   26  H3  UNL     1      25.491   2.124  54.779  1.00  0.00     0.167 HD
BRANCH  25  27
HETATM   27  C4  UNL     1      26.947   0.886  53.775  1.00  0.00     0.035 A 
HETATM   28  C3  UNL     1      28.129   1.587  54.020  1.00  0.00     0.032 A 
HETATM   29  C2  UNL     1      29.426   1.069  53.978  1.00  0.00     0.046 A 
HETATM   30  C1  UNL     1      29.510  -0.288  53.654  1.00  0.00     0.138 A 
HETATM   31  F1  UNL     1      30.748  -0.837  53.598  1.00  0.00    -0.204 F 
HETATM   32  C21 UNL     1      28.370  -1.007  53.407  1.00  0.00     0.074 A 
HETATM   33  C20 UNL     1      27.126  -0.435  53.467  1.00  0.00     0.056 A 
HETATM   34 CL1  UNL     1      28.486  -2.719  53.001  1.00  0.00    -0.081 Cl
ENDBRANCH  25  27
ENDBRANCH   1  25
TORSDOF 2
ENDMDL
MODEL 3
REMARK VINA RESULT:      -8.9      5.364      9.078
REMARK  2 active torsions:
REMARK  status: ('A' for Active; 'I' for Inactive)
REMARK    1  A    between atoms: C4_5  and  N1_6 
REMARK    2  A    between atoms: N1_6  and  C5_7 
ROOT
HETATM    1  C5  UNL     1      19.241  -0.966  53.240  1.00  0.00     0.109 C 
HETATM    2  N2  UNL     1      20.258  -1.401  53.952  1.00  0.00    -0.229 NA
HETATM    3  C6  UNL     1      21.567  -1.168  53.470  1.00  0.00     0.228 C 
HETATM    4  N3  UNL     1      22.727  -0.844  53.842  1.00  0.00    -0.283 NA
HETATM    5  C7  UNL     1      23.151  -0.547  55.196  1.00  0.00     0.152 C 
HETATM    6  C8  UNL     1      24.566  -1.087  55.414  1.00  0.00     0.048 C 
HETATM    7  C9  UNL     1      25.477  -0.391  54.375  1.00  0.00     0.169 C 
HETATM    8  O1  UNL     1      26.713  -0.930  54.451  1.00  0.00    -0.389 OA
HETATM    9  C10 UNL     1      27.693  -0.409  53.651  1.00  0.00     0.197 C 
HETATM   10  C11 UNL     1      27.335  -0.372  52.207  1.00  0.00     0.295 C 
HETATM   11  N4  UNL     1      26.217   0.521  51.941  1.00  0.00     0.087 N 
HETATM   12  C12 UNL     1      26.730   1.860  52.100  1.00  0.00     0.299 C 
HETATM   13  C13 UNL     1      25.688   2.890  51.881  1.00  0.00     0.301 C 
HETATM   14  N5  UNL     1      24.633   2.840  52.900  1.00  0.00     0.102 N 
HETATM   15  C14 UNL     1      23.737   3.966  52.667  1.00  0.00     0.392 C 
HETATM   16  N6  UNL     1      22.957   3.846  51.466  1.00  0.00    -0.375 N 
HETATM   17  C15 UNL     1      21.902   2.870  51.614  1.00  0.00     0.084 C 
HETATM   18  C16 UNL     1      20.591   2.954  51.830  1.00  0.00     0.016 C 
HETATM   19  C17 UNL     1      19.262   2.398  52.034  1.00  0.00    -0.002 C 
HETATM   20  C18 UNL     1      18.939   1.117  52.064  1.00  0.00    -0.019 C 
HETATM   21  C19 UNL     1      19.499  -0.228  51.947  1.00  0.00     0.105 C 
HETATM   22  H15 UNL     1      25.958   0.399  50.931  1.00  0.00     0.316 HD
HETATM   23  H20 UNL     1      25.141   2.953  53.805  1.00  0.00     0.318 HD
HETATM   24  H23 UNL     1      22.585   3.965  50.505  1.00  0.00     0.160 HD
ENDROOT
BRANCH   1  25
HETATM   25  N1  UNL     1      17.986  -1.233  53.782  1.00  0.00    -0.344 N 
HETATM   26  H3  UNL     1      17.736  -0.641  54.605  1.00  0.00     0.167 HD
BRANCH  25  27
HETATM   27  C4  UNL     1      17.105  -2.217  53.271  1.00  0.00     0.035 A 
HETATM   28  C3  UNL     1      17.363  -3.527  53.680  1.00  0.00     0.032 A 
HETATM   29  C2  UNL     1      16.636  -4.666  53.324  1.00  0.00     0.046 A 
HETATM   30  C1  UNL     1      15.551  -4.433  52.473  1.00  0.00     0.138 A 
HETATM   31  F1  UNL     1      14.816  -5.508  52.097  1.00  0.00    -0.204 F 
HETATM   32  C21 UNL     1      15.270  -3.160  52.052  1.00  0.00     0.074 A 
HETATM   33  C20 UNL     1      16.026  -2.085  52.441  1.00  0.00     0.056 A 
HETATM   34 CL1  UNL     1      13.899  -2.876  50.980  1.00  0.00    -0.081 Cl
ENDBRANCH  25  27
ENDBRANCH   1  25
TORSDOF 2
ENDMDL
MODEL 4
REMARK VINA RESULT:      -8.5      2.009      2.565
REMARK  2 active torsions:
REMARK  status: ('A' for Active; 'I' for Inactive)
REMARK    1  A    between atoms: C4_5  and  N1_6 
REMARK    2  A    between atoms: N1_6  and  C5_7 
ROOT
HETATM    1  C5  UNL     1      23.118   1.795  52.122  1.00  0.00     0.109 C 
HETATM    2  N2  UNL     1      23.307   3.086  51.956  1.00  0.00    -0.229 NA
HETATM    3  C6  UNL     1      22.662   3.730  50.875  1.00  0.00     0.228 C 
HETATM    4  N3  UNL     1      22.054   4.787  50.559  1.00  0.00    -0.283 NA
HETATM    5  C7  UNL     1      21.778   5.919  51.422  1.00  0.00     0.152 C 
HETATM    6  C8  UNL     1      21.906   7.213  50.618  1.00  0.00     0.048 C 
HETATM    7  C9  UNL     1      20.880   7.126  49.462  1.00  0.00     0.169 C 
HETATM    8  O1  UNL     1      21.044   8.196  48.654  1.00  0.00    -0.389 OA
HETATM    9  C10 UNL     1      20.189   8.341  47.597  1.00  0.00     0.197 C 
HETATM   10  C11 UNL     1      20.120   7.148  46.710  1.00  0.00     0.295 C 
HETATM   11  N4  UNL     1      19.565   5.988  47.393  1.00  0.00     0.087 N 
HETATM   12  C12 UNL     1      18.157   6.256  47.554  1.00  0.00     0.299 C 
HETATM   13  C13 UNL     1      17.455   5.160  48.264  1.00  0.00     0.301 C 
HETATM   14  N5  UNL     1      17.904   5.020  49.654  1.00  0.00     0.102 N 
HETATM   15  C14 UNL     1      17.068   4.011  50.291  1.00  0.00     0.392 C 
HETATM   16  N6  UNL     1      17.292   2.679  49.800  1.00  0.00    -0.375 N 
HETATM   17  C15 UNL     1      18.541   2.138  50.286  1.00  0.00     0.084 C 
HETATM   18  C16 UNL     1      18.860   1.272  51.246  1.00  0.00     0.016 C 
HETATM   19  C17 UNL     1      19.793   0.490  52.044  1.00  0.00    -0.002 C 
HETATM   20  C18 UNL     1      21.108   0.477  51.930  1.00  0.00    -0.019 C 
HETATM   21  C19 UNL     1      22.217   1.047  51.167  1.00  0.00     0.105 C 
HETATM   22  H15 UNL     1      19.660   5.171  46.741  1.00  0.00     0.316 HD
HETATM   23  H20 UNL     1      17.737   5.960  50.076  1.00  0.00     0.318 HD
HETATM   24  H23 UNL     1      17.195   1.768  49.314  1.00  0.00     0.160 HD
ENDROOT
BRANCH   1  25
HETATM   25  N1  UNL     1      23.786   1.236  53.209  1.00  0.00    -0.344 N 
HETATM   26  H3  UNL     1      23.175   1.021  54.027  1.00  0.00     0.167 HD
BRANCH  25  27
HETATM   27  C4  UNL     1      25.177   0.969  53.221  1.00  0.00     0.035 A 
HETATM   28  C3  UNL     1      25.541  -0.346  52.926  1.00  0.00     0.032 A 
HETATM   29  C2  UNL     1      26.841  -0.854  52.865  1.00  0.00     0.046 A 
HETATM   30  C1  UNL     1      27.852   0.075  53.132  1.00  0.00     0.138 A 
HETATM   31  F1  UNL     1      29.131  -0.370  53.089  1.00  0.00    -0.204 F 
HETATM   32  C21 UNL     1      27.530   1.374  53.426  1.00  0.00     0.074 A 
HETATM   33  C20 UNL     1      26.231   1.807  53.468  1.00  0.00     0.056 A 
HETATM   34 CL1  UNL     1      28.812   2.539  53.760  1.00  0.00    -0.081 Cl
ENDBRANCH  25  27
ENDBRANCH   1  25
TORSDOF 2
ENDMDL
MODEL 5
REMARK VINA RESULT:      -8.4      8.210     11.005
REMARK  2 active torsions:
REMARK  status: ('A' for Active; 'I' for Inactive)
REMARK    1  A    between atoms: C4_5  and  N1_6 
REMARK    2  A    between atoms: N1_6  and  C5_7 
ROOT
HETATM    1  C5  UNL     1      26.633   5.130  49.484  1.00  0.00     0.109 C 
HETATM    2  N2  UNL     1      27.795   4.648  49.100  1.00  0.00    -0.229 NA
HETATM    3  C6  UNL     1      28.547   5.376  48.150  1.00  0.00     0.228 C 
HETATM    4  N3  UNL     1      29.722   5.732  47.864  1.00  0.00    -0.283 NA
HETATM    5  C7  UNL     1      30.927   5.420  48.607  1.00  0.00     0.152 C 
HETATM    6  C8  UNL     1      32.077   5.179  47.628  1.00  0.00     0.048 C 
HETATM    7  C9  UNL     1      32.247   6.479  46.807  1.00  0.00     0.169 C 
HETATM    8  O1  UNL     1      33.172   6.268  45.846  1.00  0.00    -0.389 OA
HETATM    9  C10 UNL     1      33.516   7.319  45.041  1.00  0.00     0.197 C 
HETATM   10  C11 UNL     1      32.356   7.972  44.375  1.00  0.00     0.295 C 
HETATM   11  N4  UNL     1      31.457   8.601  45.332  1.00  0.00     0.087 N 
HETATM   12  C12 UNL     1      32.148   9.770  45.820  1.00  0.00     0.299 C 
HETATM   13  C13 UNL     1      31.356  10.509  46.831  1.00  0.00     0.301 C 
HETATM   14  N5  UNL     1      31.158   9.730  48.060  1.00  0.00     0.102 N 
HETATM   15  C14 UNL     1      30.486  10.590  49.026  1.00  0.00     0.392 C 
HETATM   16  N6  UNL     1      29.125  10.897  48.679  1.00  0.00    -0.375 N 
HETATM   17  C15 UNL     1      28.256   9.762  48.889  1.00  0.00     0.084 C 
HETATM   18  C16 UNL     1      27.385   9.429  49.839  1.00  0.00     0.016 C 
HETATM   19  C17 UNL     1      26.399   8.559  50.463  1.00  0.00    -0.002 C 
HETATM   20  C18 UNL     1      25.980   7.391  50.009  1.00  0.00    -0.019 C 
HETATM   21  C19 UNL     1      26.145   6.440  48.911  1.00  0.00     0.105 C 
HETATM   22  H15 UNL     1      30.617   8.931  44.795  1.00  0.00     0.316 HD
HETATM   23  H20 UNL     1      32.125   9.500  48.379  1.00  0.00     0.318 HD
HETATM   24  H23 UNL     1      28.264  11.380  48.365  1.00  0.00     0.160 HD
ENDROOT
BRANCH   1  25
HETATM   25  N1  UNL     1      25.954   4.356  50.422  1.00  0.00    -0.344 N 
HETATM   26  H3  UNL     1      26.343   4.410  51.389  1.00  0.00     0.167 HD
BRANCH  25  27
HETATM   27  C4  UNL     1      24.825   3.559  50.112  1.00  0.00     0.035 A 
HETATM   28  C3  UNL     1      24.428   2.664  51.107  1.00  0.00     0.032 A 
HETATM   29  C2  UNL     1      23.346   1.782  51.046  1.00  0.00     0.046 A 
HETATM   30  C1  UNL     1      22.611   1.828  49.857  1.00  0.00     0.138 A 
HETATM   31  F1  UNL     1      21.553   0.989  49.749  1.00  0.00    -0.204 F 
HETATM   32  C21 UNL     1      22.974   2.695  48.860  1.00  0.00     0.074 A 
HETATM   33  C20 UNL     1      24.049   3.535  48.986  1.00  0.00     0.056 A 
HETATM   34 CL1  UNL     1      22.041   2.747  47.364  1.00  0.00    -0.081 Cl
ENDBRANCH  25  27
ENDBRANCH   1  25
TORSDOF 2
ENDMDL
MODEL 6
REMARK VINA RESULT:      -8.4      1.634      2.137
REMARK  2 active torsions:
REMARK  status: ('A' for Active; 'I' for Inactive)
REMARK    1  A    between atoms: C4_5  and  N1_6 
REMARK    2  A    between atoms: N1_6  and  C5_7 
ROOT
HETATM    1  C5  UNL     1      23.692   1.458  52.054  1.00  0.00     0.109 C 
HETATM    2  N2  UNL     1      24.104   2.424  51.263  1.00  0.00    -0.229 NA
HETATM    3  C6  UNL     1      23.445   2.611  50.025  1.00  0.00     0.228 C 
HETATM    4  N3  UNL     1      23.017   3.503  49.244  1.00  0.00    -0.283 NA
HETATM    5  C7  UNL     1      23.099   4.937  49.440  1.00  0.00     0.152 C 
HETATM    6  C8  UNL     1      23.358   5.617  48.094  1.00  0.00     0.048 C 
HETATM    7  C9  UNL     1      22.176   5.244  47.168  1.00  0.00     0.169 C 
HETATM    8  O1  UNL     1      22.426   5.724  45.931  1.00  0.00    -0.389 OA
HETATM    9  C10 UNL     1      21.470   5.552  44.968  1.00  0.00     0.197 C 
HETATM   10  C11 UNL     1      21.037   4.138  44.795  1.00  0.00     0.295 C 
HETATM   11  N4  UNL     1      20.373   3.618  45.981  1.00  0.00     0.087 N 
HETATM   12  C12 UNL     1      19.084   4.264  46.032  1.00  0.00     0.299 C 
HETATM   13  C13 UNL     1      18.294   3.847  47.214  1.00  0.00     0.301 C 
HETATM   14  N5  UNL     1      18.907   4.280  48.475  1.00  0.00     0.102 N 
HETATM   15  C14 UNL     1      17.992   3.934  49.555  1.00  0.00     0.392 C 
HETATM   16  N6  UNL     1      17.876   2.519  49.784  1.00  0.00    -0.375 N 
HETATM   17  C15 UNL     1      19.051   1.990  50.436  1.00  0.00     0.084 C 
HETATM   18  C16 UNL     1      19.332   1.636  51.688  1.00  0.00     0.016 C 
HETATM   19  C17 UNL     1      20.201   1.128  52.740  1.00  0.00    -0.002 C 
HETATM   20  C18 UNL     1      21.457   0.742  52.606  1.00  0.00    -0.019 C 
HETATM   21  C19 UNL     1      22.531   0.591  51.627  1.00  0.00     0.105 C 
HETATM   22  H15 UNL     1      20.208   2.595  45.818  1.00  0.00     0.316 HD
HETATM   23  H20 UNL     1      18.991   5.316  48.379  1.00  0.00     0.318 HD
HETATM   24  H23 UNL     1      17.530   1.543  49.819  1.00  0.00     0.160 HD
ENDROOT
BRANCH   1  25
HETATM   25  N1  UNL     1      24.391   1.340  53.253  1.00  0.00    -0.344 N 
HETATM   26  H3  UNL     1      23.852   1.633  54.097  1.00  0.00     0.167 HD
BRANCH  25  27
HETATM   27  C4  UNL     1      25.720   0.858  53.342  1.00  0.00     0.035 A 
HETATM   28  C3  UNL     1      25.925  -0.435  52.857  1.00  0.00     0.032 A 
HETATM   29  C2  UNL     1      27.139  -1.127  52.825  1.00  0.00     0.046 A 
HETATM   30  C1  UNL     1      28.234  -0.423  53.337  1.00  0.00     0.138 A 
HETATM   31  F1  UNL     1      29.434  -1.052  53.330  1.00  0.00    -0.204 F 
HETATM   32  C21 UNL     1      28.068   0.848  53.821  1.00  0.00     0.074 A 
HETATM   33  C20 UNL     1      26.846   1.468  53.822  1.00  0.00     0.056 A 
HETATM   34 CL1  UNL     1      29.455   1.728  54.463  1.00  0.00    -0.081 Cl
ENDBRANCH  25  27
ENDBRANCH   1  25
TORSDOF 2
ENDMDL
MODEL 7
REMARK VINA RESULT:      -8.3      4.769      7.611
REMARK  2 active torsions:
REMARK  status: ('A' for Active; 'I' for Inactive)
REMARK    1  A    between atoms: C4_5  and  N1_6 
REMARK    2  A    between atoms: N1_6  and  C5_7 
ROOT
HETATM    1  C5  UNL     1      24.248   7.723  50.585  1.00  0.00     0.109 C 
HETATM    2  N2  UNL     1      24.522   6.805  51.486  1.00  0.00    -0.229 NA
HETATM    3  C6  UNL     1      23.600   5.750  51.676  1.00  0.00     0.228 C 
HETATM    4  N3  UNL     1      23.528   4.508  51.879  1.00  0.00    -0.283 NA
HETATM    5  C7  UNL     1      24.639   3.586  52.006  1.00  0.00     0.152 C 
HETATM    6  C8  UNL     1      24.304   2.533  53.064  1.00  0.00     0.048 C 
HETATM    7  C9  UNL     1      23.025   1.806  52.584  1.00  0.00     0.169 C 
HETATM    8  O1  UNL     1      22.624   0.951  53.548  1.00  0.00    -0.389 OA
HETATM    9  C10 UNL     1      21.536   0.161  53.297  1.00  0.00     0.197 C 
HETATM   10  C11 UNL     1      20.327   0.918  52.874  1.00  0.00     0.295 C 
HETATM   11  N4  UNL     1      20.518   1.589  51.597  1.00  0.00     0.087 N 
HETATM   12  C12 UNL     1      20.518   0.550  50.596  1.00  0.00     0.299 C 
HETATM   13  C13 UNL     1      20.729   1.086  49.231  1.00  0.00     0.301 C 
HETATM   14  N5  UNL     1      22.064   1.675  49.064  1.00  0.00     0.102 N 
HETATM   15  C14 UNL     1      22.212   2.051  47.664  1.00  0.00     0.392 C 
HETATM   16  N6  UNL     1      21.379   3.154  47.270  1.00  0.00    -0.375 N 
HETATM   17  C15 UNL     1      21.875   4.406  47.793  1.00  0.00     0.084 C 
HETATM   18  C16 UNL     1      22.561   5.419  47.267  1.00  0.00     0.016 C 
HETATM   19  C17 UNL     1      23.223   6.714  47.315  1.00  0.00    -0.002 C 
HETATM   20  C18 UNL     1      23.330   7.506  48.366  1.00  0.00    -0.019 C 
HETATM   21  C19 UNL     1      22.975   7.620  49.780  1.00  0.00     0.105 C 
HETATM   22  H15 UNL     1      19.672   2.187  51.432  1.00  0.00     0.316 HD
HETATM   23  H20 UNL     1      22.721   0.902  49.312  1.00  0.00     0.318 HD
HETATM   24  H23 UNL     1      20.627   3.733  46.852  1.00  0.00     0.160 HD
ENDROOT
BRANCH   1  25
HETATM   25  N1  UNL     1      25.206   8.727  50.458  1.00  0.00    -0.344 N 
HETATM   26  H3  UNL     1      24.911   9.655  50.835  1.00  0.00     0.167 HD
BRANCH  25  27
HETATM   27  C4  UNL     1      26.480   8.526  49.873  1.00  0.00     0.035 A 
HETATM   28  C3  UNL     1      27.388   9.574  50.032  1.00  0.00     0.032 A 
HETATM   29  C2  UNL     1      28.702   9.613  49.559  1.00  0.00     0.046 A 
HETATM   30  C1  UNL     1      29.114   8.472  48.863  1.00  0.00     0.138 A 
HETATM   31  F1  UNL     1      30.381   8.463  48.382  1.00  0.00    -0.204 F 
HETATM   32  C21 UNL     1      28.249   7.425  48.689  1.00  0.00     0.074 A 
HETATM   33  C20 UNL     1      26.970   7.452  49.181  1.00  0.00     0.056 A 
HETATM   34 CL1  UNL     1      28.778   5.989  47.811  1.00  0.00    -0.081 Cl
ENDBRANCH  25  27
ENDBRANCH   1  25
TORSDOF 2
ENDMDL
MODEL 8
REMARK VINA RESULT:      -8.3      4.243      6.702
REMARK  2 active torsions:
REMARK  status: ('A' for Active; 'I' for Inactive)
REMARK    1  A    between atoms: C4_5  and  N1_6 
REMARK    2  A    between atoms: N1_6  and  C5_7 
ROOT
HETATM    1  C5  UNL     1      24.829   4.088  50.344  1.00  0.00     0.109 C 
HETATM    2  N2  UNL     1      23.593   4.528  50.263  1.00  0.00    -0.229 NA
HETATM    3  C6  UNL     1      22.539   3.585  50.268  1.00  0.00     0.228 C 
HETATM    4  N3  UNL     1      21.383   3.379  50.725  1.00  0.00    -0.283 NA
HETATM    5  C7  UNL     1      20.619   4.266  51.580  1.00  0.00     0.152 C 
HETATM    6  C8  UNL     1      19.141   4.196  51.191  1.00  0.00     0.048 C 
HETATM    7  C9  UNL     1      18.699   2.724  51.372  1.00  0.00     0.169 C 
HETATM    8  O1  UNL     1      17.432   2.593  50.923  1.00  0.00    -0.389 OA
HETATM    9  C10 UNL     1      16.827   1.373  51.050  1.00  0.00     0.197 C 
HETATM   10  C11 UNL     1      17.606   0.251  50.457  1.00  0.00     0.295 C 
HETATM   11  N4  UNL     1      18.871   0.037  51.144  1.00  0.00     0.087 N 
HETATM   12  C12 UNL     1      18.537  -0.544  52.421  1.00  0.00     0.299 C 
HETATM   13  C13 UNL     1      19.738  -0.800  53.252  1.00  0.00     0.301 C 
HETATM   14  N5  UNL     1      20.417   0.441  53.645  1.00  0.00     0.102 N 
HETATM   15  C14 UNL     1      21.497   0.087  54.556  1.00  0.00     0.392 C 
HETATM   16  N6  UNL     1      22.576  -0.624  53.926  1.00  0.00    -0.375 N 
HETATM   17  C15 UNL     1      23.381   0.254  53.107  1.00  0.00     0.084 C 
HETATM   18  C16 UNL     1      24.563   0.843  53.272  1.00  0.00     0.016 C 
HETATM   19  C17 UNL     1      25.671   1.690  52.855  1.00  0.00    -0.002 C 
HETATM   20  C18 UNL     1      25.777   2.344  51.712  1.00  0.00    -0.019 C 
HETATM   21  C19 UNL     1      25.086   2.603  50.451  1.00  0.00     0.105 C 
HETATM   22  H15 UNL     1      19.401  -0.684  50.596  1.00  0.00     0.316 HD
HETATM   23  H20 UNL     1      19.681   0.993  54.139  1.00  0.00     0.318 HD
HETATM   24  H23 UNL     1      23.234  -1.363  53.617  1.00  0.00     0.160 HD
ENDROOT
BRANCH   1  25
HETATM   25  N1  UNL     1      25.809   5.079  50.334  1.00  0.00    -0.344 N 
HETATM   26  H3  UNL     1      26.677   4.833  50.859  1.00  0.00     0.167 HD
BRANCH  25  27
HETATM   27  C4  UNL     1      25.662   6.320  49.668  1.00  0.00     0.035 A 
HETATM   28  C3  UNL     1      25.495   7.432  50.496  1.00  0.00     0.032 A 
HETATM   29  C2  UNL     1      25.340   8.758  50.085  1.00  0.00     0.046 A 
HETATM   30  C1  UNL     1      25.359   8.954  48.700  1.00  0.00     0.138 A 
HETATM   31  F1  UNL     1      25.210  10.223  48.251  1.00  0.00    -0.204 F 
HETATM   32  C21 UNL     1      25.520   7.885  47.858  1.00  0.00     0.074 A 
HETATM   33  C20 UNL     1      25.667   6.606  48.331  1.00  0.00     0.056 A 
HETATM   34 CL1  UNL     1      25.542   8.141  46.114  1.00  0.00    -0.081 Cl
ENDBRANCH  25  27
ENDBRANCH   1  25
TORSDOF 2
ENDMDL
MODEL 9
REMARK VINA RESULT:      -8.2      5.100      9.537
REMARK  2 active torsions:
REMARK  status: ('A' for Active; 'I' for Inactive)
REMARK    1  A    between atoms: C4_5  and  N1_6 
REMARK    2  A    between atoms: N1_6  and  C5_7 
ROOT
HETATM    1  C5  UNL     1      18.101   1.219  50.446  1.00  0.00     0.109 C 
HETATM    2  N2  UNL     1      18.504   0.518  51.483  1.00  0.00    -0.229 NA
HETATM    3  C6  UNL     1      19.891   0.306  51.656  1.00  0.00     0.228 C 
HETATM    4  N3  UNL     1      20.795   0.265  52.533  1.00  0.00    -0.283 NA
HETATM    5  C7  UNL     1      20.630   0.474  53.958  1.00  0.00     0.152 C 
HETATM    6  C8  UNL     1      21.558  -0.474  54.720  1.00  0.00     0.048 C 
HETATM    7  C9  UNL     1      23.002  -0.146  54.269  1.00  0.00     0.169 C 
HETATM    8  O1  UNL     1      23.844  -1.042  54.826  1.00  0.00    -0.389 OA
HETATM    9  C10 UNL     1      25.185  -0.893  54.600  1.00  0.00     0.197 C 
HETATM   10  C11 UNL     1      25.547  -0.810  53.159  1.00  0.00     0.295 C 
HETATM   11  N4  UNL     1      24.996   0.376  52.521  1.00  0.00     0.087 N 
HETATM   12  C12 UNL     1      25.757   1.492  53.029  1.00  0.00     0.299 C 
HETATM   13  C13 UNL     1      25.289   2.786  52.481  1.00  0.00     0.301 C 
HETATM   14  N5  UNL     1      23.927   3.117  52.919  1.00  0.00     0.102 N 
HETATM   15  C14 UNL     1      23.618   4.455  52.433  1.00  0.00     0.392 C 
HETATM   16  N6  UNL     1      23.468   4.533  51.006  1.00  0.00    -0.375 N 
HETATM   17  C15 UNL     1      22.222   3.946  50.571  1.00  0.00     0.084 C 
HETATM   18  C16 UNL     1      21.047   4.448  50.193  1.00  0.00     0.016 C 
HETATM   19  C17 UNL     1      19.671   4.347  49.730  1.00  0.00    -0.002 C 
HETATM   20  C18 UNL     1      19.003   3.236  49.481  1.00  0.00    -0.019 C 
HETATM   21  C19 UNL     1      19.122   1.779  49.484  1.00  0.00     0.105 C 
HETATM   22  H15 UNL     1      25.197   0.297  51.494  1.00  0.00     0.316 HD
HETATM   23  H20 UNL     1      23.980   3.104  53.961  1.00  0.00     0.318 HD
HETATM   24  H23 UNL     1      23.624   4.720  49.998  1.00  0.00     0.160 HD
ENDROOT
BRANCH   1  25
HETATM   25  N1  UNL     1      16.721   1.385  50.346  1.00  0.00    -0.344 N 
HETATM   26  H3  UNL     1      16.297   0.967  49.489  1.00  0.00     0.167 HD
BRANCH  25  27
HETATM   27  C4  UNL     1      15.940   2.056  51.319  1.00  0.00     0.035 A 
HETATM   28  C3  UNL     1      16.319   3.372  51.592  1.00  0.00     0.032 A 
HETATM   29  C2  UNL     1      15.706   4.241  52.498  1.00  0.00     0.046 A 
HETATM   30  C1  UNL     1      14.607   3.707  53.179  1.00  0.00     0.138 A 
HETATM   31  F1  UNL     1      13.979   4.511  54.071  1.00  0.00    -0.204 F 
HETATM   32  C21 UNL     1      14.208   2.419  52.935  1.00  0.00     0.074 A 
HETATM   33  C20 UNL     1      14.857   1.619  52.030  1.00  0.00     0.056 A 
HETATM   34 CL1  UNL     1      12.821   1.754  53.798  1.00  0.00    -0.081 Cl
ENDBRANCH  25  27
ENDBRANCH   1  25
TORSDOF 2
ENDMDL
