MODEL 1
REMARK VINA RESULT:      -8.3      0.000      0.000
REMARK  1 active torsions:
REMARK  status: ('A' for Active; 'I' for Inactive)
REMARK    1  A    between atoms: C14_16  and  C15_17 
ROOT
HETATM    1  C1  UNL     1      27.970   2.251  52.860  1.00  0.00     0.070 C 
HETATM    2  C2  UNL     1      27.303   1.034  53.412  1.00  0.00     0.027 C 
HETATM    3  N1  UNL     1      27.772   0.078  52.636  1.00  0.00    -0.275 NA
HETATM    4  C3  UNL     1      27.424  -1.305  52.760  1.00  0.00     0.270 C 
HETATM    5  N2  UNL     1      26.396  -1.376  53.760  1.00  0.00    -0.374 N 
HETATM    6  C4  UNL     1      25.246  -0.600  53.494  1.00  0.00     0.017 A 
HETATM    7  C5  UNL     1      24.108  -0.590  54.293  1.00  0.00     0.022 A 
HETATM    8  C6  UNL     1      23.401   0.351  53.549  1.00  0.00    -0.013 A 
HETATM    9  C7  UNL     1      23.998   0.898  52.377  1.00  0.00     0.006 A 
HETATM   10  C8  UNL     1      24.965   1.136  51.356  1.00  0.00     0.023 A 
HETATM   11  C9  UNL     1      25.093   0.293  52.401  1.00  0.00     0.032 A 
HETATM   12  C10 UNL     1      24.814   1.845  53.183  1.00  0.00     0.015 A 
HETATM   13  C11 UNL     1      25.494   2.250  54.259  1.00  0.00    -0.038 C 
HETATM   14  C12 UNL     1      26.431   1.366  54.573  1.00  0.00     0.035 C 
HETATM   15  C13 UNL     1      23.705   2.987  52.749  1.00  0.00     0.027 A 
HETATM   16  C14 UNL     1      22.860   1.886  51.895  1.00  0.00     0.033 A 
HETATM   17  H6  UNL     1      26.375  -1.901  54.633  1.00  0.00     0.161 HD
ENDROOT
BRANCH  16  18
HETATM   18  C15 UNL     1      22.803   2.168  50.515  1.00  0.00    -0.053 A 
HETATM   19  C16 UNL     1      21.936   1.282  49.872  1.00  0.00     0.007 A 
HETATM   20  C17 UNL     1      21.707   1.363  48.490  1.00  0.00     0.001 A 
HETATM   21  C18 UNL     1      22.316   2.309  47.717  1.00  0.00     0.000 A 
HETATM   22  C19 UNL     1      23.198   3.230  48.305  1.00  0.00     0.001 A 
HETATM   23  C20 UNL     1      23.358   3.068  49.675  1.00  0.00     0.007 A 
ENDBRANCH  16  18
TORSDOF 1
ENDMDL
MODEL 2
REMARK VINA RESULT:      -8.3      2.123      2.576
REMARK  1 active torsions:
REMARK  status: ('A' for Active; 'I' for Inactive)
REMARK    1  A    between atoms: C14_16  and  C15_17 
ROOT
HETATM    1  C1  UNL     1      29.086   1.071  54.651  1.00  0.00     0.070 C 
HETATM    2  C2  UNL     1      28.157  -0.045  54.301  1.00  0.00     0.027 C 
HETATM    3  N1  UNL     1      28.841  -0.707  53.390  1.00  0.00    -0.275 NA
HETATM    4  C3  UNL     1      28.372  -1.885  52.726  1.00  0.00     0.270 C 
HETATM    5  N2  UNL     1      27.011  -2.071  53.146  1.00  0.00    -0.374 N 
HETATM    6  C4  UNL     1      26.150  -0.982  52.887  1.00  0.00     0.017 A 
HETATM    7  C5  UNL     1      24.783  -0.988  53.142  1.00  0.00     0.022 A 
HETATM    8  C6  UNL     1      24.538   0.317  52.725  1.00  0.00    -0.013 A 
HETATM    9  C7  UNL     1      25.621   1.103  52.237  1.00  0.00     0.006 A 
HETATM   10  C8  UNL     1      26.948   1.460  51.856  1.00  0.00     0.023 A 
HETATM   11  C9  UNL     1      26.550   0.274  52.359  1.00  0.00     0.032 A 
HETATM   12  C10 UNL     1      26.078   1.410  53.618  1.00  0.00     0.015 A 
HETATM   13  C11 UNL     1      26.256   1.168  54.919  1.00  0.00    -0.038 C 
HETATM   14  C12 UNL     1      26.898   0.021  55.093  1.00  0.00     0.035 C 
HETATM   15  C13 UNL     1      25.354   2.877  53.407  1.00  0.00     0.027 A 
HETATM   16  C14 UNL     1      24.879   2.460  51.904  1.00  0.00     0.033 A 
HETATM   17  H6  UNL     1      26.577  -2.871  53.604  1.00  0.00     0.161 HD
ENDROOT
BRANCH  16  18
HETATM   18  C15 UNL     1      25.443   3.265  50.893  1.00  0.00    -0.053 A 
HETATM   19  C16 UNL     1      24.625   4.367  50.634  1.00  0.00     0.007 A 
HETATM   20  C17 UNL     1      24.975   5.321  49.667  1.00  0.00     0.001 A 
HETATM   21  C18 UNL     1      26.126   5.216  48.940  1.00  0.00     0.000 A 
HETATM   22  C19 UNL     1      26.991   4.131  49.155  1.00  0.00     0.001 A 
HETATM   23  C20 UNL     1      26.558   3.243  50.131  1.00  0.00     0.007 A 
ENDBRANCH  16  18
TORSDOF 1
ENDMDL
MODEL 3
REMARK VINA RESULT:      -8.1      2.320      5.639
REMARK  1 active torsions:
REMARK  status: ('A' for Active; 'I' for Inactive)
REMARK    1  A    between atoms: C14_16  and  C15_17 
ROOT
HETATM    1  C1  UNL     1      21.874   1.002  49.612  1.00  0.00     0.070 C 
HETATM    2  C2  UNL     1      22.277   2.380  50.025  1.00  0.00     0.027 C 
HETATM    3  N1  UNL     1      23.107   2.732  49.065  1.00  0.00    -0.275 NA
HETATM    4  C3  UNL     1      23.780   3.994  49.002  1.00  0.00     0.270 C 
HETATM    5  N2  UNL     1      23.475   4.676  50.229  1.00  0.00    -0.374 N 
HETATM    6  C4  UNL     1      23.836   3.982  51.406  1.00  0.00     0.017 A 
HETATM    7  C5  UNL     1      23.701   4.498  52.690  1.00  0.00     0.022 A 
HETATM    8  C6  UNL     1      24.169   3.374  53.362  1.00  0.00    -0.013 A 
HETATM    9  C7  UNL     1      24.581   2.237  52.609  1.00  0.00     0.006 A 
HETATM   10  C8  UNL     1      24.854   1.409  51.481  1.00  0.00     0.023 A 
HETATM   11  C9  UNL     1      24.358   2.663  51.454  1.00  0.00     0.032 A 
HETATM   12  C10 UNL     1      23.174   1.795  52.425  1.00  0.00     0.015 A 
HETATM   13  C11 UNL     1      21.856   1.965  52.288  1.00  0.00    -0.038 C 
HETATM   14  C12 UNL     1      21.599   2.793  51.285  1.00  0.00     0.035 C 
HETATM   15  C13 UNL     1      23.483   0.700  53.619  1.00  0.00     0.027 A 
HETATM   16  C14 UNL     1      25.011   1.250  53.768  1.00  0.00     0.033 A 
HETATM   17  H6  UNL     1      23.037   5.584  50.375  1.00  0.00     0.161 HD
ENDROOT
BRANCH  16  18
HETATM   18  C15 UNL     1      25.989   0.284  53.454  1.00  0.00    -0.053 A 
HETATM   19  C16 UNL     1      27.243   0.694  53.910  1.00  0.00     0.007 A 
HETATM   20  C17 UNL     1      28.383  -0.102  53.720  1.00  0.00     0.001 A 
HETATM   21  C18 UNL     1      28.315  -1.309  53.085  1.00  0.00     0.000 A 
HETATM   22  C19 UNL     1      27.082  -1.778  52.605  1.00  0.00     0.001 A 
HETATM   23  C20 UNL     1      26.016  -0.920  52.841  1.00  0.00     0.007 A 
ENDBRANCH  16  18
TORSDOF 1
ENDMDL
MODEL 4
REMARK VINA RESULT:      -8.1      2.830      5.925
REMARK  1 active torsions:
REMARK  status: ('A' for Active; 'I' for Inactive)
REMARK    1  A    between atoms: C14_16  and  C15_17 
ROOT
HETATM    1  C1  UNL     1      19.897   2.494  52.305  1.00  0.00     0.070 C 
HETATM    2  C2  UNL     1      20.447   2.903  50.978  1.00  0.00     0.027 C 
HETATM    3  N1  UNL     1      20.147   1.870  50.217  1.00  0.00    -0.275 NA
HETATM    4  C3  UNL     1      20.470   1.771  48.826  1.00  0.00     0.270 C 
HETATM    5  N2  UNL     1      21.278   2.918  48.517  1.00  0.00    -0.374 N 
HETATM    6  C4  UNL     1      22.454   3.049  49.288  1.00  0.00     0.017 A 
HETATM    7  C5  UNL     1      23.410   4.040  49.095  1.00  0.00     0.022 A 
HETATM    8  C6  UNL     1      24.246   3.660  50.140  1.00  0.00    -0.013 A 
HETATM    9  C7  UNL     1      23.892   2.533  50.936  1.00  0.00     0.006 A 
HETATM   10  C8  UNL     1      23.148   1.412  51.411  1.00  0.00     0.023 A 
HETATM   11  C9  UNL     1      22.818   2.215  50.379  1.00  0.00     0.032 A 
HETATM   12  C10 UNL     1      22.927   3.339  51.728  1.00  0.00     0.015 A 
HETATM   13  C11 UNL     1      22.044   4.321  51.930  1.00  0.00    -0.038 C 
HETATM   14  C12 UNL     1      21.067   4.255  51.036  1.00  0.00     0.035 C 
HETATM   15  C13 UNL     1      24.094   3.377  52.894  1.00  0.00     0.027 A 
HETATM   16  C14 UNL     1      25.098   2.498  51.958  1.00  0.00     0.033 A 
HETATM   17  H6  UNL     1      21.127   3.650  47.825  1.00  0.00     0.161 HD
ENDROOT
BRANCH  16  18
HETATM   18  C15 UNL     1      25.429   1.244  52.513  1.00  0.00    -0.053 A 
HETATM   19  C16 UNL     1      26.505   0.676  51.828  1.00  0.00     0.007 A 
HETATM   20  C17 UNL     1      27.024  -0.574  52.196  1.00  0.00     0.001 A 
HETATM   21  C18 UNL     1      26.504  -1.287  53.237  1.00  0.00     0.000 A 
HETATM   22  C19 UNL     1      25.422  -0.769  53.967  1.00  0.00     0.001 A 
HETATM   23  C20 UNL     1      24.981   0.472  53.526  1.00  0.00     0.007 A 
ENDBRANCH  16  18
TORSDOF 1
ENDMDL
MODEL 5
REMARK VINA RESULT:      -7.7      2.725      5.982
REMARK  1 active torsions:
REMARK  status: ('A' for Active; 'I' for Inactive)
REMARK    1  A    between atoms: C14_16  and  C15_17 
ROOT
HETATM    1  C1  UNL     1      21.892   1.466  48.294  1.00  0.00     0.070 C 
HETATM    2  C2  UNL     1      21.825   2.864  48.817  1.00  0.00     0.027 C 
HETATM    3  N1  UNL     1      22.717   3.487  48.074  1.00  0.00    -0.275 NA
HETATM    4  C3  UNL     1      23.034   4.878  48.191  1.00  0.00     0.270 C 
HETATM    5  N2  UNL     1      22.313   5.362  49.335  1.00  0.00    -0.374 N 
HETATM    6  C4  UNL     1      22.589   4.690  50.546  1.00  0.00     0.017 A 
HETATM    7  C5  UNL     1      22.060   5.052  51.779  1.00  0.00     0.022 A 
HETATM    8  C6  UNL     1      22.655   4.030  52.513  1.00  0.00    -0.013 A 
HETATM    9  C7  UNL     1      23.496   3.096  51.844  1.00  0.00     0.006 A 
HETATM   10  C8  UNL     1      24.205   2.454  50.786  1.00  0.00     0.023 A 
HETATM   11  C9  UNL     1      23.416   3.543  50.679  1.00  0.00     0.032 A 
HETATM   12  C10 UNL     1      22.324   2.333  51.342  1.00  0.00     0.015 A 
HETATM   13  C11 UNL     1      21.066   2.179  50.920  1.00  0.00    -0.038 C 
HETATM   14  C12 UNL     1      20.816   2.993  49.904  1.00  0.00     0.035 C 
HETATM   15  C13 UNL     1      22.652   1.258  52.550  1.00  0.00     0.027 A 
HETATM   16  C14 UNL     1      23.918   2.158  53.047  1.00  0.00     0.033 A 
HETATM   17  H6  UNL     1      21.633   6.118  49.401  1.00  0.00     0.161 HD
ENDROOT
BRANCH  16  18
HETATM   18  C15 UNL     1      25.157   1.495  52.935  1.00  0.00    -0.053 A 
HETATM   19  C16 UNL     1      26.152   2.204  53.612  1.00  0.00     0.007 A 
HETATM   20  C17 UNL     1      27.476   1.742  53.651  1.00  0.00     0.001 A 
HETATM   21  C18 UNL     1      27.849   0.584  53.032  1.00  0.00     0.000 A 
HETATM   22  C19 UNL     1      26.894  -0.175  52.336  1.00  0.00     0.001 A 
HETATM   23  C20 UNL     1      25.615   0.364  52.356  1.00  0.00     0.007 A 
ENDBRANCH  16  18
TORSDOF 1
ENDMDL
MODEL 6
REMARK VINA RESULT:      -7.4      3.201      6.147
REMARK  1 active torsions:
REMARK  status: ('A' for Active; 'I' for Inactive)
REMARK    1  A    between atoms: C14_16  and  C15_17 
ROOT
HETATM    1  C1  UNL     1      24.239   7.096  51.191  1.00  0.00     0.070 C 
HETATM    2  C2  UNL     1      23.282   6.188  50.489  1.00  0.00     0.027 C 
HETATM    3  N1  UNL     1      22.396   5.930  51.430  1.00  0.00    -0.275 NA
HETATM    4  C3  UNL     1      21.254   5.086  51.252  1.00  0.00     0.270 C 
HETATM    5  N2  UNL     1      21.380   4.505  49.945  1.00  0.00    -0.374 N 
HETATM    6  C4  UNL     1      22.571   3.778  49.724  1.00  0.00     0.017 A 
HETATM    7  C5  UNL     1      22.852   3.073  48.559  1.00  0.00     0.022 A 
HETATM    8  C6  UNL     1      24.118   2.638  48.938  1.00  0.00    -0.013 A 
HETATM    9  C7  UNL     1      24.621   3.003  50.220  1.00  0.00     0.006 A 
HETATM   10  C8  UNL     1      24.674   3.597  51.516  1.00  0.00     0.023 A 
HETATM   11  C9  UNL     1      23.655   3.679  50.636  1.00  0.00     0.032 A 
HETATM   12  C10 UNL     1      25.005   4.354  49.733  1.00  0.00     0.015 A 
HETATM   13  C11 UNL     1      24.897   5.446  48.970  1.00  0.00    -0.038 C 
HETATM   14  C12 UNL     1      23.681   5.963  49.073  1.00  0.00     0.035 C 
HETATM   15  C13 UNL     1      26.545   3.765  49.665  1.00  0.00     0.027 A 
HETATM   16  C14 UNL     1      26.041   2.307  50.193  1.00  0.00     0.033 A 
HETATM   17  H6  UNL     1      20.739   4.541  49.154  1.00  0.00     0.161 HD
ENDROOT
BRANCH  16  18
HETATM   18  C15 UNL     1      26.595   1.939  51.437  1.00  0.00    -0.053 A 
HETATM   19  C16 UNL     1      26.206   0.642  51.778  1.00  0.00     0.007 A 
HETATM   20  C17 UNL     1      26.634   0.045  52.973  1.00  0.00     0.001 A 
HETATM   21  C18 UNL     1      27.447   0.702  53.852  1.00  0.00     0.000 A 
HETATM   22  C19 UNL     1      27.873   2.008  53.564  1.00  0.00     0.001 A 
HETATM   23  C20 UNL     1      27.398   2.510  52.360  1.00  0.00     0.007 A 
ENDBRANCH  16  18
TORSDOF 1
ENDMDL
MODEL 7
REMARK VINA RESULT:      -7.3      2.725      5.800
REMARK  1 active torsions:
REMARK  status: ('A' for Active; 'I' for Inactive)
REMARK    1  A    between atoms: C14_16  and  C15_17 
ROOT
HETATM    1  C1  UNL     1      22.299   1.919  48.803  1.00  0.00     0.070 C 
HETATM    2  C2  UNL     1      21.508   2.414  49.970  1.00  0.00     0.027 C 
HETATM    3  N1  UNL     1      21.994   3.627  50.146  1.00  0.00    -0.275 NA
HETATM    4  C3  UNL     1      21.557   4.531  51.165  1.00  0.00     0.270 C 
HETATM    5  N2  UNL     1      20.637   3.797  51.989  1.00  0.00    -0.374 N 
HETATM    6  C4  UNL     1      21.159   2.618  52.566  1.00  0.00     0.017 A 
HETATM    7  C5  UNL     1      20.462   1.809  53.456  1.00  0.00     0.022 A 
HETATM    8  C6  UNL     1      21.458   0.849  53.610  1.00  0.00    -0.013 A 
HETATM    9  C7  UNL     1      22.687   1.007  52.909  1.00  0.00     0.006 A 
HETATM   10  C8  UNL     1      23.672   1.578  52.049  1.00  0.00     0.023 A 
HETATM   11  C9  UNL     1      22.446   2.076  52.307  1.00  0.00     0.032 A 
HETATM   12  C10 UNL     1      22.088   0.482  51.654  1.00  0.00     0.015 A 
HETATM   13  C11 UNL     1      21.103   0.258  50.779  1.00  0.00    -0.038 C 
HETATM   14  C12 UNL     1      20.523   1.399  50.435  1.00  0.00     0.035 C 
HETATM   15  C13 UNL     1      22.859  -0.931  52.014  1.00  0.00     0.027 A 
HETATM   16  C14 UNL     1      23.469  -0.285  53.380  1.00  0.00     0.033 A 
HETATM   17  H6  UNL     1      19.665   4.001  52.217  1.00  0.00     0.161 HD
ENDROOT
BRANCH  16  18
HETATM   18  C15 UNL     1      24.877  -0.212  53.389  1.00  0.00    -0.053 A 
HETATM   19  C16 UNL     1      25.346   0.005  54.686  1.00  0.00     0.007 A 
HETATM   20  C17 UNL     1      26.719   0.111  54.954  1.00  0.00     0.001 A 
HETATM   21  C18 UNL     1      27.653   0.006  53.964  1.00  0.00     0.000 A 
HETATM   22  C19 UNL     1      27.244  -0.214  52.639  1.00  0.00     0.001 A 
HETATM   23  C20 UNL     1      25.868  -0.304  52.476  1.00  0.00     0.007 A 
ENDBRANCH  16  18
TORSDOF 1
ENDMDL
MODEL 8
REMARK VINA RESULT:      -7.1      3.268      5.815
REMARK  1 active torsions:
REMARK  status: ('A' for Active; 'I' for Inactive)
REMARK    1  A    between atoms: C14_16  and  C15_17 
ROOT
HETATM    1  C1  UNL     1      21.306   6.172  51.185  1.00  0.00     0.070 C 
HETATM    2  C2  UNL     1      22.229   5.646  50.135  1.00  0.00     0.027 C 
HETATM    3  N1  UNL     1      21.392   5.165  49.238  1.00  0.00    -0.275 NA
HETATM    4  C3  UNL     1      21.792   4.537  48.015  1.00  0.00     0.270 C 
HETATM    5  N2  UNL     1      23.223   4.424  48.069  1.00  0.00    -0.374 N 
HETATM    6  C4  UNL     1      23.726   3.710  49.179  1.00  0.00     0.017 A 
HETATM    7  C5  UNL     1      25.072   3.418  49.376  1.00  0.00     0.022 A 
HETATM    8  C6  UNL     1      24.916   2.769  50.597  1.00  0.00    -0.013 A 
HETATM    9  C7  UNL     1      23.609   2.633  51.147  1.00  0.00     0.006 A 
HETATM   10  C8  UNL     1      22.193   2.746  51.273  1.00  0.00     0.023 A 
HETATM   11  C9  UNL     1      22.949   3.212  50.258  1.00  0.00     0.032 A 
HETATM   12  C10 UNL     1      23.631   4.028  51.658  1.00  0.00     0.015 A 
HETATM   13  C11 UNL     1      23.979   5.318  51.652  1.00  0.00    -0.038 C 
HETATM   14  C12 UNL     1      23.655   5.877  50.494  1.00  0.00     0.035 C 
HETATM   15  C13 UNL     1      23.960   3.360  53.131  1.00  0.00     0.027 A 
HETATM   16  C14 UNL     1      23.930   1.862  52.491  1.00  0.00     0.033 A 
HETATM   17  H6  UNL     1      23.927   4.783  47.426  1.00  0.00     0.161 HD
ENDROOT
BRANCH  16  18
HETATM   18  C15 UNL     1      22.907   1.046  53.019  1.00  0.00    -0.053 A 
HETATM   19  C16 UNL     1      23.373  -0.257  53.209  1.00  0.00     0.007 A 
HETATM   20  C17 UNL     1      22.540  -1.258  53.730  1.00  0.00     0.001 A 
HETATM   21  C18 UNL     1      21.243  -1.004  54.074  1.00  0.00     0.000 A 
HETATM   22  C19 UNL     1      20.717   0.287  53.907  1.00  0.00     0.001 A 
HETATM   23  C20 UNL     1      21.618   1.206  53.386  1.00  0.00     0.007 A 
ENDBRANCH  16  18
TORSDOF 1
ENDMDL
MODEL 9
REMARK VINA RESULT:      -7.1      8.340     10.354
REMARK  1 active torsions:
REMARK  status: ('A' for Active; 'I' for Inactive)
REMARK    1  A    between atoms: C14_16  and  C15_17 
ROOT
HETATM    1  C1  UNL     1      34.091   8.803  47.625  1.00  0.00     0.070 C 
HETATM    2  C2  UNL     1      34.253   7.553  46.823  1.00  0.00     0.027 C 
HETATM    3  N1  UNL     1      34.010   7.971  45.597  1.00  0.00    -0.275 NA
HETATM    4  C3  UNL     1      34.039   7.132  44.437  1.00  0.00     0.270 C 
HETATM    5  N2  UNL     1      34.229   5.791  44.914  1.00  0.00    -0.374 N 
HETATM    6  C4  UNL     1      33.254   5.335  45.829  1.00  0.00     0.017 A 
HETATM    7  C5  UNL     1      33.210   4.046  46.347  1.00  0.00     0.022 A 
HETATM    8  C6  UNL     1      32.103   4.242  47.167  1.00  0.00    -0.013 A 
HETATM    9  C7  UNL     1      31.472   5.519  47.184  1.00  0.00     0.006 A 
HETATM   10  C8  UNL     1      31.211   6.886  46.871  1.00  0.00     0.023 A 
HETATM   11  C9  UNL     1      32.203   6.123  46.369  1.00  0.00     0.032 A 
HETATM   12  C10 UNL     1      32.505   6.066  48.102  1.00  0.00     0.015 A 
HETATM   13  C11 UNL     1      33.728   6.167  48.631  1.00  0.00    -0.038 C 
HETATM   14  C12 UNL     1      34.625   6.396  47.682  1.00  0.00     0.035 C 
HETATM   15  C13 UNL     1      31.385   5.865  49.297  1.00  0.00     0.027 A 
HETATM   16  C14 UNL     1      30.311   5.264  48.228  1.00  0.00     0.033 A 
HETATM   17  H6  UNL     1      34.964   5.121  44.691  1.00  0.00     0.161 HD
ENDROOT
BRANCH  16  18
HETATM   18  C15 UNL     1      29.149   6.053  48.096  1.00  0.00    -0.053 A 
HETATM   19  C16 UNL     1      28.023   5.335  48.507  1.00  0.00     0.007 A 
HETATM   20  C17 UNL     1      26.743   5.908  48.474  1.00  0.00     0.001 A 
HETATM   21  C18 UNL     1      26.542   7.187  48.041  1.00  0.00     0.000 A 
HETATM   22  C19 UNL     1      27.633   7.960  47.616  1.00  0.00     0.001 A 
HETATM   23  C20 UNL     1      28.856   7.306  47.687  1.00  0.00     0.007 A 
ENDBRANCH  16  18
TORSDOF 1
ENDMDL
