MODEL 1
REMARK VINA RESULT:      -6.9      0.000      0.000
REMARK  7 active torsions:
REMARK  status: ('A' for Active; 'I' for Inactive)
REMARK    1  A    between atoms: C2_2  and  N1_3 
REMARK    2  A    between atoms: N1_3  and  C3_4 
REMARK    3  A    between atoms: N1_3  and  C5_6 
REMARK    4  A    between atoms: C5_6  and  C6_7 
REMARK    5  A    between atoms: C6_7  and  C7_8 
REMARK    6  A    between atoms: C8_9  and  C9_10 
REMARK       I    between atoms: C9_10  and  N2_12 
REMARK    7  A    between atoms: N2_12  and  C10_13 
ROOT
HETATM    1  C9  UNL     1      25.910   3.601  50.439  1.00  0.00     0.300 C 
HETATM    2  O1  UNL     1      26.834   2.927  49.905  1.00  0.00    -0.258 OA
HETATM    3  N2  UNL     1      25.370   3.235  51.708  1.00  0.00    -0.316 N 
HETATM    4  H15 UNL     1      24.605   3.879  52.047  1.00  0.00     0.170 HD
ENDROOT
BRANCH   3   5
HETATM    5  C10 UNL     1      26.028   2.075  52.182  1.00  0.00     0.036 A 
HETATM    6  C11 UNL     1      25.612   0.782  51.914  1.00  0.00     0.032 A 
HETATM    7  C12 UNL     1      26.344  -0.290  52.431  1.00  0.00     0.035 A 
HETATM    8  C13 UNL     1      27.478  -0.040  53.204  1.00  0.00     0.069 A 
HETATM    9  C14 UNL     1      27.850   1.264  53.443  1.00  0.00     0.024 A 
HETATM   10  N4  UNL     1      28.417  -0.899  53.848  1.00  0.00    -0.258 NA
HETATM   11  C15 UNL     1      27.139   2.347  52.942  1.00  0.00     0.045 A 
HETATM   12  C16 UNL     1      29.058   1.186  54.262  1.00  0.00     0.078 A 
HETATM   13  N3  UNL     1      29.713   2.223  54.706  1.00  0.00    -0.298 NA
HETATM   14  C17 UNL     1      29.332  -0.227  54.464  1.00  0.00     0.149 A 
HETATM   15  H19 UNL     1      29.376   3.200  54.483  1.00  0.00     0.187 HD
ENDBRANCH   3   5
BRANCH   1  16
HETATM   16  C8  UNL     1      25.468   4.739  49.677  1.00  0.00    -0.005 C 
HETATM   17  C7  UNL     1      25.114   5.701  49.036  1.00  0.00    -0.095 C 
BRANCH  17  18
HETATM   18  C6  UNL     1      24.698   6.891  48.266  1.00  0.00     0.114 C 
BRANCH  18  19
HETATM   19  C5  UNL     1      25.890   7.480  47.595  1.00  0.00     0.129 C 
BRANCH  19  20
HETATM   20  N1  UNL     1      26.966   7.807  48.471  1.00  0.00    -0.412 N 
BRANCH  20  21
HETATM   21  C2  UNL     1      28.272   7.468  48.071  1.00  0.00     0.112 C 
HETATM   22  C1  UNL     1      28.646   6.027  48.166  1.00  0.00     0.026 C 
ENDBRANCH  20  21
BRANCH  20  23
HETATM   23  C3  UNL     1      26.793   8.967  49.256  1.00  0.00     0.112 C 
HETATM   24  C4  UNL     1      28.112   9.392  49.859  1.00  0.00     0.026 C 
ENDBRANCH  20  23
ENDBRANCH  19  20
ENDBRANCH  18  19
ENDBRANCH  17  18
ENDBRANCH   1  16
TORSDOF 7
ENDMDL
MODEL 2
REMARK VINA RESULT:      -6.9      5.327      8.436
REMARK  7 active torsions:
REMARK  status: ('A' for Active; 'I' for Inactive)
REMARK    1  A    between atoms: C2_2  and  N1_3 
REMARK    2  A    between atoms: N1_3  and  C3_4 
REMARK    3  A    between atoms: N1_3  and  C5_6 
REMARK    4  A    between atoms: C5_6  and  C6_7 
REMARK    5  A    between atoms: C6_7  and  C7_8 
REMARK    6  A    between atoms: C8_9  and  C9_10 
REMARK       I    between atoms: C9_10  and  N2_12 
REMARK    7  A    between atoms: N2_12  and  C10_13 
ROOT
HETATM    1  C9  UNL     1      23.714  -0.396  53.678  1.00  0.00     0.300 C 
HETATM    2  O1  UNL     1      24.316  -0.794  54.713  1.00  0.00    -0.258 OA
HETATM    3  N2  UNL     1      24.421   0.243  52.615  1.00  0.00    -0.316 N 
HETATM    4  H15 UNL     1      23.805   0.527  51.805  1.00  0.00     0.170 HD
ENDROOT
BRANCH   3   5
HETATM    5  C10 UNL     1      25.795   0.323  52.946  1.00  0.00     0.036 A 
HETATM    6  C11 UNL     1      26.434   1.489  53.329  1.00  0.00     0.032 A 
HETATM    7  C12 UNL     1      27.796   1.449  53.639  1.00  0.00     0.035 A 
HETATM    8  C13 UNL     1      28.485   0.239  53.557  1.00  0.00     0.069 A 
HETATM    9  C14 UNL     1      27.804  -0.893  53.169  1.00  0.00     0.024 A 
HETATM   10  N4  UNL     1      29.842  -0.120  53.810  1.00  0.00    -0.258 NA
HETATM   11  C15 UNL     1      26.451  -0.880  52.855  1.00  0.00     0.045 A 
HETATM   12  C16 UNL     1      28.789  -1.973  53.189  1.00  0.00     0.078 A 
HETATM   13  N3  UNL     1      28.528  -3.211  52.871  1.00  0.00    -0.298 NA
HETATM   14  C17 UNL     1      30.048  -1.379  53.607  1.00  0.00     0.149 A 
HETATM   15  H19 UNL     1      27.554  -3.489  52.570  1.00  0.00     0.187 HD
ENDBRANCH   3   5
BRANCH   1  16
HETATM   16  C8  UNL     1      22.296  -0.641  53.665  1.00  0.00    -0.005 C 
HETATM   17  C7  UNL     1      21.104  -0.839  53.671  1.00  0.00    -0.095 C 
BRANCH  17  18
HETATM   18  C6  UNL     1      19.647  -1.088  53.703  1.00  0.00     0.114 C 
BRANCH  18  19
HETATM   19  C5  UNL     1      18.973  -0.155  52.758  1.00  0.00     0.129 C 
BRANCH  19  20
HETATM   20  N1  UNL     1      17.685  -0.580  52.318  1.00  0.00    -0.412 N 
BRANCH  20  21
HETATM   21  C2  UNL     1      17.327  -0.328  50.980  1.00  0.00     0.112 C 
HETATM   22  C1  UNL     1      18.252   0.539  50.194  1.00  0.00     0.026 C 
ENDBRANCH  20  21
BRANCH  20  23
HETATM   23  C3  UNL     1      17.174  -1.742  52.934  1.00  0.00     0.112 C 
HETATM   24  C4  UNL     1      15.825  -2.093  52.351  1.00  0.00     0.026 C 
ENDBRANCH  20  23
ENDBRANCH  19  20
ENDBRANCH  18  19
ENDBRANCH  17  18
ENDBRANCH   1  16
TORSDOF 7
ENDMDL
MODEL 3
REMARK VINA RESULT:      -6.9      4.979      6.886
REMARK  7 active torsions:
REMARK  status: ('A' for Active; 'I' for Inactive)
REMARK    1  A    between atoms: C2_2  and  N1_3 
REMARK    2  A    between atoms: N1_3  and  C3_4 
REMARK    3  A    between atoms: N1_3  and  C5_6 
REMARK    4  A    between atoms: C5_6  and  C6_7 
REMARK    5  A    between atoms: C6_7  and  C7_8 
REMARK    6  A    between atoms: C8_9  and  C9_10 
REMARK       I    between atoms: C9_10  and  N2_12 
REMARK    7  A    between atoms: N2_12  and  C10_13 
ROOT
HETATM    1  C9  UNL     1      23.771   0.083  53.199  1.00  0.00     0.300 C 
HETATM    2  O1  UNL     1      24.270  -0.326  54.284  1.00  0.00    -0.258 OA
HETATM    3  N2  UNL     1      24.595   0.632  52.171  1.00  0.00    -0.316 N 
HETATM    4  H15 UNL     1      24.059   0.936  51.313  1.00  0.00     0.170 HD
ENDROOT
BRANCH   3   5
HETATM    5  C10 UNL     1      25.946   0.618  52.593  1.00  0.00     0.036 A 
HETATM    6  C11 UNL     1      26.656   1.747  52.960  1.00  0.00     0.032 A 
HETATM    7  C12 UNL     1      27.987   1.614  53.366  1.00  0.00     0.035 A 
HETATM    8  C13 UNL     1      28.573   0.348  53.396  1.00  0.00     0.069 A 
HETATM    9  C14 UNL     1      27.824  -0.744  53.020  1.00  0.00     0.024 A 
HETATM   10  N4  UNL     1      29.874  -0.106  53.763  1.00  0.00    -0.258 NA
HETATM   11  C15 UNL     1      26.501  -0.638  52.611  1.00  0.00     0.045 A 
HETATM   12  C16 UNL     1      28.710  -1.899  53.166  1.00  0.00     0.078 A 
HETATM   13  N3  UNL     1      28.365  -3.127  52.895  1.00  0.00    -0.298 NA
HETATM   14  C17 UNL     1      29.984  -1.387  53.640  1.00  0.00     0.149 A 
HETATM   15  H19 UNL     1      27.393  -3.341  52.540  1.00  0.00     0.187 HD
ENDBRANCH   3   5
BRANCH   1  16
HETATM   16  C8  UNL     1      22.343  -0.054  53.095  1.00  0.00    -0.005 C 
HETATM   17  C7  UNL     1      21.141  -0.159  53.023  1.00  0.00    -0.095 C 
BRANCH  17  18
HETATM   18  C6  UNL     1      19.670  -0.289  52.960  1.00  0.00     0.114 C 
BRANCH  18  19
HETATM   19  C5  UNL     1      19.212   0.020  51.577  1.00  0.00     0.129 C 
BRANCH  19  20
HETATM   20  N1  UNL     1      19.554   1.323  51.113  1.00  0.00    -0.412 N 
BRANCH  20  21
HETATM   21  C2  UNL     1      20.010   1.456  49.788  1.00  0.00     0.112 C 
HETATM   22  C1  UNL     1      21.408   1.009  49.516  1.00  0.00     0.026 C 
ENDBRANCH  20  21
BRANCH  20  23
HETATM   23  C3  UNL     1      18.819   2.392  51.671  1.00  0.00     0.112 C 
HETATM   24  C4  UNL     1      17.359   2.271  51.301  1.00  0.00     0.026 C 
ENDBRANCH  20  23
ENDBRANCH  19  20
ENDBRANCH  18  19
ENDBRANCH  17  18
ENDBRANCH   1  16
TORSDOF 7
ENDMDL
MODEL 4
REMARK VINA RESULT:      -6.6      2.399      3.254
REMARK  7 active torsions:
REMARK  status: ('A' for Active; 'I' for Inactive)
REMARK    1  A    between atoms: C2_2  and  N1_3 
REMARK    2  A    between atoms: N1_3  and  C3_4 
REMARK    3  A    between atoms: N1_3  and  C5_6 
REMARK    4  A    between atoms: C5_6  and  C6_7 
REMARK    5  A    between atoms: C6_7  and  C7_8 
REMARK    6  A    between atoms: C8_9  and  C9_10 
REMARK       I    between atoms: C9_10  and  N2_12 
REMARK    7  A    between atoms: N2_12  and  C10_13 
ROOT
HETATM    1  C9  UNL     1      26.617   3.876  49.808  1.00  0.00     0.300 C 
HETATM    2  O1  UNL     1      26.834   2.673  49.494  1.00  0.00    -0.258 OA
HETATM    3  N2  UNL     1      25.710   4.211  50.858  1.00  0.00    -0.316 N 
HETATM    4  H15 UNL     1      25.617   5.250  51.024  1.00  0.00     0.170 HD
ENDROOT
BRANCH   3   5
HETATM    5  C10 UNL     1      25.168   3.025  51.407  1.00  0.00     0.036 A 
HETATM    6  C11 UNL     1      23.998   2.430  50.966  1.00  0.00     0.032 A 
HETATM    7  C12 UNL     1      23.559   1.254  51.580  1.00  0.00     0.035 A 
HETATM    8  C13 UNL     1      24.304   0.702  52.622  1.00  0.00     0.069 A 
HETATM    9  C14 UNL     1      25.460   1.333  53.025  1.00  0.00     0.024 A 
HETATM   10  N4  UNL     1      24.129  -0.464  53.424  1.00  0.00    -0.258 NA
HETATM   11  C15 UNL     1      25.918   2.503  52.432  1.00  0.00     0.045 A 
HETATM   12  C16 UNL     1      25.999   0.516  54.111  1.00  0.00     0.078 A 
HETATM   13  N3  UNL     1      27.093   0.792  54.765  1.00  0.00    -0.298 NA
HETATM   14  C17 UNL     1      25.082  -0.598  54.286  1.00  0.00     0.149 A 
HETATM   15  H19 UNL     1      27.652   1.657  54.526  1.00  0.00     0.187 HD
ENDBRANCH   3   5
BRANCH   1  16
HETATM   16  C8  UNL     1      27.348   4.848  49.038  1.00  0.00    -0.005 C 
HETATM   17  C7  UNL     1      27.947   5.665  48.379  1.00  0.00    -0.095 C 
BRANCH  17  18
HETATM   18  C6  UNL     1      28.672   6.652  47.552  1.00  0.00     0.114 C 
BRANCH  18  19
HETATM   19  C5  UNL     1      29.806   7.209  48.339  1.00  0.00     0.129 C 
BRANCH  19  20
HETATM   20  N1  UNL     1      30.926   6.337  48.469  1.00  0.00    -0.412 N 
BRANCH  20  21
HETATM   21  C2  UNL     1      31.455   5.759  47.300  1.00  0.00     0.112 C 
HETATM   22  C1  UNL     1      31.686   4.285  47.331  1.00  0.00     0.026 C 
ENDBRANCH  20  21
BRANCH  20  23
HETATM   23  C3  UNL     1      31.816   6.628  49.526  1.00  0.00     0.112 C 
HETATM   24  C4  UNL     1      31.942   8.123  49.707  1.00  0.00     0.026 C 
ENDBRANCH  20  23
ENDBRANCH  19  20
ENDBRANCH  18  19
ENDBRANCH  17  18
ENDBRANCH   1  16
TORSDOF 7
ENDMDL
MODEL 5
REMARK VINA RESULT:      -6.5      1.922      2.656
REMARK  7 active torsions:
REMARK  status: ('A' for Active; 'I' for Inactive)
REMARK    1  A    between atoms: C2_2  and  N1_3 
REMARK    2  A    between atoms: N1_3  and  C3_4 
REMARK    3  A    between atoms: N1_3  and  C5_6 
REMARK    4  A    between atoms: C5_6  and  C6_7 
REMARK    5  A    between atoms: C6_7  and  C7_8 
REMARK    6  A    between atoms: C8_9  and  C9_10 
REMARK       I    between atoms: C9_10  and  N2_12 
REMARK    7  A    between atoms: N2_12  and  C10_13 
ROOT
HETATM    1  C9  UNL     1      26.421   3.686  50.033  1.00  0.00     0.300 C 
HETATM    2  O1  UNL     1      26.751   2.484  49.833  1.00  0.00    -0.258 OA
HETATM    3  N2  UNL     1      25.425   4.025  50.998  1.00  0.00    -0.316 N 
HETATM    4  H15 UNL     1      25.240   5.062  51.072  1.00  0.00     0.170 HD
ENDROOT
BRANCH   3   5
HETATM    5  C10 UNL     1      24.943   2.844  51.611  1.00  0.00     0.036 A 
HETATM    6  C11 UNL     1      23.759   2.217  51.264  1.00  0.00     0.032 A 
HETATM    7  C12 UNL     1      23.384   1.050  51.935  1.00  0.00     0.035 A 
HETATM    8  C13 UNL     1      24.207   0.538  52.938  1.00  0.00     0.069 A 
HETATM    9  C14 UNL     1      25.374   1.200  53.247  1.00  0.00     0.024 A 
HETATM   10  N4  UNL     1      24.108  -0.610  53.778  1.00  0.00    -0.258 NA
HETATM   11  C15 UNL     1      25.770   2.362  52.596  1.00  0.00     0.045 A 
HETATM   12  C16 UNL     1      26.000   0.420  54.314  1.00  0.00     0.078 A 
HETATM   13  N3  UNL     1      27.130   0.732  54.886  1.00  0.00    -0.298 NA
HETATM   14  C17 UNL     1      25.118  -0.704  54.578  1.00  0.00     0.149 A 
HETATM   15  H19 UNL     1      27.655   1.601  54.589  1.00  0.00     0.187 HD
ENDBRANCH   3   5
BRANCH   1  16
HETATM   16  C8  UNL     1      27.121   4.652  49.229  1.00  0.00    -0.005 C 
HETATM   17  C7  UNL     1      27.725   5.458  48.560  1.00  0.00    -0.095 C 
BRANCH  17  18
HETATM   18  C6  UNL     1      28.479   6.447  47.762  1.00  0.00     0.114 C 
BRANCH  18  19
HETATM   19  C5  UNL     1      27.926   7.805  48.019  1.00  0.00     0.129 C 
BRANCH  19  20
HETATM   20  N1  UNL     1      28.690   8.599  48.923  1.00  0.00    -0.412 N 
BRANCH  20  21
HETATM   21  C2  UNL     1      29.897   9.154  48.460  1.00  0.00     0.112 C 
HETATM   22  C1  UNL     1      31.077   9.036  49.367  1.00  0.00     0.026 C 
ENDBRANCH  20  21
BRANCH  20  23
HETATM   23  C3  UNL     1      27.953   9.324  49.884  1.00  0.00     0.112 C 
HETATM   24  C4  UNL     1      26.587   8.705  50.071  1.00  0.00     0.026 C 
ENDBRANCH  20  23
ENDBRANCH  19  20
ENDBRANCH  18  19
ENDBRANCH  17  18
ENDBRANCH   1  16
TORSDOF 7
ENDMDL
MODEL 6
REMARK VINA RESULT:      -6.5      5.044      6.124
REMARK  7 active torsions:
REMARK  status: ('A' for Active; 'I' for Inactive)
REMARK    1  A    between atoms: C2_2  and  N1_3 
REMARK    2  A    between atoms: N1_3  and  C3_4 
REMARK    3  A    between atoms: N1_3  and  C5_6 
REMARK    4  A    between atoms: C5_6  and  C6_7 
REMARK    5  A    between atoms: C6_7  and  C7_8 
REMARK    6  A    between atoms: C8_9  and  C9_10 
REMARK       I    between atoms: C9_10  and  N2_12 
REMARK    7  A    between atoms: N2_12  and  C10_13 
ROOT
HETATM    1  C9  UNL     1      23.930   1.558  52.474  1.00  0.00     0.300 C 
HETATM    2  O1  UNL     1      24.699   1.576  51.474  1.00  0.00    -0.258 OA
HETATM    3  N2  UNL     1      24.280   0.843  53.659  1.00  0.00    -0.316 N 
HETATM    4  H15 UNL     1      23.554   0.907  54.424  1.00  0.00     0.170 HD
ENDROOT
BRANCH   3   5
HETATM    5  C10 UNL     1      25.541   0.227  53.481  1.00  0.00     0.036 A 
HETATM    6  C11 UNL     1      25.719  -1.036  52.942  1.00  0.00     0.032 A 
HETATM    7  C12 UNL     1      27.014  -1.544  52.807  1.00  0.00     0.035 A 
HETATM    8  C13 UNL     1      28.101  -0.772  53.217  1.00  0.00     0.069 A 
HETATM    9  C14 UNL     1      27.871   0.477  53.748  1.00  0.00     0.024 A 
HETATM   10  N4  UNL     1      29.508  -1.000  53.202  1.00  0.00    -0.258 NA
HETATM   11  C15 UNL     1      26.594   1.005  53.893  1.00  0.00     0.045 A 
HETATM   12  C16 UNL     1      29.192   1.020  54.065  1.00  0.00     0.078 A 
HETATM   13  N3  UNL     1      29.394   2.193  54.600  1.00  0.00    -0.298 NA
HETATM   14  C17 UNL     1      30.160   0.007  53.683  1.00  0.00     0.149 A 
HETATM   15  H19 UNL     1      28.576   2.819  54.837  1.00  0.00     0.187 HD
ENDBRANCH   3   5
BRANCH   1  16
HETATM   16  C8  UNL     1      22.709   2.304  52.318  1.00  0.00    -0.005 C 
HETATM   17  C7  UNL     1      21.679   2.918  52.173  1.00  0.00    -0.095 C 
BRANCH  17  18
HETATM   18  C6  UNL     1      20.419   3.666  51.971  1.00  0.00     0.114 C 
BRANCH  18  19
HETATM   19  C5  UNL     1      19.304   2.699  51.778  1.00  0.00     0.129 C 
BRANCH  19  20
HETATM   20  N1  UNL     1      19.527   1.726  50.761  1.00  0.00    -0.412 N 
BRANCH  20  21
HETATM   21  C2  UNL     1      19.195   0.388  51.040  1.00  0.00     0.112 C 
HETATM   22  C1  UNL     1      19.249  -0.027  52.473  1.00  0.00     0.026 C 
ENDBRANCH  20  21
BRANCH  20  23
HETATM   23  C3  UNL     1      19.388   2.180  49.431  1.00  0.00     0.112 C 
HETATM   24  C4  UNL     1      20.635   1.863  48.638  1.00  0.00     0.026 C 
ENDBRANCH  20  23
ENDBRANCH  19  20
ENDBRANCH  18  19
ENDBRANCH  17  18
ENDBRANCH   1  16
TORSDOF 7
ENDMDL
MODEL 7
REMARK VINA RESULT:      -6.5      1.982      3.370
REMARK  7 active torsions:
REMARK  status: ('A' for Active; 'I' for Inactive)
REMARK    1  A    between atoms: C2_2  and  N1_3 
REMARK    2  A    between atoms: N1_3  and  C3_4 
REMARK    3  A    between atoms: N1_3  and  C5_6 
REMARK    4  A    between atoms: C5_6  and  C6_7 
REMARK    5  A    between atoms: C6_7  and  C7_8 
REMARK    6  A    between atoms: C8_9  and  C9_10 
REMARK       I    between atoms: C9_10  and  N2_12 
REMARK    7  A    between atoms: N2_12  and  C10_13 
ROOT
HETATM    1  C9  UNL     1      25.937   3.604  50.384  1.00  0.00     0.300 C 
HETATM    2  O1  UNL     1      26.894   2.964  49.866  1.00  0.00    -0.258 OA
HETATM    3  N2  UNL     1      25.368   3.199  51.628  1.00  0.00    -0.316 N 
HETATM    4  H15 UNL     1      24.577   3.817  51.955  1.00  0.00     0.170 HD
ENDROOT
BRANCH   3   5
HETATM    5  C10 UNL     1      26.041   2.046  52.100  1.00  0.00     0.036 A 
HETATM    6  C11 UNL     1      25.647   0.749  51.821  1.00  0.00     0.032 A 
HETATM    7  C12 UNL     1      26.392  -0.315  52.337  1.00  0.00     0.035 A 
HETATM    8  C13 UNL     1      27.516  -0.052  53.119  1.00  0.00     0.069 A 
HETATM    9  C14 UNL     1      27.866   1.256  53.369  1.00  0.00     0.024 A 
HETATM   10  N4  UNL     1      28.464  -0.900  53.765  1.00  0.00    -0.258 NA
HETATM   11  C15 UNL     1      27.142   2.331  52.869  1.00  0.00     0.045 A 
HETATM   12  C16 UNL     1      29.069   1.191  54.196  1.00  0.00     0.078 A 
HETATM   13  N3  UNL     1      29.705   2.236  54.652  1.00  0.00    -0.298 NA
HETATM   14  C17 UNL     1      29.364  -0.218  54.391  1.00  0.00     0.149 A 
HETATM   15  H19 UNL     1      29.354   3.209  54.432  1.00  0.00     0.187 HD
ENDBRANCH   3   5
BRANCH   1  16
HETATM   16  C8  UNL     1      25.489   4.745  49.631  1.00  0.00    -0.005 C 
HETATM   17  C7  UNL     1      25.098   5.695  48.993  1.00  0.00    -0.095 C 
BRANCH  17  18
HETATM   18  C6  UNL     1      24.610   6.840  48.196  1.00  0.00     0.114 C 
BRANCH  18  19
HETATM   19  C5  UNL     1      23.292   6.492  47.598  1.00  0.00     0.129 C 
BRANCH  19  20
HETATM   20  N1  UNL     1      22.288   6.124  48.540  1.00  0.00    -0.412 N 
BRANCH  20  21
HETATM   21  C2  UNL     1      21.776   7.125  49.387  1.00  0.00     0.112 C 
HETATM   22  C1  UNL     1      21.531   6.736  50.806  1.00  0.00     0.026 C 
ENDBRANCH  20  21
BRANCH  20  23
HETATM   23  C3  UNL     1      21.421   5.083  48.144  1.00  0.00     0.112 C 
HETATM   24  C4  UNL     1      22.189   4.020  47.393  1.00  0.00     0.026 C 
ENDBRANCH  20  23
ENDBRANCH  19  20
ENDBRANCH  18  19
ENDBRANCH  17  18
ENDBRANCH   1  16
TORSDOF 7
ENDMDL
MODEL 8
REMARK VINA RESULT:      -6.4      5.676      9.045
REMARK  7 active torsions:
REMARK  status: ('A' for Active; 'I' for Inactive)
REMARK    1  A    between atoms: C2_2  and  N1_3 
REMARK    2  A    between atoms: N1_3  and  C3_4 
REMARK    3  A    between atoms: N1_3  and  C5_6 
REMARK    4  A    between atoms: C5_6  and  C6_7 
REMARK    5  A    between atoms: C6_7  and  C7_8 
REMARK    6  A    between atoms: C8_9  and  C9_10 
REMARK       I    between atoms: C9_10  and  N2_12 
REMARK    7  A    between atoms: N2_12  and  C10_13 
ROOT
HETATM    1  C9  UNL     1      22.251   1.422  52.331  1.00  0.00     0.300 C 
HETATM    2  O1  UNL     1      21.418   2.308  52.670  1.00  0.00    -0.258 OA
HETATM    3  N2  UNL     1      21.853   0.300  51.545  1.00  0.00    -0.316 N 
HETATM    4  H15 UNL     1      22.641  -0.368  51.327  1.00  0.00     0.170 HD
ENDROOT
BRANCH   3   5
HETATM    5  C10 UNL     1      20.469   0.391  51.262  1.00  0.00     0.036 A 
HETATM    6  C11 UNL     1      19.945   1.023  50.147  1.00  0.00     0.032 A 
HETATM    7  C12 UNL     1      18.560   1.047  49.966  1.00  0.00     0.035 A 
HETATM    8  C13 UNL     1      17.732   0.434  50.907  1.00  0.00     0.069 A 
HETATM    9  C14 UNL     1      18.302  -0.180  51.999  1.00  0.00     0.024 A 
HETATM   10  N4  UNL     1      16.317   0.284  50.997  1.00  0.00    -0.258 NA
HETATM   11  C15 UNL     1      19.676  -0.218  52.203  1.00  0.00     0.045 A 
HETATM   12  C16 UNL     1      17.187  -0.721  52.775  1.00  0.00     0.078 A 
HETATM   13  N3  UNL     1      17.321  -1.373  53.897  1.00  0.00    -0.298 NA
HETATM   14  C17 UNL     1      15.974  -0.372  52.056  1.00  0.00     0.149 A 
HETATM   15  H19 UNL     1      18.282  -1.537  54.305  1.00  0.00     0.187 HD
ENDBRANCH   3   5
BRANCH   1  16
HETATM   16  C8  UNL     1      23.596   1.642  52.792  1.00  0.00    -0.005 C 
HETATM   17  C7  UNL     1      24.724   1.813  53.192  1.00  0.00    -0.095 C 
BRANCH  17  18
HETATM   18  C6  UNL     1      26.095   2.018  53.704  1.00  0.00     0.114 C 
BRANCH  18  19
HETATM   19  C5  UNL     1      26.499   0.829  54.505  1.00  0.00     0.129 C 
BRANCH  19  20
HETATM   20  N1  UNL     1      27.634   0.129  54.002  1.00  0.00    -0.412 N 
BRANCH  20  21
HETATM   21  C2  UNL     1      27.527  -0.488  52.741  1.00  0.00     0.112 C 
HETATM   22  C1  UNL     1      26.506  -1.569  52.613  1.00  0.00     0.026 C 
ENDBRANCH  20  21
BRANCH  20  23
HETATM   23  C3  UNL     1      28.894   0.636  54.386  1.00  0.00     0.112 C 
HETATM   24  C4  UNL     1      29.997  -0.091  53.653  1.00  0.00     0.026 C 
ENDBRANCH  20  23
ENDBRANCH  19  20
ENDBRANCH  18  19
ENDBRANCH  17  18
ENDBRANCH   1  16
TORSDOF 7
ENDMDL
MODEL 9
REMARK VINA RESULT:      -6.4      1.979      2.663
REMARK  7 active torsions:
REMARK  status: ('A' for Active; 'I' for Inactive)
REMARK    1  A    between atoms: C2_2  and  N1_3 
REMARK    2  A    between atoms: N1_3  and  C3_4 
REMARK    3  A    between atoms: N1_3  and  C5_6 
REMARK    4  A    between atoms: C5_6  and  C6_7 
REMARK    5  A    between atoms: C6_7  and  C7_8 
REMARK    6  A    between atoms: C8_9  and  C9_10 
REMARK       I    between atoms: C9_10  and  N2_12 
REMARK    7  A    between atoms: N2_12  and  C10_13 
ROOT
HETATM    1  C9  UNL     1      24.386   3.372  51.912  1.00  0.00     0.300 C 
HETATM    2  O1  UNL     1      25.147   2.892  51.028  1.00  0.00    -0.258 OA
HETATM    3  N2  UNL     1      24.343   2.817  53.227  1.00  0.00    -0.316 N 
HETATM    4  H15 UNL     1      23.669   3.308  53.874  1.00  0.00     0.170 HD
ENDROOT
BRANCH   3   5
HETATM    5  C10 UNL     1      25.244   1.729  53.307  1.00  0.00     0.036 A 
HETATM    6  C11 UNL     1      24.913   0.422  52.992  1.00  0.00     0.032 A 
HETATM    7  C12 UNL     1      25.887  -0.574  53.103  1.00  0.00     0.035 A 
HETATM    8  C13 UNL     1      27.172  -0.235  53.527  1.00  0.00     0.069 A 
HETATM    9  C14 UNL     1      27.451   1.079  53.830  1.00  0.00     0.024 A 
HETATM   10  N4  UNL     1      28.357  -1.002  53.727  1.00  0.00    -0.258 NA
HETATM   11  C15 UNL     1      26.501   2.087  53.729  1.00  0.00     0.045 A 
HETATM   12  C16 UNL     1      28.857   1.102  54.229  1.00  0.00     0.078 A 
HETATM   13  N3  UNL     1      29.498   2.175  54.602  1.00  0.00    -0.298 NA
HETATM   14  C17 UNL     1      29.339  -0.266  54.131  1.00  0.00     0.149 A 
HETATM   15  H19 UNL     1      29.000   3.107  54.635  1.00  0.00     0.187 HD
ENDBRANCH   3   5
BRANCH   1  16
HETATM   16  C8  UNL     1      23.594   4.497  51.490  1.00  0.00    -0.005 C 
HETATM   17  C7  UNL     1      22.944   5.451  51.132  1.00  0.00    -0.095 C 
BRANCH  17  18
HETATM   18  C6  UNL     1      22.166   6.633  50.705  1.00  0.00     0.114 C 
BRANCH  18  19
HETATM   19  C5  UNL     1      23.082   7.800  50.578  1.00  0.00     0.129 C 
BRANCH  19  20
HETATM   20  N1  UNL     1      23.579   8.027  49.261  1.00  0.00    -0.412 N 
BRANCH  20  21
HETATM   21  C2  UNL     1      24.970   7.964  49.058  1.00  0.00     0.112 C 
HETATM   22  C1  UNL     1      25.799   7.575  50.237  1.00  0.00     0.026 C 
ENDBRANCH  20  21
BRANCH  20  23
HETATM   23  C3  UNL     1      22.735   7.624  48.204  1.00  0.00     0.112 C 
HETATM   24  C4  UNL     1      23.559   7.189  47.014  1.00  0.00     0.026 C 
ENDBRANCH  20  23
ENDBRANCH  19  20
ENDBRANCH  18  19
ENDBRANCH  17  18
ENDBRANCH   1  16
TORSDOF 7
ENDMDL
