MODEL 1
REMARK VINA RESULT:      -8.3      0.000      0.000
REMARK  1 active torsions:
REMARK  status: ('A' for Active; 'I' for Inactive)
REMARK    1  A    between atoms: C11_15  and  O2_16 
ROOT
HETATM    1  C1  UNL     1      26.883   1.638  52.342  1.00  0.00     0.039 C 
HETATM    2  C2  UNL     1      25.567   2.144  52.786  1.00  0.00     0.007 C 
HETATM    3  C3  UNL     1      24.903   2.835  51.844  1.00  0.00     0.081 C 
HETATM    4  O1  UNL     1      25.739   2.821  50.742  1.00  0.00    -0.291 OA
HETATM    5  C4  UNL     1      25.707   3.700  49.673  1.00  0.00     0.183 C 
HETATM    6  N1  UNL     1      24.672   3.014  49.170  1.00  0.00    -0.217 NA
HETATM    7  C5  UNL     1      23.293   3.513  49.087  1.00  0.00     0.238 C 
HETATM    8  N2  UNL     1      22.744   4.628  49.585  1.00  0.00    -0.223 NA
HETATM    9  C6  UNL     1      23.440   5.886  49.882  1.00  0.00     0.144 C 
HETATM   10  C7  UNL     1      23.401   6.352  51.113  1.00  0.00     0.139 C 
HETATM   11  N3  UNL     1      22.633   5.373  51.794  1.00  0.00    -0.353 N 
HETATM   12  C8  UNL     1      23.544   4.780  52.787  1.00  0.00     0.166 C 
HETATM   13  C9  UNL     1      23.575   3.379  52.204  1.00  0.00    -0.006 C 
HETATM   14  C10 UNL     1      22.248   3.152  52.233  1.00  0.00     0.038 C 
HETATM   15  C11 UNL     1      21.551   4.482  52.241  1.00  0.00     0.247 C 
HETATM   16  N4  UNL     1      24.273   6.668  48.964  1.00  0.00    -0.339 N 
HETATM   17  C13 UNL     1      25.622   6.111  48.824  1.00  0.00     0.048 A 
HETATM   18  C14 UNL     1      26.392   7.107  48.273  1.00  0.00     0.032 A 
HETATM   19  C15 UNL     1      27.730   6.959  47.984  1.00  0.00     0.026 A 
HETATM   20  C16 UNL     1      28.368   5.769  48.242  1.00  0.00     0.035 A 
HETATM   21 CL1  UNL     1      30.056   5.497  47.906  1.00  0.00    -0.084 Cl
HETATM   22  C17 UNL     1      27.660   4.729  48.793  1.00  0.00     0.042 A 
HETATM   23  C18 UNL     1      26.346   4.911  49.064  1.00  0.00     0.045 A 
HETATM   24  H14 UNL     1      24.226   7.498  48.371  1.00  0.00     0.167 HD
ENDROOT
BRANCH  15  25
HETATM   25  O2  UNL     1      20.491   4.501  51.371  1.00  0.00    -0.368 OA
HETATM   26  C12 UNL     1      19.656   3.423  51.572  1.00  0.00     0.204 C 
ENDBRANCH  15  25
TORSDOF 1
ENDMDL
MODEL 2
REMARK VINA RESULT:      -8.3      3.731      6.058
REMARK  1 active torsions:
REMARK  status: ('A' for Active; 'I' for Inactive)
REMARK    1  A    between atoms: C11_15  and  O2_16 
ROOT
HETATM    1  C1  UNL     1      21.387  -0.925  53.568  1.00  0.00     0.039 C 
HETATM    2  C2  UNL     1      22.809  -1.150  53.905  1.00  0.00     0.007 C 
HETATM    3  C3  UNL     1      23.607  -0.107  53.623  1.00  0.00     0.081 C 
HETATM    4  O1  UNL     1      22.761   0.849  53.092  1.00  0.00    -0.291 OA
HETATM    5  C4  UNL     1      23.127   1.922  52.296  1.00  0.00     0.183 C 
HETATM    6  N1  UNL     1      23.526   2.573  53.397  1.00  0.00    -0.217 NA
HETATM    7  C5  UNL     1      24.923   2.878  53.733  1.00  0.00     0.238 C 
HETATM    8  N2  UNL     1      26.061   2.487  53.146  1.00  0.00    -0.223 NA
HETATM    9  C6  UNL     1      26.229   2.101  51.739  1.00  0.00     0.144 C 
HETATM   10  C7  UNL     1      26.690   0.898  51.467  1.00  0.00     0.139 C 
HETATM   11  N3  UNL     1      26.871   0.333  52.756  1.00  0.00    -0.353 N 
HETATM   12  C8  UNL     1      25.931  -0.798  52.825  1.00  0.00     0.166 C 
HETATM   13  C9  UNL     1      25.048  -0.246  53.929  1.00  0.00    -0.006 C 
HETATM   14  C10 UNL     1      26.015  -0.070  54.849  1.00  0.00     0.038 C 
HETATM   15  C11 UNL     1      27.326   0.050  54.126  1.00  0.00     0.247 C 
HETATM   16  N4  UNL     1      25.853   2.886  50.561  1.00  0.00    -0.339 N 
HETATM   17  C13 UNL     1      24.418   2.806  50.272  1.00  0.00     0.048 A 
HETATM   18  C14 UNL     1      24.263   3.241  48.978  1.00  0.00     0.032 A 
HETATM   19  C15 UNL     1      23.043   3.315  48.343  1.00  0.00     0.026 A 
HETATM   20  C16 UNL     1      21.895   2.944  49.002  1.00  0.00     0.035 A 
HETATM   21 CL1  UNL     1      20.313   3.006  48.275  1.00  0.00    -0.084 Cl
HETATM   22  C17 UNL     1      21.975   2.498  50.299  1.00  0.00     0.042 A 
HETATM   23  C18 UNL     1      23.191   2.439  50.891  1.00  0.00     0.045 A 
HETATM   24  H14 UNL     1      26.270   3.490  49.851  1.00  0.00     0.167 HD
ENDROOT
BRANCH  15  25
HETATM   25  O2  UNL     1      28.086   1.076  54.626  1.00  0.00    -0.368 OA
HETATM   26  C12 UNL     1      29.335   1.109  54.043  1.00  0.00     0.204 C 
ENDBRANCH  15  25
TORSDOF 1
ENDMDL
MODEL 3
REMARK VINA RESULT:      -8.0      3.268      5.948
REMARK  1 active torsions:
REMARK  status: ('A' for Active; 'I' for Inactive)
REMARK    1  A    between atoms: C11_15  and  O2_16 
ROOT
HETATM    1  C1  UNL     1      26.857   1.334  51.576  1.00  0.00     0.039 C 
HETATM    2  C2  UNL     1      26.513   2.478  50.705  1.00  0.00     0.007 C 
HETATM    3  C3  UNL     1      25.396   3.127  51.074  1.00  0.00     0.081 C 
HETATM    4  O1  UNL     1      24.950   2.451  52.195  1.00  0.00    -0.291 OA
HETATM    5  C4  UNL     1      23.664   2.466  52.708  1.00  0.00     0.183 C 
HETATM    6  N1  UNL     1      23.925   3.658  53.263  1.00  0.00    -0.217 NA
HETATM    7  C5  UNL     1      23.326   4.931  52.839  1.00  0.00     0.238 C 
HETATM    8  N2  UNL     1      22.547   5.214  51.787  1.00  0.00    -0.223 NA
HETATM    9  C6  UNL     1      21.659   4.282  51.082  1.00  0.00     0.144 C 
HETATM   10  C7  UNL     1      21.846   4.086  49.794  1.00  0.00     0.139 C 
HETATM   11  N3  UNL     1      22.958   4.918  49.508  1.00  0.00    -0.353 N 
HETATM   12  C8  UNL     1      24.037   4.005  49.098  1.00  0.00     0.166 C 
HETATM   13  C9  UNL     1      24.977   4.287  50.256  1.00  0.00    -0.006 C 
HETATM   14  C10 UNL     1      25.070   5.619  50.080  1.00  0.00     0.038 C 
HETATM   15  C11 UNL     1      23.853   6.072  49.325  1.00  0.00     0.247 C 
HETATM   16  N4  UNL     1      20.609   3.449  51.675  1.00  0.00    -0.339 N 
HETATM   17  C13 UNL     1      21.147   2.244  52.314  1.00  0.00     0.048 A 
HETATM   18  C14 UNL     1      20.082   1.391  52.478  1.00  0.00     0.032 A 
HETATM   19  C15 UNL     1      20.191   0.145  53.054  1.00  0.00     0.026 A 
HETATM   20  C16 UNL     1      21.410  -0.308  53.503  1.00  0.00     0.035 A 
HETATM   21 CL1  UNL     1      21.635  -1.869  54.243  1.00  0.00    -0.084 Cl
HETATM   22  C17 UNL     1      22.518   0.493  53.370  1.00  0.00     0.042 A 
HETATM   23  C18 UNL     1      22.373   1.712  52.799  1.00  0.00     0.045 A 
HETATM   24  H14 UNL     1      19.595   3.428  51.797  1.00  0.00     0.167 HD
ENDROOT
BRANCH  15  25
HETATM   25  O2  UNL     1      23.320   7.213  49.866  1.00  0.00    -0.368 OA
HETATM   26  C12 UNL     1      24.298   8.014  50.417  1.00  0.00     0.204 C 
ENDBRANCH  15  25
TORSDOF 1
ENDMDL
MODEL 4
REMARK VINA RESULT:      -7.9      4.031      6.118
REMARK  1 active torsions:
REMARK  status: ('A' for Active; 'I' for Inactive)
REMARK    1  A    between atoms: C11_15  and  O2_16 
ROOT
HETATM    1  C1  UNL     1      22.710   2.362  47.644  1.00  0.00     0.039 C 
HETATM    2  C2  UNL     1      21.278   2.313  48.007  1.00  0.00     0.007 C 
HETATM    3  C3  UNL     1      21.047   2.419  49.327  1.00  0.00     0.081 C 
HETATM    4  O1  UNL     1      22.301   2.541  49.895  1.00  0.00    -0.291 OA
HETATM    5  C4  UNL     1      22.637   2.285  51.214  1.00  0.00     0.183 C 
HETATM    6  N1  UNL     1      22.128   3.479  51.550  1.00  0.00    -0.217 NA
HETATM    7  C5  UNL     1      20.902   3.679  52.334  1.00  0.00     0.238 C 
HETATM    8  N2  UNL     1      19.985   2.796  52.748  1.00  0.00    -0.223 NA
HETATM    9  C6  UNL     1      20.200   1.366  52.998  1.00  0.00     0.144 C 
HETATM   10  C7  UNL     1      19.477   0.494  52.326  1.00  0.00     0.139 C 
HETATM   11  N3  UNL     1      18.669   1.323  51.505  1.00  0.00    -0.353 N 
HETATM   12  C8  UNL     1      19.068   1.015  50.122  1.00  0.00     0.166 C 
HETATM   13  C9  UNL     1      19.639   2.379  49.780  1.00  0.00    -0.006 C 
HETATM   14  C10 UNL     1      18.535   3.100  50.056  1.00  0.00     0.038 C 
HETATM   15  C11 UNL     1      17.693   2.308  51.014  1.00  0.00     0.247 C 
HETATM   16  N4  UNL     1      21.215   0.768  53.869  1.00  0.00    -0.339 N 
HETATM   17  C13 UNL     1      22.536   0.719  53.234  1.00  0.00     0.048 A 
HETATM   18  C14 UNL     1      23.278  -0.179  53.963  1.00  0.00     0.032 A 
HETATM   19  C15 UNL     1      24.587  -0.493  53.673  1.00  0.00     0.026 A 
HETATM   20  C16 UNL     1      25.223   0.100  52.609  1.00  0.00     0.035 A 
HETATM   21 CL1  UNL     1      26.876  -0.240  52.173  1.00  0.00    -0.084 Cl
HETATM   22  C17 UNL     1      24.542   1.008  51.835  1.00  0.00     0.042 A 
HETATM   23  C18 UNL     1      23.256   1.292  52.150  1.00  0.00     0.045 A 
HETATM   24  H14 UNL     1      21.313   0.361  54.800  1.00  0.00     0.167 HD
ENDROOT
BRANCH  15  25
HETATM   25  O2  UNL     1      17.213   3.092  52.031  1.00  0.00    -0.368 OA
HETATM   26  C12 UNL     1      16.595   4.225  51.546  1.00  0.00     0.204 C 
ENDBRANCH  15  25
TORSDOF 1
ENDMDL
MODEL 5
REMARK VINA RESULT:      -7.9      2.982      5.618
REMARK  1 active torsions:
REMARK  status: ('A' for Active; 'I' for Inactive)
REMARK    1  A    between atoms: C11_15  and  O2_16 
ROOT
HETATM    1  C1  UNL     1      26.273   4.204  49.700  1.00  0.00     0.039 C 
HETATM    2  C2  UNL     1      24.959   4.006  49.051  1.00  0.00     0.007 C 
HETATM    3  C3  UNL     1      23.991   3.606  49.893  1.00  0.00     0.081 C 
HETATM    4  O1  UNL     1      24.611   3.520  51.126  1.00  0.00    -0.291 OA
HETATM    5  C4  UNL     1      24.173   2.791  52.219  1.00  0.00     0.183 C 
HETATM    6  N1  UNL     1      23.292   3.765  52.486  1.00  0.00    -0.217 NA
HETATM    7  C5  UNL     1      21.835   3.643  52.344  1.00  0.00     0.238 C 
HETATM    8  N2  UNL     1      21.095   2.659  51.816  1.00  0.00    -0.223 NA
HETATM    9  C6  UNL     1      21.467   1.242  51.722  1.00  0.00     0.144 C 
HETATM   10  C7  UNL     1      21.504   0.679  50.532  1.00  0.00     0.139 C 
HETATM   11  N3  UNL     1      21.147   1.746  49.669  1.00  0.00    -0.353 N 
HETATM   12  C8  UNL     1      22.331   1.985  48.828  1.00  0.00     0.166 C 
HETATM   13  C9  UNL     1      22.642   3.384  49.328  1.00  0.00    -0.006 C 
HETATM   14  C10 UNL     1      21.447   3.936  49.044  1.00  0.00     0.038 C 
HETATM   15  C11 UNL     1      20.430   2.833  48.983  1.00  0.00     0.247 C 
HETATM   16  N4  UNL     1      21.901   0.372  52.818  1.00  0.00    -0.339 N 
HETATM   17  C13 UNL     1      23.309   0.580  53.171  1.00  0.00     0.048 A 
HETATM   18  C14 UNL     1      23.684  -0.518  53.907  1.00  0.00     0.032 A 
HETATM   19  C15 UNL     1      24.948  -0.686  54.427  1.00  0.00     0.026 A 
HETATM   20  C16 UNL     1      25.914   0.270  54.224  1.00  0.00     0.035 A 
HETATM   21 CL1  UNL     1      27.536   0.137  54.847  1.00  0.00    -0.084 Cl
HETATM   22  C17 UNL     1      25.609   1.395  53.497  1.00  0.00     0.042 A 
HETATM   23  C18 UNL     1      24.357   1.526  53.001  1.00  0.00     0.045 A 
HETATM   24  H14 UNL     1      21.538  -0.354  53.437  1.00  0.00     0.167 HD
ENDROOT
BRANCH  15  25
HETATM   25  O2  UNL     1      19.278   3.172  49.644  1.00  0.00    -0.368 OA
HETATM   26  C12 UNL     1      18.278   2.249  49.422  1.00  0.00     0.204 C 
ENDBRANCH  15  25
TORSDOF 1
ENDMDL
MODEL 6
REMARK VINA RESULT:      -7.7      5.306      9.036
REMARK  1 active torsions:
REMARK  status: ('A' for Active; 'I' for Inactive)
REMARK    1  A    between atoms: C11_15  and  O2_16 
ROOT
HETATM    1  C1  UNL     1      31.846   2.686  46.707  1.00  0.00     0.039 C 
HETATM    2  C2  UNL     1      32.510   3.877  46.137  1.00  0.00     0.007 C 
HETATM    3  C3  UNL     1      32.183   5.028  46.747  1.00  0.00     0.081 C 
HETATM    4  O1  UNL     1      31.295   4.659  47.741  1.00  0.00    -0.291 OA
HETATM    5  C4  UNL     1      30.380   5.483  48.376  1.00  0.00     0.183 C 
HETATM    6  N1  UNL     1      31.375   5.958  49.139  1.00  0.00    -0.217 NA
HETATM    7  C5  UNL     1      31.919   7.320  49.057  1.00  0.00     0.238 C 
HETATM    8  N2  UNL     1      31.679   8.298  48.174  1.00  0.00    -0.223 NA
HETATM    9  C6  UNL     1      30.454   8.479  47.385  1.00  0.00     0.144 C 
HETATM   10  C7  UNL     1      30.549   8.497  46.072  1.00  0.00     0.139 C 
HETATM   11  N3  UNL     1      31.937   8.306  45.855  1.00  0.00    -0.353 N 
HETATM   12  C8  UNL     1      32.051   7.017  45.152  1.00  0.00     0.166 C 
HETATM   13  C9  UNL     1      32.803   6.272  46.240  1.00  0.00    -0.006 C 
HETATM   14  C10 UNL     1      33.844   7.121  46.339  1.00  0.00     0.038 C 
HETATM   15  C11 UNL     1      33.400   8.461  45.827  1.00  0.00     0.247 C 
HETATM   16  N4  UNL     1      29.083   8.557  47.895  1.00  0.00    -0.339 N 
HETATM   17  C13 UNL     1      28.527   7.237  48.206  1.00  0.00     0.048 A 
HETATM   18  C14 UNL     1      27.166   7.406  48.296  1.00  0.00     0.032 A 
HETATM   19  C15 UNL     1      26.292   6.382  48.583  1.00  0.00     0.026 A 
HETATM   20  C16 UNL     1      26.763   5.108  48.798  1.00  0.00     0.035 A 
HETATM   21 CL1  UNL     1      25.727   3.756  49.166  1.00  0.00    -0.084 Cl
HETATM   22  C17 UNL     1      28.113   4.865  48.723  1.00  0.00     0.042 A 
HETATM   23  C18 UNL     1      28.942   5.897  48.439  1.00  0.00     0.045 A 
HETATM   24  H14 UNL     1      28.362   9.247  48.113  1.00  0.00     0.167 HD
ENDROOT
BRANCH  15  25
HETATM   25  O2  UNL     1      33.815   9.477  46.648  1.00  0.00    -0.368 OA
HETATM   26  C12 UNL     1      33.517  10.712  46.112  1.00  0.00     0.204 C 
ENDBRANCH  15  25
TORSDOF 1
ENDMDL
MODEL 7
REMARK VINA RESULT:      -7.5      2.543      3.411
REMARK  1 active torsions:
REMARK  status: ('A' for Active; 'I' for Inactive)
REMARK    1  A    between atoms: C11_15  and  O2_16 
ROOT
HETATM    1  C1  UNL     1      26.189   1.447  51.879  1.00  0.00     0.039 C 
HETATM    2  C2  UNL     1      24.860   0.887  52.205  1.00  0.00     0.007 C 
HETATM    3  C3  UNL     1      23.845   1.474  51.548  1.00  0.00     0.081 C 
HETATM    4  O1  UNL     1      24.446   2.441  50.764  1.00  0.00    -0.291 OA
HETATM    5  C4  UNL     1      23.833   3.555  50.216  1.00  0.00     0.183 C 
HETATM    6  N1  UNL     1      23.330   2.775  49.251  1.00  0.00    -0.217 NA
HETATM    7  C5  UNL     1      21.909   2.433  49.102  1.00  0.00     0.238 C 
HETATM    8  N2  UNL     1      20.870   2.676  49.912  1.00  0.00    -0.223 NA
HETATM    9  C6  UNL     1      20.755   3.776  50.877  1.00  0.00     0.144 C 
HETATM   10  C7  UNL     1      20.563   3.481  52.146  1.00  0.00     0.139 C 
HETATM   11  N3  UNL     1      20.543   2.063  52.140  1.00  0.00    -0.353 N 
HETATM   12  C8  UNL     1      21.710   1.650  52.937  1.00  0.00     0.166 C 
HETATM   13  C9  UNL     1      22.478   0.974  51.816  1.00  0.00    -0.006 C 
HETATM   14  C10 UNL     1      21.519   0.100  51.455  1.00  0.00     0.038 C 
HETATM   15  C11 UNL     1      20.196   0.654  51.900  1.00  0.00     0.247 C 
HETATM   16  N4  UNL     1      20.919   5.206  50.605  1.00  0.00    -0.339 N 
HETATM   17  C13 UNL     1      22.329   5.600  50.527  1.00  0.00     0.048 A 
HETATM   18  C14 UNL     1      22.352   6.968  50.656  1.00  0.00     0.032 A 
HETATM   19  C15 UNL     1      23.509   7.714  50.628  1.00  0.00     0.026 A 
HETATM   20  C16 UNL     1      24.727   7.098  50.463  1.00  0.00     0.035 A 
HETATM   21 CL1  UNL     1      26.238   7.965  50.415  1.00  0.00    -0.084 Cl
HETATM   22  C17 UNL     1      24.780   5.731  50.328  1.00  0.00     0.042 A 
HETATM   23  C18 UNL     1      23.622   5.032  50.361  1.00  0.00     0.045 A 
HETATM   24  H14 UNL     1      20.362   6.047  50.447  1.00  0.00     0.167 HD
ENDROOT
BRANCH  15  25
HETATM   25  O2  UNL     1      19.243   0.529  50.923  1.00  0.00    -0.368 OA
HETATM   26  C12 UNL     1      17.971   0.540  51.455  1.00  0.00     0.204 C 
ENDBRANCH  15  25
TORSDOF 1
ENDMDL
MODEL 8
REMARK VINA RESULT:      -7.4      4.645      7.512
REMARK  1 active torsions:
REMARK  status: ('A' for Active; 'I' for Inactive)
REMARK    1  A    between atoms: C11_15  and  O2_16 
ROOT
HETATM    1  C1  UNL     1      23.698   0.235  53.277  1.00  0.00     0.039 C 
HETATM    2  C2  UNL     1      23.849   1.125  52.106  1.00  0.00     0.007 C 
HETATM    3  C3  UNL     1      22.715   1.751  51.748  1.00  0.00     0.081 C 
HETATM    4  O1  UNL     1      21.769   1.310  52.655  1.00  0.00    -0.291 OA
HETATM    5  C4  UNL     1      20.394   1.338  52.490  1.00  0.00     0.183 C 
HETATM    6  N1  UNL     1      20.407   2.640  52.806  1.00  0.00    -0.217 NA
HETATM    7  C5  UNL     1      20.127   3.735  51.867  1.00  0.00     0.238 C 
HETATM    8  N2  UNL     1      19.947   3.715  50.540  1.00  0.00    -0.223 NA
HETATM    9  C6  UNL     1      19.461   2.582  49.743  1.00  0.00     0.144 C 
HETATM   10  C7  UNL     1      20.226   2.118  48.777  1.00  0.00     0.139 C 
HETATM   11  N3  UNL     1      21.372   2.950  48.857  1.00  0.00    -0.353 N 
HETATM   12  C8  UNL     1      22.482   2.056  49.224  1.00  0.00     0.166 C 
HETATM   13  C9  UNL     1      22.775   2.662  50.584  1.00  0.00    -0.006 C 
HETATM   14  C10 UNL     1      22.989   3.924  50.165  1.00  0.00     0.038 C 
HETATM   15  C11 UNL     1      22.289   4.100  48.848  1.00  0.00     0.247 C 
HETATM   16  N4  UNL     1      18.225   1.824  49.954  1.00  0.00    -0.339 N 
HETATM   17  C13 UNL     1      18.353   0.838  51.032  1.00  0.00     0.048 A 
HETATM   18  C14 UNL     1      17.306  -0.038  50.875  1.00  0.00     0.032 A 
HETATM   19  C15 UNL     1      17.084  -1.112  51.709  1.00  0.00     0.026 A 
HETATM   20  C16 UNL     1      17.929  -1.356  52.765  1.00  0.00     0.035 A 
HETATM   21 CL1  UNL     1      17.721  -2.689  53.867  1.00  0.00    -0.084 Cl
HETATM   22  C17 UNL     1      18.998  -0.520  52.982  1.00  0.00     0.042 A 
HETATM   23  C18 UNL     1      19.185   0.524  52.142  1.00  0.00     0.045 A 
HETATM   24  H14 UNL     1      17.274   1.751  49.590  1.00  0.00     0.167 HD
ENDROOT
BRANCH  15  25
HETATM   25  O2  UNL     1      21.608   5.288  48.795  1.00  0.00    -0.368 OA
HETATM   26  C12 UNL     1      21.178   5.565  47.514  1.00  0.00     0.204 C 
ENDBRANCH  15  25
TORSDOF 1
ENDMDL
MODEL 9
REMARK VINA RESULT:      -7.2      6.525      9.034
REMARK  1 active torsions:
REMARK  status: ('A' for Active; 'I' for Inactive)
REMARK    1  A    between atoms: C11_15  and  O2_16 
ROOT
HETATM    1  C1  UNL     1      34.066  10.180  45.372  1.00  0.00     0.039 C 
HETATM    2  C2  UNL     1      32.720  10.564  45.849  1.00  0.00     0.007 C 
HETATM    3  C3  UNL     1      32.210   9.728  46.770  1.00  0.00     0.081 C 
HETATM    4  O1  UNL     1      33.183   8.761  46.944  1.00  0.00    -0.291 OA
HETATM    5  C4  UNL     1      32.998   7.492  47.466  1.00  0.00     0.183 C 
HETATM    6  N1  UNL     1      32.998   8.024  48.696  1.00  0.00    -0.217 NA
HETATM    7  C5  UNL     1      31.824   8.107  49.576  1.00  0.00     0.238 C 
HETATM    8  N2  UNL     1      30.538   7.828  49.332  1.00  0.00    -0.223 NA
HETATM    9  C6  UNL     1      30.024   6.885  48.331  1.00  0.00     0.144 C 
HETATM   10  C7  UNL     1      29.204   7.337  47.405  1.00  0.00     0.139 C 
HETATM   11  N3  UNL     1      29.101   8.715  47.722  1.00  0.00    -0.353 N 
HETATM   12  C8  UNL     1      29.682   9.427  46.572  1.00  0.00     0.166 C 
HETATM   13  C9  UNL     1      30.865  10.037  47.303  1.00  0.00    -0.006 C 
HETATM   14  C10 UNL     1      30.163  10.680  48.256  1.00  0.00     0.038 C 
HETATM   15  C11 UNL     1      28.833   9.997  48.392  1.00  0.00     0.247 C 
HETATM   16  N4  UNL     1      30.392   5.475  48.179  1.00  0.00    -0.339 N 
HETATM   17  C13 UNL     1      31.672   5.305  47.487  1.00  0.00     0.048 A 
HETATM   18  C14 UNL     1      31.713   3.994  47.075  1.00  0.00     0.032 A 
HETATM   19  C15 UNL     1      32.773   3.448  46.386  1.00  0.00     0.026 A 
HETATM   20  C16 UNL     1      33.868   4.219  46.075  1.00  0.00     0.035 A 
HETATM   21 CL1  UNL     1      35.251   3.608  45.208  1.00  0.00    -0.084 Cl
HETATM   22  C17 UNL     1      33.896   5.539  46.455  1.00  0.00     0.042 A 
HETATM   23  C18 UNL     1      32.836   6.041  47.130  1.00  0.00     0.045 A 
HETATM   24  H14 UNL     1      30.043   4.542  48.402  1.00  0.00     0.167 HD
ENDROOT
BRANCH  15  25
HETATM   25  O2  UNL     1      28.492   9.817  49.708  1.00  0.00    -0.368 OA
HETATM   26  C12 UNL     1      27.214   9.313  49.832  1.00  0.00     0.204 C 
ENDBRANCH  15  25
TORSDOF 1
ENDMDL
