MODEL 1
REMARK VINA RESULT:      -8.3      0.000      0.000
REMARK  8 active torsions:
REMARK  status: ('A' for Active; 'I' for Inactive)
REMARK    1  A    between atoms: C2_2  and  N1_3 
REMARK    2  A    between atoms: N1_3  and  C3_4 
REMARK    3  A    between atoms: N1_3  and  C5_6 
REMARK    4  A    between atoms: C5_6  and  C6_7 
REMARK    5  A    between atoms: C7_8  and  C8_9 
REMARK       I    between atoms: C8_9  and  N2_11 
REMARK    6  A    between atoms: N2_11  and  C9_12 
REMARK    7  A    between atoms: C12_15  and  N3_16 
REMARK    8  A    between atoms: N3_16  and  C13_17 
ROOT
HETATM    1  C9  UNL     1      26.269   3.971  49.702  1.00  0.00     0.131 A 
HETATM    2  C10 UNL     1      26.190   3.273  50.874  1.00  0.00     0.068 A 
HETATM    3  C11 UNL     1      25.014   2.795  51.409  1.00  0.00     0.044 A 
HETATM    4  C12 UNL     1      24.941   2.091  52.589  1.00  0.00     0.142 A 
HETATM    5  N4  UNL     1      23.704   1.720  52.928  1.00  0.00    -0.224 NA
HETATM    6  C19 UNL     1      22.606   1.988  52.213  1.00  0.00     0.236 A 
HETATM    7  N5  UNL     1      22.682   2.684  51.045  1.00  0.00    -0.240 NA
HETATM    8  C20 UNL     1      23.911   3.088  50.649  1.00  0.00     0.089 A 
HETATM    9  C21 UNL     1      23.928   3.787  49.463  1.00  0.00     0.151 A 
HETATM   10  N6  UNL     1      25.126   4.214  49.018  1.00  0.00    -0.241 NA
ENDROOT
BRANCH   1  11
HETATM   11  N2  UNL     1      27.464   4.477  49.120  1.00  0.00    -0.301 N 
HETATM   12  C8  UNL     1      28.004   5.618  48.465  1.00  0.00     0.302 C 
HETATM   13  O1  UNL     1      27.279   6.615  48.261  1.00  0.00    -0.258 OA
HETATM   14  H13 UNL     1      28.070   3.622  49.300  1.00  0.00     0.171 HD
BRANCH  12  15
HETATM   15  C7  UNL     1      29.385   5.533  48.077  1.00  0.00    -0.004 C 
HETATM   16  C6  UNL     1      30.557   5.481  47.740  1.00  0.00    -0.066 C 
BRANCH  16  17
HETATM   17  C5  UNL     1      31.960   5.435  47.316  1.00  0.00     0.366 C 
BRANCH  17  18
HETATM   18  N1  UNL     1      32.450   4.122  47.562  1.00  0.00     0.098 N 
BRANCH  18  19
HETATM   19  C2  UNL     1      31.942   3.144  46.621  1.00  0.00     0.269 C 
HETATM   20  C1  UNL     1      32.621   1.815  46.936  1.00  0.00     0.037 C 
ENDBRANCH  18  19
BRANCH  18  21
HETATM   21  C3  UNL     1      33.864   4.007  47.770  1.00  0.00     0.269 C 
HETATM   22  C4  UNL     1      34.562   5.282  48.124  1.00  0.00     0.037 C 
ENDBRANCH  18  21
ENDBRANCH  17  18
ENDBRANCH  16  17
ENDBRANCH  12  15
ENDBRANCH   1  11
BRANCH   4  23
HETATM   23  N3  UNL     1      26.118   1.832  53.329  1.00  0.00    -0.340 N 
HETATM   24  H15 UNL     1      26.506   2.504  54.004  1.00  0.00     0.167 HD
BRANCH  23  25
HETATM   25  C13 UNL     1      26.921   0.667  53.270  1.00  0.00     0.033 A 
HETATM   26  C14 UNL     1      26.465  -0.533  52.775  1.00  0.00     0.032 A 
HETATM   27  C15 UNL     1      27.246  -1.666  52.731  1.00  0.00     0.044 A 
HETATM   28  C16 UNL     1      28.532  -1.672  53.177  1.00  0.00     0.116 A 
HETATM   29  F1  UNL     1      29.367  -2.738  53.170  1.00  0.00    -0.206 F 
HETATM   30  C17 UNL     1      29.039  -0.492  53.683  1.00  0.00     0.044 A 
HETATM   31  C18 UNL     1      28.224   0.612  53.709  1.00  0.00     0.032 A 
ENDBRANCH  23  25
ENDBRANCH   4  23
TORSDOF 8
ENDMDL
MODEL 2
REMARK VINA RESULT:      -8.1      1.425      1.960
REMARK  8 active torsions:
REMARK  status: ('A' for Active; 'I' for Inactive)
REMARK    1  A    between atoms: C2_2  and  N1_3 
REMARK    2  A    between atoms: N1_3  and  C3_4 
REMARK    3  A    between atoms: N1_3  and  C5_6 
REMARK    4  A    between atoms: C5_6  and  C6_7 
REMARK    5  A    between atoms: C7_8  and  C8_9 
REMARK       I    between atoms: C8_9  and  N2_11 
REMARK    6  A    between atoms: N2_11  and  C9_12 
REMARK    7  A    between atoms: C12_15  and  N3_16 
REMARK    8  A    between atoms: N3_16  and  C13_17 
ROOT
HETATM    1  C9  UNL     1      25.312   3.237  50.046  1.00  0.00     0.131 A 
HETATM    2  C10 UNL     1      25.351   2.570  51.237  1.00  0.00     0.068 A 
HETATM    3  C11 UNL     1      24.300   1.843  51.750  1.00  0.00     0.044 A 
HETATM    4  C12 UNL     1      24.346   1.172  52.950  1.00  0.00     0.142 A 
HETATM    5  N4  UNL     1      23.218   0.529  53.261  1.00  0.00    -0.224 NA
HETATM    6  C19 UNL     1      22.118   0.513  52.502  1.00  0.00     0.236 A 
HETATM    7  N5  UNL     1      22.075   1.178  51.314  1.00  0.00    -0.240 NA
HETATM    8  C20 UNL     1      23.189   1.850  50.945  1.00  0.00     0.089 A 
HETATM    9  C21 UNL     1      23.090   2.502  49.736  1.00  0.00     0.151 A 
HETATM   10  N6  UNL     1      24.172   3.188  49.317  1.00  0.00    -0.241 NA
ENDROOT
BRANCH   1  11
HETATM   11  N2  UNL     1      26.377   3.995  49.486  1.00  0.00    -0.301 N 
HETATM   12  C8  UNL     1      26.677   5.251  48.892  1.00  0.00     0.302 C 
HETATM   13  O1  UNL     1      25.770   6.098  48.745  1.00  0.00    -0.258 OA
HETATM   14  H13 UNL     1      27.140   3.266  49.618  1.00  0.00     0.171 HD
BRANCH  12  15
HETATM   15  C7  UNL     1      28.042   5.457  48.494  1.00  0.00    -0.004 C 
HETATM   16  C6  UNL     1      29.207   5.636  48.177  1.00  0.00    -0.066 C 
BRANCH  16  17
HETATM   17  C5  UNL     1      30.610   5.867  47.814  1.00  0.00     0.366 C 
BRANCH  17  18
HETATM   18  N1  UNL     1      31.288   6.347  48.969  1.00  0.00     0.098 N 
BRANCH  18  19
HETATM   19  C2  UNL     1      32.623   5.800  49.108  1.00  0.00     0.269 C 
HETATM   20  C1  UNL     1      32.935   5.031  47.827  1.00  0.00     0.037 C 
ENDBRANCH  18  19
BRANCH  18  21
HETATM   21  C3  UNL     1      31.248   7.765  49.178  1.00  0.00     0.269 C 
HETATM   22  C4  UNL     1      31.601   8.595  47.985  1.00  0.00     0.037 C 
ENDBRANCH  18  21
ENDBRANCH  17  18
ENDBRANCH  16  17
ENDBRANCH  12  15
ENDBRANCH   1  11
BRANCH   4  23
HETATM   23  N3  UNL     1      25.520   1.216  53.736  1.00  0.00    -0.340 N 
HETATM   24  H15 UNL     1      25.660   1.907  54.485  1.00  0.00     0.167 HD
BRANCH  23  25
HETATM   25  C13 UNL     1      26.645   0.361  53.634  1.00  0.00     0.033 A 
HETATM   26  C14 UNL     1      26.618  -0.835  52.955  1.00  0.00     0.032 A 
HETATM   27  C15 UNL     1      27.712  -1.667  52.868  1.00  0.00     0.044 A 
HETATM   28  C16 UNL     1      28.900  -1.359  53.454  1.00  0.00     0.116 A 
HETATM   29  F1  UNL     1      30.022  -2.118  53.419  1.00  0.00    -0.206 F 
HETATM   30  C17 UNL     1      28.981  -0.168  54.149  1.00  0.00     0.044 A 
HETATM   31  C18 UNL     1      27.866   0.630  54.210  1.00  0.00     0.032 A 
ENDBRANCH  23  25
ENDBRANCH   4  23
TORSDOF 8
ENDMDL
MODEL 3
REMARK VINA RESULT:      -8.1      0.722      1.217
REMARK  8 active torsions:
REMARK  status: ('A' for Active; 'I' for Inactive)
REMARK    1  A    between atoms: C2_2  and  N1_3 
REMARK    2  A    between atoms: N1_3  and  C3_4 
REMARK    3  A    between atoms: N1_3  and  C5_6 
REMARK    4  A    between atoms: C5_6  and  C6_7 
REMARK    5  A    between atoms: C7_8  and  C8_9 
REMARK       I    between atoms: C8_9  and  N2_11 
REMARK    6  A    between atoms: N2_11  and  C9_12 
REMARK    7  A    between atoms: C12_15  and  N3_16 
REMARK    8  A    between atoms: N3_16  and  C13_17 
ROOT
HETATM    1  C9  UNL     1      26.004   3.759  49.818  1.00  0.00     0.131 A 
HETATM    2  C10 UNL     1      26.000   3.078  51.002  1.00  0.00     0.068 A 
HETATM    3  C11 UNL     1      24.882   2.491  51.551  1.00  0.00     0.044 A 
HETATM    4  C12 UNL     1      24.885   1.804  52.743  1.00  0.00     0.142 A 
HETATM    5  N4  UNL     1      23.694   1.313  53.094  1.00  0.00    -0.224 NA
HETATM    6  C19 UNL     1      22.573   1.453  52.379  1.00  0.00     0.236 A 
HETATM    7  N5  UNL     1      22.573   2.132  51.199  1.00  0.00    -0.240 NA
HETATM    8  C20 UNL     1      23.752   2.655  50.790  1.00  0.00     0.089 A 
HETATM    9  C21 UNL     1      23.695   3.330  49.592  1.00  0.00     0.151 A 
HETATM   10  N6  UNL     1      24.841   3.871  49.135  1.00  0.00    -0.241 NA
ENDROOT
BRANCH   1  11
HETATM   11  N2  UNL     1      27.139   4.376  49.222  1.00  0.00    -0.301 N 
HETATM   12  C8  UNL     1      27.601   5.609  48.686  1.00  0.00     0.302 C 
HETATM   13  O1  UNL     1      26.840   6.600  48.669  1.00  0.00    -0.258 OA
HETATM   14  H13 UNL     1      27.777   3.525  49.243  1.00  0.00     0.171 HD
BRANCH  12  15
HETATM   15  C7  UNL     1      28.950   5.621  48.191  1.00  0.00    -0.004 C 
HETATM   16  C6  UNL     1      30.100   5.648  47.784  1.00  0.00    -0.066 C 
BRANCH  16  17
HETATM   17  C5  UNL     1      31.485   5.702  47.302  1.00  0.00     0.366 C 
BRANCH  17  18
HETATM   18  N1  UNL     1      32.304   5.018  48.242  1.00  0.00     0.098 N 
BRANCH  18  19
HETATM   19  C2  UNL     1      32.834   3.771  47.727  1.00  0.00     0.269 C 
HETATM   20  C1  UNL     1      32.876   3.889  46.206  1.00  0.00     0.037 C 
ENDBRANCH  18  19
BRANCH  18  21
HETATM   21  C3  UNL     1      33.300   5.809  48.904  1.00  0.00     0.269 C 
HETATM   22  C4  UNL     1      33.684   7.070  48.196  1.00  0.00     0.037 C 
ENDBRANCH  18  21
ENDBRANCH  17  18
ENDBRANCH  16  17
ENDBRANCH  12  15
ENDBRANCH   1  11
BRANCH   4  23
HETATM   23  N3  UNL     1      26.084   1.681  53.482  1.00  0.00    -0.340 N 
HETATM   24  H15 UNL     1      26.409   2.409  54.133  1.00  0.00     0.167 HD
BRANCH  23  25
HETATM   25  C13 UNL     1      26.993   0.596  53.455  1.00  0.00     0.033 A 
HETATM   26  C14 UNL     1      28.268   0.674  53.967  1.00  0.00     0.032 A 
HETATM   27  C15 UNL     1      29.152  -0.381  53.929  1.00  0.00     0.044 A 
HETATM   28  C16 UNL     1      28.820  -1.579  53.376  1.00  0.00     0.116 A 
HETATM   29  F1  UNL     1      29.626  -2.665  53.296  1.00  0.00    -0.206 F 
HETATM   30  C17 UNL     1      27.552  -1.710  52.848  1.00  0.00     0.044 A 
HETATM   31  C18 UNL     1      26.703  -0.633  52.907  1.00  0.00     0.032 A 
ENDBRANCH  23  25
ENDBRANCH   4  23
TORSDOF 8
ENDMDL
MODEL 4
REMARK VINA RESULT:      -7.9      3.073      4.049
REMARK  8 active torsions:
REMARK  status: ('A' for Active; 'I' for Inactive)
REMARK    1  A    between atoms: C2_2  and  N1_3 
REMARK    2  A    between atoms: N1_3  and  C3_4 
REMARK    3  A    between atoms: N1_3  and  C5_6 
REMARK    4  A    between atoms: C5_6  and  C6_7 
REMARK    5  A    between atoms: C7_8  and  C8_9 
REMARK       I    between atoms: C8_9  and  N2_11 
REMARK    6  A    between atoms: N2_11  and  C9_12 
REMARK    7  A    between atoms: C12_15  and  N3_16 
REMARK    8  A    between atoms: N3_16  and  C13_17 
ROOT
HETATM    1  C9  UNL     1      24.178   2.786  50.487  1.00  0.00     0.131 A 
HETATM    2  C10 UNL     1      24.375   2.085  51.643  1.00  0.00     0.068 A 
HETATM    3  C11 UNL     1      23.477   1.178  52.158  1.00  0.00     0.044 A 
HETATM    4  C12 UNL     1      23.681   0.475  53.323  1.00  0.00     0.142 A 
HETATM    5  N4  UNL     1      22.685  -0.355  53.643  1.00  0.00    -0.224 NA
HETATM    6  C19 UNL     1      21.570  -0.517  52.924  1.00  0.00     0.236 A 
HETATM    7  N5  UNL     1      21.370   0.180  51.771  1.00  0.00    -0.240 NA
HETATM    8  C20 UNL     1      22.346   1.038  51.394  1.00  0.00     0.089 A 
HETATM    9  C21 UNL     1      22.092   1.714  50.223  1.00  0.00     0.151 A 
HETATM   10  N6  UNL     1      23.030   2.582  49.797  1.00  0.00    -0.241 NA
ENDROOT
BRANCH   1  11
HETATM   11  N2  UNL     1      25.083   3.728  49.925  1.00  0.00    -0.301 N 
HETATM   12  C8  UNL     1      26.408   3.861  49.426  1.00  0.00     0.302 C 
HETATM   13  O1  UNL     1      27.167   2.868  49.416  1.00  0.00    -0.258 OA
HETATM   14  H13 UNL     1      24.427   4.565  49.938  1.00  0.00     0.171 HD
BRANCH  12  15
HETATM   15  C7  UNL     1      26.783   5.166  48.957  1.00  0.00    -0.004 C 
HETATM   16  C6  UNL     1      27.081   6.282  48.563  1.00  0.00    -0.066 C 
BRANCH  16  17
HETATM   17  C5  UNL     1      27.416   7.626  48.082  1.00  0.00     0.366 C 
BRANCH  17  18
HETATM   18  N1  UNL     1      28.279   8.232  49.037  1.00  0.00     0.098 N 
BRANCH  18  19
HETATM   19  C2  UNL     1      29.618   8.452  48.529  1.00  0.00     0.269 C 
HETATM   20  C1  UNL     1      30.226   9.598  49.332  1.00  0.00     0.037 C 
ENDBRANCH  18  19
BRANCH  18  21
HETATM   21  C3  UNL     1      27.753   9.375  49.724  1.00  0.00     0.269 C 
HETATM   22  C4  UNL     1      26.423   9.855  49.236  1.00  0.00     0.037 C 
ENDBRANCH  18  21
ENDBRANCH  17  18
ENDBRANCH  16  17
ENDBRANCH  12  15
ENDBRANCH   1  11
BRANCH   4  23
HETATM   23  N3  UNL     1      24.866   0.675  54.067  1.00  0.00    -0.340 N 
HETATM   24  H15 UNL     1      24.913   1.318  54.870  1.00  0.00     0.167 HD
BRANCH  23  25
HETATM   25  C13 UNL     1      26.123   0.061  53.849  1.00  0.00     0.033 A 
HETATM   26  C14 UNL     1      27.271   0.451  54.500  1.00  0.00     0.032 A 
HETATM   27  C15 UNL     1      28.493  -0.142  54.276  1.00  0.00     0.044 A 
HETATM   28  C16 UNL     1      28.647  -1.162  53.388  1.00  0.00     0.116 A 
HETATM   29  F1  UNL     1      29.808  -1.800  53.108  1.00  0.00    -0.206 F 
HETATM   30  C17 UNL     1      27.525  -1.592  52.708  1.00  0.00     0.044 A 
HETATM   31  C18 UNL     1      26.328  -0.972  52.962  1.00  0.00     0.032 A 
ENDBRANCH  23  25
ENDBRANCH   4  23
TORSDOF 8
ENDMDL
MODEL 5
REMARK VINA RESULT:      -7.9      3.310      5.466
REMARK  8 active torsions:
REMARK  status: ('A' for Active; 'I' for Inactive)
REMARK    1  A    between atoms: C2_2  and  N1_3 
REMARK    2  A    between atoms: N1_3  and  C3_4 
REMARK    3  A    between atoms: N1_3  and  C5_6 
REMARK    4  A    between atoms: C5_6  and  C6_7 
REMARK    5  A    between atoms: C7_8  and  C8_9 
REMARK       I    between atoms: C8_9  and  N2_11 
REMARK    6  A    between atoms: N2_11  and  C9_12 
REMARK    7  A    between atoms: C12_15  and  N3_16 
REMARK    8  A    between atoms: N3_16  and  C13_17 
ROOT
HETATM    1  C9  UNL     1      26.733   2.493  51.632  1.00  0.00     0.131 A 
HETATM    2  C10 UNL     1      25.525   1.886  51.828  1.00  0.00     0.068 A 
HETATM    3  C11 UNL     1      25.280   0.957  52.815  1.00  0.00     0.044 A 
HETATM    4  C12 UNL     1      24.061   0.350  53.009  1.00  0.00     0.142 A 
HETATM    5  N4  UNL     1      24.038  -0.519  54.023  1.00  0.00    -0.224 NA
HETATM    6  C19 UNL     1      25.084  -0.803  54.805  1.00  0.00     0.236 A 
HETATM    7  N5  UNL     1      26.290  -0.199  54.611  1.00  0.00    -0.240 NA
HETATM    8  C20 UNL     1      26.375   0.692  53.597  1.00  0.00     0.089 A 
HETATM    9  C21 UNL     1      27.615   1.271  53.448  1.00  0.00     0.151 A 
HETATM   10  N6  UNL     1      27.759   2.169  52.453  1.00  0.00    -0.241 NA
ENDROOT
BRANCH   1  11
HETATM   11  N2  UNL     1      27.021   3.455  50.625  1.00  0.00    -0.301 N 
HETATM   12  C8  UNL     1      26.448   4.131  49.512  1.00  0.00     0.302 C 
HETATM   13  O1  UNL     1      25.266   3.890  49.185  1.00  0.00    -0.258 OA
HETATM   14  H13 UNL     1      28.025   3.652  50.915  1.00  0.00     0.171 HD
BRANCH  12  15
HETATM   15  C7  UNL     1      27.298   5.067  48.830  1.00  0.00    -0.004 C 
HETATM   16  C6  UNL     1      28.016   5.877  48.266  1.00  0.00    -0.066 C 
BRANCH  16  17
HETATM   17  C5  UNL     1      28.867   6.868  47.599  1.00  0.00     0.366 C 
BRANCH  17  18
HETATM   18  N1  UNL     1      29.725   7.440  48.579  1.00  0.00     0.098 N 
BRANCH  18  19
HETATM   19  C2  UNL     1      31.128   7.190  48.315  1.00  0.00     0.269 C 
HETATM   20  C1  UNL     1      31.617   6.193  49.361  1.00  0.00     0.037 C 
ENDBRANCH  18  19
BRANCH  18  21
HETATM   21  C3  UNL     1      29.462   8.807  48.925  1.00  0.00     0.269 C 
HETATM   22  C4  UNL     1      30.643   9.722  48.845  1.00  0.00     0.037 C 
ENDBRANCH  18  21
ENDBRANCH  17  18
ENDBRANCH  16  17
ENDBRANCH  12  15
ENDBRANCH   1  11
BRANCH   4  23
HETATM   23  N3  UNL     1      22.975   0.663  52.159  1.00  0.00    -0.340 N 
HETATM   24  H15 UNL     1      23.086   1.224  51.305  1.00  0.00     0.167 HD
BRANCH  23  25
HETATM   25  C13 UNL     1      21.623   0.279  52.329  1.00  0.00     0.033 A 
HETATM   26  C14 UNL     1      20.640   0.571  51.411  1.00  0.00     0.032 A 
HETATM   27  C15 UNL     1      19.324   0.205  51.586  1.00  0.00     0.044 A 
HETATM   28  C16 UNL     1      18.906  -0.475  52.688  1.00  0.00     0.116 A 
HETATM   29  F1  UNL     1      17.636  -0.872  52.939  1.00  0.00    -0.206 F 
HETATM   30  C17 UNL     1      19.853  -0.793  53.641  1.00  0.00     0.044 A 
HETATM   31  C18 UNL     1      21.153  -0.408  53.425  1.00  0.00     0.032 A 
ENDBRANCH  23  25
ENDBRANCH   4  23
TORSDOF 8
ENDMDL
MODEL 6
REMARK VINA RESULT:      -7.8      1.475      2.142
REMARK  8 active torsions:
REMARK  status: ('A' for Active; 'I' for Inactive)
REMARK    1  A    between atoms: C2_2  and  N1_3 
REMARK    2  A    between atoms: N1_3  and  C3_4 
REMARK    3  A    between atoms: N1_3  and  C5_6 
REMARK    4  A    between atoms: C5_6  and  C6_7 
REMARK    5  A    between atoms: C7_8  and  C8_9 
REMARK       I    between atoms: C8_9  and  N2_11 
REMARK    6  A    between atoms: N2_11  and  C9_12 
REMARK    7  A    between atoms: C12_15  and  N3_16 
REMARK    8  A    between atoms: N3_16  and  C13_17 
ROOT
HETATM    1  C9  UNL     1      26.075   5.090  49.926  1.00  0.00     0.131 A 
HETATM    2  C10 UNL     1      25.546   3.930  50.415  1.00  0.00     0.068 A 
HETATM    3  C11 UNL     1      24.305   3.836  51.004  1.00  0.00     0.044 A 
HETATM    4  C12 UNL     1      23.776   2.664  51.493  1.00  0.00     0.142 A 
HETATM    5  N4  UNL     1      22.557   2.793  52.024  1.00  0.00    -0.224 NA
HETATM    6  C19 UNL     1      21.876   3.941  52.093  1.00  0.00     0.236 A 
HETATM    7  N5  UNL     1      22.401   5.099  51.607  1.00  0.00    -0.240 NA
HETATM    8  C20 UNL     1      23.635   5.032  51.057  1.00  0.00     0.089 A 
HETATM    9  C21 UNL     1      24.116   6.231  50.582  1.00  0.00     0.151 A 
HETATM   10  N6  UNL     1      25.342   6.224  50.022  1.00  0.00    -0.241 NA
ENDROOT
BRANCH   1  11
HETATM   11  N2  UNL     1      27.351   5.223  49.311  1.00  0.00    -0.301 N 
HETATM   12  C8  UNL     1      28.059   5.974  48.333  1.00  0.00     0.302 C 
HETATM   13  O1  UNL     1      27.471   6.881  47.705  1.00  0.00    -0.258 OA
HETATM   14  H13 UNL     1      27.839   4.449  49.853  1.00  0.00     0.171 HD
BRANCH  12  15
HETATM   15  C7  UNL     1      29.438   5.621  48.135  1.00  0.00    -0.004 C 
HETATM   16  C6  UNL     1      30.611   5.338  47.955  1.00  0.00    -0.066 C 
BRANCH  16  17
HETATM   17  C5  UNL     1      32.020   5.009  47.716  1.00  0.00     0.366 C 
BRANCH  17  18
HETATM   18  N1  UNL     1      32.103   4.298  46.486  1.00  0.00     0.098 N 
BRANCH  18  19
HETATM   19  C2  UNL     1      33.345   4.536  45.778  1.00  0.00     0.269 C 
HETATM   20  C1  UNL     1      34.166   5.512  46.615  1.00  0.00     0.037 C 
ENDBRANCH  18  19
BRANCH  18  21
HETATM   21  C3  UNL     1      31.755   2.908  46.539  1.00  0.00     0.269 C 
HETATM   22  C4  UNL     1      32.830   2.001  47.049  1.00  0.00     0.037 C 
ENDBRANCH  18  21
ENDBRANCH  17  18
ENDBRANCH  16  17
ENDBRANCH  12  15
ENDBRANCH   1  11
BRANCH   4  23
HETATM   23  N3  UNL     1      24.525   1.467  51.415  1.00  0.00    -0.340 N 
HETATM   24  H15 UNL     1      24.412   0.794  50.645  1.00  0.00     0.167 HD
BRANCH  23  25
HETATM   25  C13 UNL     1      25.505   1.014  52.331  1.00  0.00     0.033 A 
HETATM   26  C14 UNL     1      25.581   1.463  53.630  1.00  0.00     0.032 A 
HETATM   27  C15 UNL     1      26.543   1.027  54.513  1.00  0.00     0.044 A 
HETATM   28  C16 UNL     1      27.490   0.118  54.156  1.00  0.00     0.116 A 
HETATM   29  F1  UNL     1      28.469  -0.363  54.960  1.00  0.00    -0.206 F 
HETATM   30  C17 UNL     1      27.458  -0.365  52.863  1.00  0.00     0.044 A 
HETATM   31  C18 UNL     1      26.482   0.097  52.016  1.00  0.00     0.032 A 
ENDBRANCH  23  25
ENDBRANCH   4  23
TORSDOF 8
ENDMDL
MODEL 7
REMARK VINA RESULT:      -7.5      2.619      3.356
REMARK  8 active torsions:
REMARK  status: ('A' for Active; 'I' for Inactive)
REMARK    1  A    between atoms: C2_2  and  N1_3 
REMARK    2  A    between atoms: N1_3  and  C3_4 
REMARK    3  A    between atoms: N1_3  and  C5_6 
REMARK    4  A    between atoms: C5_6  and  C6_7 
REMARK    5  A    between atoms: C7_8  and  C8_9 
REMARK       I    between atoms: C8_9  and  N2_11 
REMARK    6  A    between atoms: N2_11  and  C9_12 
REMARK    7  A    between atoms: C12_15  and  N3_16 
REMARK    8  A    between atoms: N3_16  and  C13_17 
ROOT
HETATM    1  C9  UNL     1      25.496   5.360  50.036  1.00  0.00     0.131 A 
HETATM    2  C10 UNL     1      25.469   4.047  50.410  1.00  0.00     0.068 A 
HETATM    3  C11 UNL     1      24.439   3.466  51.117  1.00  0.00     0.044 A 
HETATM    4  C12 UNL     1      24.417   2.142  51.490  1.00  0.00     0.142 A 
HETATM    5  N4  UNL     1      23.325   1.783  52.169  1.00  0.00    -0.224 NA
HETATM    6  C19 UNL     1      22.318   2.606  52.480  1.00  0.00     0.236 A 
HETATM    7  N5  UNL     1      22.343   3.916  52.109  1.00  0.00    -0.240 NA
HETATM    8  C20 UNL     1      23.425   4.340  51.418  1.00  0.00     0.089 A 
HETATM    9  C21 UNL     1      23.396   5.672  51.068  1.00  0.00     0.151 A 
HETATM   10  N6  UNL     1      24.450   6.149  50.377  1.00  0.00    -0.241 NA
ENDROOT
BRANCH   1  11
HETATM   11  N2  UNL     1      26.540   5.991  49.305  1.00  0.00    -0.301 N 
HETATM   12  C8  UNL     1      27.728   5.720  48.572  1.00  0.00     0.302 C 
HETATM   13  O1  UNL     1      28.116   4.540  48.439  1.00  0.00    -0.258 OA
HETATM   14  H13 UNL     1      26.198   6.991  49.425  1.00  0.00     0.171 HD
BRANCH  12  15
HETATM   15  C7  UNL     1      28.411   6.859  48.024  1.00  0.00    -0.004 C 
HETATM   16  C6  UNL     1      28.986   7.819  47.538  1.00  0.00    -0.066 C 
BRANCH  16  17
HETATM   17  C5  UNL     1      29.683   8.960  46.934  1.00  0.00     0.366 C 
BRANCH  17  18
HETATM   18  N1  UNL     1      30.745   9.336  47.803  1.00  0.00     0.098 N 
BRANCH  18  19
HETATM   19  C2  UNL     1      30.278   9.922  49.044  1.00  0.00     0.269 C 
HETATM   20  C1  UNL     1      30.569  11.418  48.978  1.00  0.00     0.037 C 
ENDBRANCH  18  19
BRANCH  18  21
HETATM   21  C3  UNL     1      31.769   8.353  48.007  1.00  0.00     0.269 C 
HETATM   22  C4  UNL     1      32.066   8.031  49.437  1.00  0.00     0.037 C 
ENDBRANCH  18  21
ENDBRANCH  17  18
ENDBRANCH  16  17
ENDBRANCH  12  15
ENDBRANCH   1  11
BRANCH   4  23
HETATM   23  N3  UNL     1      25.501   1.299  51.155  1.00  0.00    -0.340 N 
HETATM   24  H15 UNL     1      25.636   0.921  50.207  1.00  0.00     0.167 HD
BRANCH  23  25
HETATM   25  C13 UNL     1      26.531   0.852  52.018  1.00  0.00     0.033 A 
HETATM   26  C14 UNL     1      27.380   1.710  52.679  1.00  0.00     0.032 A 
HETATM   27  C15 UNL     1      28.387   1.271  53.508  1.00  0.00     0.044 A 
HETATM   28  C16 UNL     1      28.611  -0.053  53.730  1.00  0.00     0.116 A 
HETATM   29  F1  UNL     1      29.576  -0.570  54.528  1.00  0.00    -0.206 F 
HETATM   30  C17 UNL     1      27.786  -0.957  53.091  1.00  0.00     0.044 A 
HETATM   31  C18 UNL     1      26.796  -0.474  52.273  1.00  0.00     0.032 A 
ENDBRANCH  23  25
ENDBRANCH   4  23
TORSDOF 8
ENDMDL
MODEL 8
REMARK VINA RESULT:      -7.5      2.955      8.338
REMARK  8 active torsions:
REMARK  status: ('A' for Active; 'I' for Inactive)
REMARK    1  A    between atoms: C2_2  and  N1_3 
REMARK    2  A    between atoms: N1_3  and  C3_4 
REMARK    3  A    between atoms: N1_3  and  C5_6 
REMARK    4  A    between atoms: C5_6  and  C6_7 
REMARK    5  A    between atoms: C7_8  and  C8_9 
REMARK       I    between atoms: C8_9  and  N2_11 
REMARK    6  A    between atoms: N2_11  and  C9_12 
REMARK    7  A    between atoms: C12_15  and  N3_16 
REMARK    8  A    between atoms: N3_16  and  C13_17 
ROOT
HETATM    1  C9  UNL     1      27.683   5.455  48.708  1.00  0.00     0.131 A 
HETATM    2  C10 UNL     1      28.986   5.795  48.482  1.00  0.00     0.068 A 
HETATM    3  C11 UNL     1      29.383   6.877  47.728  1.00  0.00     0.044 A 
HETATM    4  C12 UNL     1      30.698   7.214  47.505  1.00  0.00     0.142 A 
HETATM    5  N4  UNL     1      30.863   8.301  46.746  1.00  0.00    -0.224 NA
HETATM    6  C19 UNL     1      29.866   9.025  46.228  1.00  0.00     0.236 A 
HETATM    7  N5  UNL     1      28.565   8.689  46.451  1.00  0.00    -0.240 NA
HETATM    8  C20 UNL     1      28.334   7.596  47.214  1.00  0.00     0.089 A 
HETATM    9  C21 UNL     1      27.002   7.303  47.407  1.00  0.00     0.151 A 
HETATM   10  N6  UNL     1      26.712   6.224  48.160  1.00  0.00    -0.241 NA
ENDROOT
BRANCH   1  11
HETATM   11  N2  UNL     1      27.238   4.348  49.482  1.00  0.00    -0.301 N 
HETATM   12  C8  UNL     1      26.132   3.872  50.239  1.00  0.00     0.302 C 
HETATM   13  O1  UNL     1      25.108   4.581  50.350  1.00  0.00    -0.258 OA
HETATM   14  H13 UNL     1      28.114   3.755  49.379  1.00  0.00     0.171 HD
BRANCH  12  15
HETATM   15  C7  UNL     1      26.282   2.574  50.836  1.00  0.00    -0.004 C 
HETATM   16  C6  UNL     1      26.406   1.480  51.362  1.00  0.00    -0.066 C 
BRANCH  16  17
HETATM   17  C5  UNL     1      26.563   0.176  52.015  1.00  0.00     0.366 C 
BRANCH  17  18
HETATM   18  N1  UNL     1      27.648   0.272  52.931  1.00  0.00     0.098 N 
BRANCH  18  19
HETATM   19  C2  UNL     1      27.315   1.026  54.124  1.00  0.00     0.269 C 
HETATM   20  C1  UNL     1      26.391   0.155  54.969  1.00  0.00     0.037 C 
ENDBRANCH  18  19
BRANCH  18  21
HETATM   21  C3  UNL     1      28.333  -0.953  53.225  1.00  0.00     0.269 C 
HETATM   22  C4  UNL     1      29.787  -0.808  53.546  1.00  0.00     0.037 C 
ENDBRANCH  18  21
ENDBRANCH  17  18
ENDBRANCH  16  17
ENDBRANCH  12  15
ENDBRANCH   1  11
BRANCH   4  23
HETATM   23  N3  UNL     1      31.731   6.423  48.058  1.00  0.00    -0.340 N 
HETATM   24  H15 UNL     1      31.991   6.469  49.052  1.00  0.00     0.167 HD
BRANCH  23  25
HETATM   25  C13 UNL     1      32.541   5.483  47.376  1.00  0.00     0.033 A 
HETATM   26  C14 UNL     1      32.144   4.188  47.133  1.00  0.00     0.032 A 
HETATM   27  C15 UNL     1      32.939   3.274  46.479  1.00  0.00     0.044 A 
HETATM   28  C16 UNL     1      34.182   3.595  46.027  1.00  0.00     0.116 A 
HETATM   29  F1  UNL     1      35.028   2.760  45.377  1.00  0.00    -0.206 F 
HETATM   30  C17 UNL     1      34.629   4.882  46.245  1.00  0.00     0.044 A 
HETATM   31  C18 UNL     1      33.803   5.760  46.901  1.00  0.00     0.032 A 
ENDBRANCH  23  25
ENDBRANCH   4  23
TORSDOF 8
ENDMDL
MODEL 9
REMARK VINA RESULT:      -7.3      3.484      5.676
REMARK  8 active torsions:
REMARK  status: ('A' for Active; 'I' for Inactive)
REMARK    1  A    between atoms: C2_2  and  N1_3 
REMARK    2  A    between atoms: N1_3  and  C3_4 
REMARK    3  A    between atoms: N1_3  and  C5_6 
REMARK    4  A    between atoms: C5_6  and  C6_7 
REMARK    5  A    between atoms: C7_8  and  C8_9 
REMARK       I    between atoms: C8_9  and  N2_11 
REMARK    6  A    between atoms: N2_11  and  C9_12 
REMARK    7  A    between atoms: C12_15  and  N3_16 
REMARK    8  A    between atoms: N3_16  and  C13_17 
ROOT
HETATM    1  C9  UNL     1      26.214   2.665  51.267  1.00  0.00     0.131 A 
HETATM    2  C10 UNL     1      24.942   2.392  51.683  1.00  0.00     0.068 A 
HETATM    3  C11 UNL     1      24.612   1.356  52.530  1.00  0.00     0.044 A 
HETATM    4  C12 UNL     1      23.329   1.087  52.946  1.00  0.00     0.142 A 
HETATM    5  N4  UNL     1      23.229   0.038  53.767  1.00  0.00    -0.224 NA
HETATM    6  C19 UNL     1      24.259  -0.711  54.172  1.00  0.00     0.236 A 
HETATM    7  N5  UNL     1      25.529  -0.441  53.759  1.00  0.00    -0.240 NA
HETATM    8  C20 UNL     1      25.694   0.611  52.925  1.00  0.00     0.089 A 
HETATM    9  C21 UNL     1      26.996   0.837  52.540  1.00  0.00     0.151 A 
HETATM   10  N6  UNL     1      27.221   1.874  51.709  1.00  0.00    -0.241 NA
ENDROOT
BRANCH   1  11
HETATM   11  N2  UNL     1      26.591   3.724  50.397  1.00  0.00    -0.301 N 
HETATM   12  C8  UNL     1      26.080   4.604  49.403  1.00  0.00     0.302 C 
HETATM   13  O1  UNL     1      24.876   4.534  49.076  1.00  0.00    -0.258 OA
HETATM   14  H13 UNL     1      27.613   3.774  50.685  1.00  0.00     0.171 HD
BRANCH  12  15
HETATM   15  C7  UNL     1      27.016   5.534  48.836  1.00  0.00    -0.004 C 
HETATM   16  C6  UNL     1      27.801   6.341  48.364  1.00  0.00    -0.066 C 
BRANCH  16  17
HETATM   17  C5  UNL     1      28.728   7.328  47.801  1.00  0.00     0.366 C 
BRANCH  17  18
HETATM   18  N1  UNL     1      29.158   8.180  48.856  1.00  0.00     0.098 N 
BRANCH  18  19
HETATM   19  C2  UNL     1      30.586   8.425  48.838  1.00  0.00     0.269 C 
HETATM   20  C1  UNL     1      31.155   7.712  47.615  1.00  0.00     0.037 C 
ENDBRANCH  18  19
BRANCH  18  21
HETATM   21  C3  UNL     1      28.394   9.378  49.048  1.00  0.00     0.269 C 
HETATM   22  C4  UNL     1      27.478   9.366  50.231  1.00  0.00     0.037 C 
ENDBRANCH  18  21
ENDBRANCH  17  18
ENDBRANCH  16  17
ENDBRANCH  12  15
ENDBRANCH   1  11
BRANCH   4  23
HETATM   23  N3  UNL     1      22.259   1.891  52.492  1.00  0.00    -0.340 N 
HETATM   24  H15 UNL     1      21.698   2.475  53.127  1.00  0.00     0.167 HD
BRANCH  23  25
HETATM   25  C13 UNL     1      21.799   2.024  51.159  1.00  0.00     0.033 A 
HETATM   26  C14 UNL     1      21.622   0.950  50.317  1.00  0.00     0.032 A 
HETATM   27  C15 UNL     1      21.185   1.085  49.018  1.00  0.00     0.044 A 
HETATM   28  C16 UNL     1      20.898   2.300  48.478  1.00  0.00     0.116 A 
HETATM   29  F1  UNL     1      20.465   2.523  47.214  1.00  0.00    -0.206 F 
HETATM   30  C17 UNL     1      21.058   3.411  49.282  1.00  0.00     0.044 A 
HETATM   31  C18 UNL     1      21.496   3.230  50.570  1.00  0.00     0.032 A 
ENDBRANCH  23  25
ENDBRANCH   4  23
TORSDOF 8
ENDMDL
