MODEL 1
REMARK VINA RESULT:      -7.2      0.000      0.000
REMARK  4 active torsions:
REMARK  status: ('A' for Active; 'I' for Inactive)
REMARK    1  A    between atoms: C2_2  and  C3_3 
REMARK    2  A    between atoms: C2_2  and  C9_11 
REMARK       I    between atoms: C3_3  and  N1_5 
REMARK    3  A    between atoms: N1_5  and  C4_6 
REMARK    4  A    between atoms: P1_16  and  N2_17 
ROOT
HETATM    1  C1  UNL     1      22.698  -1.046  54.660  1.00  0.00     0.021 C 
HETATM    2  C2  UNL     1      23.650  -0.107  53.949  1.00  0.00     0.087 C 
ENDROOT
BRANCH   2   3
HETATM    3  C3  UNL     1      25.059  -0.569  54.055  1.00  0.00     0.226 C 
HETATM    4  O1  UNL     1      25.423  -0.946  55.211  1.00  0.00    -0.273 OA
HETATM    5  N1  UNL     1      25.840  -0.542  52.873  1.00  0.00    -0.330 N 
HETATM    6  H5  UNL     1      25.426  -0.210  51.979  1.00  0.00     0.168 HD
BRANCH   5   7
HETATM    7  C4  UNL     1      27.198  -1.002  53.036  1.00  0.00     0.015 A 
HETATM    8  C5  UNL     1      28.259  -0.328  53.403  1.00  0.00     0.025 A 
HETATM    9  C6  UNL     1      29.396  -1.245  53.417  1.00  0.00    -0.002 A 
HETATM   10  C7  UNL     1      29.006  -2.456  53.058  1.00  0.00    -0.021 A 
HETATM   11  C8  UNL     1      27.552  -2.441  52.771  1.00  0.00     0.084 A 
ENDBRANCH   5   7
ENDBRANCH   2   3
BRANCH   2  12
HETATM   12  C9  UNL     1      23.204   0.157  52.542  1.00  0.00     0.068 A 
HETATM   13  C10 UNL     1      21.792  -0.185  52.294  1.00  0.00    -0.015 A 
HETATM   14  C11 UNL     1      20.735   0.491  51.945  1.00  0.00    -0.003 A 
HETATM   15  C12 UNL     1      20.678   1.906  51.685  1.00  0.00     0.002 A 
HETATM   16  C13 UNL     1      21.759   2.630  51.794  1.00  0.00     0.023 A 
HETATM   17  P1  UNL     1      23.432   2.001  52.269  1.00  0.00    -0.010 P 
BRANCH  17  18
HETATM   18  N2  UNL     1      24.536   2.348  50.929  1.00  0.00    -0.280 NA
HETATM   19  C14 UNL     1      25.910   2.674  51.179  1.00  0.00     0.115 A 
HETATM   20  C15 UNL     1      24.975   3.744  50.863  1.00  0.00     0.072 A 
HETATM   21  C16 UNL     1      24.814   4.370  49.511  1.00  0.00     0.028 C 
ENDBRANCH  17  18
ENDBRANCH   2  12
TORSDOF 4
ENDMDL
MODEL 2
REMARK VINA RESULT:      -7.2      1.984      3.983
REMARK  4 active torsions:
REMARK  status: ('A' for Active; 'I' for Inactive)
REMARK    1  A    between atoms: C2_2  and  C3_3 
REMARK    2  A    between atoms: C2_2  and  C9_11 
REMARK       I    between atoms: C3_3  and  N1_5 
REMARK    3  A    between atoms: N1_5  and  C4_6 
REMARK    4  A    between atoms: P1_16  and  N2_17 
ROOT
HETATM    1  C1  UNL     1      24.900   3.345  50.337  1.00  0.00     0.021 C 
HETATM    2  C2  UNL     1      24.828   2.205  51.330  1.00  0.00     0.087 C 
ENDROOT
BRANCH   2   3
HETATM    3  C3  UNL     1      26.182   1.761  51.757  1.00  0.00     0.226 C 
HETATM    4  O1  UNL     1      27.152   2.365  51.202  1.00  0.00    -0.273 OA
HETATM    5  N1  UNL     1      26.251   0.728  52.724  1.00  0.00    -0.330 N 
HETATM    6  H5  UNL     1      25.380   0.311  53.106  1.00  0.00     0.168 HD
BRANCH   5   7
HETATM    7  C4  UNL     1      27.590   0.340  53.099  1.00  0.00     0.015 A 
HETATM    8  C5  UNL     1      28.564   1.082  53.561  1.00  0.00     0.025 A 
HETATM    9  C6  UNL     1      29.722   0.218  53.788  1.00  0.00    -0.002 A 
HETATM   10  C7  UNL     1      29.429  -1.028  53.461  1.00  0.00    -0.021 A 
HETATM   11  C8  UNL     1      28.028  -1.095  52.980  1.00  0.00     0.084 A 
ENDBRANCH   5   7
ENDBRANCH   2   3
BRANCH   2  12
HETATM   12  C9  UNL     1      23.913   2.533  52.471  1.00  0.00     0.068 A 
HETATM   13  C10 UNL     1      23.381   3.908  52.428  1.00  0.00    -0.015 A 
HETATM   14  C11 UNL     1      22.190   4.424  52.322  1.00  0.00    -0.003 A 
HETATM   15  C12 UNL     1      20.954   3.695  52.210  1.00  0.00     0.002 A 
HETATM   16  C13 UNL     1      20.967   2.390  52.208  1.00  0.00     0.023 A 
HETATM   17  P1  UNL     1      22.477   1.330  52.340  1.00  0.00    -0.010 P 
BRANCH  17  18
HETATM   18  N2  UNL     1      22.306   0.331  53.792  1.00  0.00    -0.280 NA
HETATM   19  C14 UNL     1      23.285  -0.667  54.113  1.00  0.00     0.115 A 
HETATM   20  C15 UNL     1      22.023  -1.080  53.516  1.00  0.00     0.072 A 
HETATM   21  C16 UNL     1      20.853  -1.627  54.278  1.00  0.00     0.028 C 
ENDBRANCH  17  18
ENDBRANCH   2  12
TORSDOF 4
ENDMDL
MODEL 3
REMARK VINA RESULT:      -7.1      2.091      3.110
REMARK  4 active torsions:
REMARK  status: ('A' for Active; 'I' for Inactive)
REMARK    1  A    between atoms: C2_2  and  C3_3 
REMARK    2  A    between atoms: C2_2  and  C9_11 
REMARK       I    between atoms: C3_3  and  N1_5 
REMARK    3  A    between atoms: N1_5  and  C4_6 
REMARK    4  A    between atoms: P1_16  and  N2_17 
ROOT
HETATM    1  C1  UNL     1      24.520   2.845  53.465  1.00  0.00     0.021 C 
HETATM    2  C2  UNL     1      24.770   2.000  52.235  1.00  0.00     0.087 C 
ENDROOT
BRANCH   2   3
HETATM    3  C3  UNL     1      26.106   1.348  52.278  1.00  0.00     0.226 C 
HETATM    4  O1  UNL     1      26.676   1.203  51.153  1.00  0.00    -0.273 OA
HETATM    5  N1  UNL     1      26.598   0.961  53.549  1.00  0.00    -0.330 N 
HETATM    6  H5  UNL     1      26.033   1.136  54.404  1.00  0.00     0.168 HD
BRANCH   5   7
HETATM    7  C4  UNL     1      27.898   0.335  53.528  1.00  0.00     0.015 A 
HETATM    8  C5  UNL     1      29.076   0.874  53.714  1.00  0.00     0.025 A 
HETATM    9  C6  UNL     1      30.080  -0.181  53.593  1.00  0.00    -0.002 A 
HETATM   10  C7  UNL     1      29.494  -1.338  53.337  1.00  0.00    -0.021 A 
HETATM   11  C8  UNL     1      28.027  -1.142  53.265  1.00  0.00     0.084 A 
ENDBRANCH   5   7
ENDBRANCH   2   3
BRANCH   2  12
HETATM   12  C9  UNL     1      23.639   1.045  51.992  1.00  0.00     0.068 A 
HETATM   13  C10 UNL     1      23.579  -0.062  52.964  1.00  0.00    -0.015 A 
HETATM   14  C11 UNL     1      22.709  -0.452  53.851  1.00  0.00    -0.003 A 
HETATM   15  C12 UNL     1      21.444   0.173  54.135  1.00  0.00     0.002 A 
HETATM   16  C13 UNL     1      21.081   1.236  53.471  1.00  0.00     0.023 A 
HETATM   17  P1  UNL     1      22.068   2.062  52.142  1.00  0.00    -0.010 P 
BRANCH  17  18
HETATM   18  N2  UNL     1      21.103   2.026  50.658  1.00  0.00    -0.280 NA
HETATM   19  C14 UNL     1      20.139   0.986  50.436  1.00  0.00     0.115 A 
HETATM   20  C15 UNL     1      21.428   0.913  49.761  1.00  0.00     0.072 A 
HETATM   21  C16 UNL     1      21.675   1.326  48.342  1.00  0.00     0.028 C 
ENDBRANCH  17  18
ENDBRANCH   2  12
TORSDOF 4
ENDMDL
MODEL 4
REMARK VINA RESULT:      -6.9      2.241      5.255
REMARK  4 active torsions:
REMARK  status: ('A' for Active; 'I' for Inactive)
REMARK    1  A    between atoms: C2_2  and  C3_3 
REMARK    2  A    between atoms: C2_2  and  C9_11 
REMARK       I    between atoms: C3_3  and  N1_5 
REMARK    3  A    between atoms: N1_5  and  C4_6 
REMARK    4  A    between atoms: P1_16  and  N2_17 
ROOT
HETATM    1  C1  UNL     1      21.525   0.880  50.825  1.00  0.00     0.021 C 
HETATM    2  C2  UNL     1      22.963   1.054  51.267  1.00  0.00     0.087 C 
ENDROOT
BRANCH   2   3
HETATM    3  C3  UNL     1      23.638   2.149  50.521  1.00  0.00     0.226 C 
HETATM    4  O1  UNL     1      23.124   2.440  49.397  1.00  0.00    -0.273 OA
HETATM    5  N1  UNL     1      24.768   2.748  51.131  1.00  0.00    -0.330 N 
HETATM    6  H5  UNL     1      25.095   2.421  52.061  1.00  0.00     0.168 HD
BRANCH   5   7
HETATM    7  C4  UNL     1      25.381   3.804  50.362  1.00  0.00     0.015 A 
HETATM    8  C5  UNL     1      25.038   5.064  50.271  1.00  0.00     0.025 A 
HETATM    9  C6  UNL     1      25.976   5.724  49.364  1.00  0.00    -0.002 A 
HETATM   10  C7  UNL     1      26.868   4.854  48.922  1.00  0.00    -0.021 A 
HETATM   11  C8  UNL     1      26.590   3.522  49.510  1.00  0.00     0.084 A 
ENDBRANCH   5   7
ENDBRANCH   2   3
BRANCH   2  12
HETATM   12  C9  UNL     1      23.062   1.187  52.757  1.00  0.00     0.068 A 
HETATM   13  C10 UNL     1      21.758   1.142  53.444  1.00  0.00    -0.015 A 
HETATM   14  C11 UNL     1      21.212   0.345  54.317  1.00  0.00    -0.003 A 
HETATM   15  C12 UNL     1      21.817  -0.827  54.894  1.00  0.00     0.002 A 
HETATM   16  C13 UNL     1      23.027  -1.171  54.547  1.00  0.00     0.023 A 
HETATM   17  P1  UNL     1      24.095  -0.270  53.334  1.00  0.00    -0.010 P 
BRANCH  17  18
HETATM   18  N2  UNL     1      25.559   0.243  54.188  1.00  0.00    -0.280 NA
HETATM   19  C14 UNL     1      26.088   1.564  54.004  1.00  0.00     0.115 A 
HETATM   20  C15 UNL     1      26.718   0.447  53.316  1.00  0.00     0.072 A 
HETATM   21  C16 UNL     1      27.960  -0.254  53.779  1.00  0.00     0.028 C 
ENDBRANCH  17  18
ENDBRANCH   2  12
TORSDOF 4
ENDMDL
MODEL 5
REMARK VINA RESULT:      -6.9      1.916      2.280
REMARK  4 active torsions:
REMARK  status: ('A' for Active; 'I' for Inactive)
REMARK    1  A    between atoms: C2_2  and  C3_3 
REMARK    2  A    between atoms: C2_2  and  C9_11 
REMARK       I    between atoms: C3_3  and  N1_5 
REMARK    3  A    between atoms: N1_5  and  C4_6 
REMARK    4  A    between atoms: P1_16  and  N2_17 
ROOT
HETATM    1  C1  UNL     1      22.280  -0.595  53.509  1.00  0.00     0.021 C 
HETATM    2  C2  UNL     1      22.930   0.690  53.044  1.00  0.00     0.087 C 
ENDROOT
BRANCH   2   3
HETATM    3  C3  UNL     1      24.413   0.582  53.027  1.00  0.00     0.226 C 
HETATM    4  O1  UNL     1      25.012   1.439  52.307  1.00  0.00    -0.273 OA
HETATM    5  N1  UNL     1      24.997  -0.450  53.803  1.00  0.00    -0.330 N 
HETATM    6  H5  UNL     1      24.395  -1.093  54.355  1.00  0.00     0.168 HD
BRANCH   5   7
HETATM    7  C4  UNL     1      26.437  -0.506  53.747  1.00  0.00     0.015 A 
HETATM    8  C5  UNL     1      27.206  -1.167  52.919  1.00  0.00     0.025 A 
HETATM    9  C6  UNL     1      28.597  -0.895  53.277  1.00  0.00    -0.002 A 
HETATM   10  C7  UNL     1      28.646  -0.076  54.313  1.00  0.00    -0.021 A 
HETATM   11  C8  UNL     1      27.268   0.269  54.736  1.00  0.00     0.084 A 
ENDBRANCH   5   7
ENDBRANCH   2   3
BRANCH   2  12
HETATM   12  C9  UNL     1      22.343   1.158  51.745  1.00  0.00     0.068 A 
HETATM   13  C10 UNL     1      21.279   0.280  51.225  1.00  0.00    -0.015 A 
HETATM   14  C11 UNL     1      20.010   0.431  50.975  1.00  0.00    -0.003 A 
HETATM   15  C12 UNL     1      19.243   1.633  51.166  1.00  0.00     0.002 A 
HETATM   16  C13 UNL     1      19.822   2.706  51.632  1.00  0.00     0.023 A 
HETATM   17  P1  UNL     1      21.607   2.850  52.095  1.00  0.00    -0.010 P 
BRANCH  17  18
HETATM   18  N2  UNL     1      22.323   4.113  51.082  1.00  0.00    -0.280 NA
HETATM   19  C14 UNL     1      23.605   4.672  51.405  1.00  0.00     0.115 A 
HETATM   20  C15 UNL     1      22.402   5.425  51.730  1.00  0.00     0.072 A 
HETATM   21  C16 UNL     1      21.845   6.546  50.905  1.00  0.00     0.028 C 
ENDBRANCH  17  18
ENDBRANCH   2  12
TORSDOF 4
ENDMDL
MODEL 6
REMARK VINA RESULT:      -6.5      2.206      6.354
REMARK  4 active torsions:
REMARK  status: ('A' for Active; 'I' for Inactive)
REMARK    1  A    between atoms: C2_2  and  C3_3 
REMARK    2  A    between atoms: C2_2  and  C9_11 
REMARK       I    between atoms: C3_3  and  N1_5 
REMARK    3  A    between atoms: N1_5  and  C4_6 
REMARK    4  A    between atoms: P1_16  and  N2_17 
ROOT
HETATM    1  C1  UNL     1      22.499   3.241  52.219  1.00  0.00     0.021 C 
HETATM    2  C2  UNL     1      23.032   1.833  52.379  1.00  0.00     0.087 C 
ENDROOT
BRANCH   2   3
HETATM    3  C3  UNL     1      21.932   0.835  52.459  1.00  0.00     0.226 C 
HETATM    4  O1  UNL     1      22.289  -0.378  52.337  1.00  0.00    -0.273 OA
HETATM    5  N1  UNL     1      20.620   1.330  52.661  1.00  0.00    -0.330 N 
HETATM    6  H5  UNL     1      20.455   2.352  52.747  1.00  0.00     0.168 HD
BRANCH   5   7
HETATM    7  C4  UNL     1      19.596   0.316  52.730  1.00  0.00     0.015 A 
HETATM    8  C5  UNL     1      19.417  -0.616  53.632  1.00  0.00     0.025 A 
HETATM    9  C6  UNL     1      18.239  -1.393  53.253  1.00  0.00    -0.002 A 
HETATM   10  C7  UNL     1      17.725  -0.920  52.131  1.00  0.00    -0.021 A 
HETATM   11  C8  UNL     1      18.536   0.231  51.664  1.00  0.00     0.084 A 
ENDBRANCH   5   7
ENDBRANCH   2   3
BRANCH   2  12
HETATM   12  C9  UNL     1      24.060   1.517  51.334  1.00  0.00     0.068 A 
HETATM   13  C10 UNL     1      24.093   2.487  50.224  1.00  0.00    -0.015 A 
HETATM   14  C11 UNL     1      24.985   3.314  49.760  1.00  0.00    -0.003 A 
HETATM   15  C12 UNL     1      26.314   3.510  50.277  1.00  0.00     0.002 A 
HETATM   16  C13 UNL     1      26.719   2.820  51.308  1.00  0.00     0.023 A 
HETATM   17  P1  UNL     1      25.717   1.558  52.216  1.00  0.00    -0.010 P 
BRANCH  17  18
HETATM   18  N2  UNL     1      26.573   0.012  52.104  1.00  0.00    -0.280 NA
HETATM   19  C14 UNL     1      26.066  -1.155  52.766  1.00  0.00     0.115 A 
HETATM   20  C15 UNL     1      27.178  -0.429  53.363  1.00  0.00     0.072 A 
HETATM   21  C16 UNL     1      28.619  -0.820  53.244  1.00  0.00     0.028 C 
ENDBRANCH  17  18
ENDBRANCH   2  12
TORSDOF 4
ENDMDL
MODEL 7
REMARK VINA RESULT:      -6.4      3.705      6.049
REMARK  4 active torsions:
REMARK  status: ('A' for Active; 'I' for Inactive)
REMARK    1  A    between atoms: C2_2  and  C3_3 
REMARK    2  A    between atoms: C2_2  and  C9_11 
REMARK       I    between atoms: C3_3  and  N1_5 
REMARK    3  A    between atoms: N1_5  and  C4_6 
REMARK    4  A    between atoms: P1_16  and  N2_17 
ROOT
HETATM    1  C1  UNL     1      23.163   2.783  49.131  1.00  0.00     0.021 C 
HETATM    2  C2  UNL     1      23.033   3.528  50.442  1.00  0.00     0.087 C 
ENDROOT
BRANCH   2   3
HETATM    3  C3  UNL     1      22.350   2.706  51.476  1.00  0.00     0.226 C 
HETATM    4  O1  UNL     1      21.714   3.361  52.358  1.00  0.00    -0.273 OA
HETATM    5  N1  UNL     1      22.475   1.298  51.373  1.00  0.00    -0.330 N 
HETATM    6  H5  UNL     1      23.027   0.878  50.599  1.00  0.00     0.168 HD
BRANCH   5   7
HETATM    7  C4  UNL     1      21.791   0.554  52.403  1.00  0.00     0.015 A 
HETATM    8  C5  UNL     1      22.251   0.118  53.548  1.00  0.00     0.025 A 
HETATM    9  C6  UNL     1      21.165  -0.580  54.235  1.00  0.00    -0.002 A 
HETATM   10  C7  UNL     1      20.070  -0.554  53.496  1.00  0.00    -0.021 A 
HETATM   11  C8  UNL     1      20.344   0.175  52.234  1.00  0.00     0.084 A 
ENDBRANCH   5   7
ENDBRANCH   2   3
BRANCH   2  12
HETATM   12  C9  UNL     1      24.354   4.082  50.887  1.00  0.00     0.068 A 
HETATM   13  C10 UNL     1      25.463   3.115  50.796  1.00  0.00    -0.015 A 
HETATM   14  C11 UNL     1      26.576   3.062  50.122  1.00  0.00    -0.003 A 
HETATM   15  C12 UNL     1      27.054   4.049  49.190  1.00  0.00     0.002 A 
HETATM   16  C13 UNL     1      26.347   5.121  48.959  1.00  0.00     0.023 A 
HETATM   17  P1  UNL     1      24.718   5.523  49.739  1.00  0.00    -0.010 P 
BRANCH  17  18
HETATM   18  N2  UNL     1      24.908   7.048  50.618  1.00  0.00    -0.280 NA
HETATM   19  C14 UNL     1      23.793   7.934  50.795  1.00  0.00     0.115 A 
HETATM   20  C15 UNL     1      24.787   8.241  49.777  1.00  0.00     0.072 A 
HETATM   21  C16 UNL     1      25.910   9.221  49.944  1.00  0.00     0.028 C 
ENDBRANCH  17  18
ENDBRANCH   2  12
TORSDOF 4
ENDMDL
MODEL 8
REMARK VINA RESULT:      -6.3      1.980      2.534
REMARK  4 active torsions:
REMARK  status: ('A' for Active; 'I' for Inactive)
REMARK    1  A    between atoms: C2_2  and  C3_3 
REMARK    2  A    between atoms: C2_2  and  C9_11 
REMARK       I    between atoms: C3_3  and  N1_5 
REMARK    3  A    between atoms: N1_5  and  C4_6 
REMARK    4  A    between atoms: P1_16  and  N2_17 
ROOT
HETATM    1  C1  UNL     1      21.705   1.153  52.506  1.00  0.00     0.021 C 
HETATM    2  C2  UNL     1      23.024   1.729  52.037  1.00  0.00     0.087 C 
ENDROOT
BRANCH   2   3
HETATM    3  C3  UNL     1      24.181   0.989  52.606  1.00  0.00     0.226 C 
HETATM    4  O1  UNL     1      23.924   0.278  53.625  1.00  0.00    -0.273 OA
HETATM    5  N1  UNL     1      25.434   1.150  51.962  1.00  0.00    -0.330 N 
HETATM    6  H5  UNL     1      25.518   1.764  51.128  1.00  0.00     0.168 HD
BRANCH   5   7
HETATM    7  C4  UNL     1      26.518   0.407  52.558  1.00  0.00     0.015 A 
HETATM    8  C5  UNL     1      26.963  -0.787  52.259  1.00  0.00     0.025 A 
HETATM    9  C6  UNL     1      28.079  -1.091  53.152  1.00  0.00    -0.002 A 
HETATM   10  C7  UNL     1      28.291  -0.079  53.974  1.00  0.00    -0.021 A 
HETATM   11  C8  UNL     1      27.315   1.000  53.690  1.00  0.00     0.084 A 
ENDBRANCH   5   7
ENDBRANCH   2   3
BRANCH   2  12
HETATM   12  C9  UNL     1      23.063   1.855  50.543  1.00  0.00     0.068 A 
HETATM   13  C10 UNL     1      21.950   1.169  49.861  1.00  0.00    -0.015 A 
HETATM   14  C11 UNL     1      20.963   1.557  49.105  1.00  0.00    -0.003 A 
HETATM   15  C12 UNL     1      20.683   2.909  48.700  1.00  0.00     0.002 A 
HETATM   16  C13 UNL     1      21.458   3.881  49.099  1.00  0.00     0.023 A 
HETATM   17  P1  UNL     1      22.947   3.694  50.179  1.00  0.00    -0.010 P 
BRANCH  17  18
HETATM   18  N2  UNL     1      24.347   4.286  49.271  1.00  0.00    -0.280 NA
HETATM   19  C14 UNL     1      25.638   3.684  49.441  1.00  0.00     0.115 A 
HETATM   20  C15 UNL     1      25.356   4.953  50.097  1.00  0.00     0.072 A 
HETATM   21  C16 UNL     1      25.776   6.296  49.579  1.00  0.00     0.028 C 
ENDBRANCH  17  18
ENDBRANCH   2  12
TORSDOF 4
ENDMDL
MODEL 9
REMARK VINA RESULT:      -6.3      2.000      3.720
REMARK  4 active torsions:
REMARK  status: ('A' for Active; 'I' for Inactive)
REMARK    1  A    between atoms: C2_2  and  C3_3 
REMARK    2  A    between atoms: C2_2  and  C9_11 
REMARK       I    between atoms: C3_3  and  N1_5 
REMARK    3  A    between atoms: N1_5  and  C4_6 
REMARK    4  A    between atoms: P1_16  and  N2_17 
ROOT
HETATM    1  C1  UNL     1      22.874  -0.459  52.956  1.00  0.00     0.021 C 
HETATM    2  C2  UNL     1      23.577   0.822  53.349  1.00  0.00     0.087 C 
ENDROOT
BRANCH   2   3
HETATM    3  C3  UNL     1      25.050   0.718  53.173  1.00  0.00     0.226 C 
HETATM    4  O1  UNL     1      25.432   0.257  52.054  1.00  0.00    -0.273 OA
HETATM    5  N1  UNL     1      25.863   1.136  54.256  1.00  0.00    -0.330 N 
HETATM    6  H5  UNL     1      25.429   1.498  55.127  1.00  0.00     0.168 HD
BRANCH   5   7
HETATM    7  C4  UNL     1      27.283   1.011  54.027  1.00  0.00     0.015 A 
HETATM    8  C5  UNL     1      28.137   1.919  53.627  1.00  0.00     0.025 A 
HETATM    9  C6  UNL     1      29.457   1.297  53.550  1.00  0.00    -0.002 A 
HETATM   10  C7  UNL     1      29.380   0.026  53.904  1.00  0.00    -0.021 A 
HETATM   11  C8  UNL     1      27.977  -0.306  54.251  1.00  0.00     0.084 A 
ENDBRANCH   5   7
ENDBRANCH   2   3
BRANCH   2  12
HETATM   12  C9  UNL     1      22.969   2.010  52.664  1.00  0.00     0.068 A 
HETATM   13  C10 UNL     1      23.954   3.029  52.259  1.00  0.00    -0.015 A 
HETATM   14  C11 UNL     1      24.338   3.527  51.119  1.00  0.00    -0.003 A 
HETATM   15  C12 UNL     1      23.837   3.164  49.820  1.00  0.00     0.002 A 
HETATM   16  C13 UNL     1      22.908   2.253  49.714  1.00  0.00     0.023 A 
HETATM   17  P1  UNL     1      22.132   1.339  51.122  1.00  0.00    -0.010 P 
BRANCH  17  18
HETATM   18  N2  UNL     1      20.396   1.688  51.097  1.00  0.00    -0.280 NA
HETATM   19  C14 UNL     1      19.729   2.162  52.275  1.00  0.00     0.115 A 
HETATM   20  C15 UNL     1      19.590   0.763  51.898  1.00  0.00     0.072 A 
HETATM   21  C16 UNL     1      18.417   0.186  51.165  1.00  0.00     0.028 C 
ENDBRANCH  17  18
ENDBRANCH   2  12
TORSDOF 4
ENDMDL
