MODEL 1
REMARK VINA RESULT:      -8.3      0.000      0.000
REMARK  8 active torsions:
REMARK  status: ('A' for Active; 'I' for Inactive)
REMARK    1  A    between atoms: C2_2  and  C3_3 
REMARK    2  A    between atoms: C7_9  and  N3_10 
REMARK    3  A    between atoms: N3_10  and  C8_11 
REMARK    4  A    between atoms: C14_19  and  O1_20 
REMARK    5  A    between atoms: O1_20  and  C15_21 
REMARK    6  A    between atoms: C15_21  and  C16_22 
REMARK    7  A    between atoms: C16_22  and  C17_23 
REMARK    8  A    between atoms: C21_28  and  O2_29 
ROOT
HETATM    1  C3  UNL     1      20.983   1.314  50.663  1.00  0.00    -0.004 A 
HETATM    2  C4  UNL     1      20.331   0.563  51.609  1.00  0.00     0.046 A 
HETATM    3  C5  UNL     1      21.115  -0.011  52.586  1.00  0.00     0.073 A 
HETATM    4  N1  UNL     1      20.506  -0.734  53.529  1.00  0.00    -0.241 NA
HETATM    5  C6  UNL     1      21.135  -1.337  54.537  1.00  0.00     0.236 A 
HETATM    6  N2  UNL     1      22.451  -1.235  54.647  1.00  0.00    -0.224 NA
HETATM    7  C7  UNL     1      23.200  -0.532  53.762  1.00  0.00     0.142 A 
HETATM    8  C12 UNL     1      22.488   0.081  52.723  1.00  0.00     0.041 A 
HETATM    9  C13 UNL     1      23.053   0.857  51.724  1.00  0.00     0.055 A 
HETATM   10  C14 UNL     1      22.349   1.468  50.712  1.00  0.00     0.079 A 
ENDROOT
BRANCH  10  11
HETATM   11  O1  UNL     1      22.912   2.237  49.722  1.00  0.00    -0.350 OA
BRANCH  11  12
HETATM   12  C15 UNL     1      24.204   2.763  49.686  1.00  0.00     0.178 C 
BRANCH  12  13
HETATM   13  C16 UNL     1      24.154   4.271  49.493  1.00  0.00     0.054 C 
BRANCH  13  14
HETATM   14  C17 UNL     1      24.587   5.020  50.740  1.00  0.00     0.107 C 
HETATM   15  N4  UNL     1      24.564   4.100  51.850  1.00  0.00    -0.414 N 
HETATM   16  C18 UNL     1      23.600   4.414  52.855  1.00  0.00     0.114 C 
HETATM   17  H14 UNL     1      24.664   3.109  51.610  1.00  0.00     0.153 HD
HETATM   18  C19 UNL     1      22.235   4.749  52.265  1.00  0.00     0.022 C 
HETATM   19  C20 UNL     1      22.310   5.897  51.281  1.00  0.00     0.035 C 
HETATM   20  C21 UNL     1      23.748   6.236  50.969  1.00  0.00     0.140 C 
BRANCH  20  21
HETATM   21  O2  UNL     1      24.285   6.991  52.017  1.00  0.00    -0.394 OA
HETATM   22  H22 UNL     1      25.282   6.903  51.970  1.00  0.00     0.210 HD
ENDBRANCH  20  21
ENDBRANCH  13  14
ENDBRANCH  12  13
ENDBRANCH  11  12
ENDBRANCH  10  11
BRANCH   1  23
HETATM   23  C2  UNL     1      20.253   1.957  49.583  1.00  0.00    -0.012 C 
HETATM   24  C1  UNL     1      19.569   3.022  49.944  1.00  0.00     0.032 C 
ENDBRANCH   1  23
BRANCH   7  25
HETATM   25  N3  UNL     1      24.541  -0.279  53.650  1.00  0.00    -0.338 N 
HETATM   26  H6  UNL     1      24.534   0.558  54.356  1.00  0.00     0.167 HD
BRANCH  25  27
HETATM   27  C8  UNL     1      25.866  -0.147  53.428  1.00  0.00     0.076 A 
HETATM   28  C9  UNL     1      26.999  -0.095  52.845  1.00  0.00     0.164 A 
HETATM   29  F1  UNL     1      26.952  -0.306  51.494  1.00  0.00    -0.202 F 
HETATM   30  C10 UNL     1      27.734   0.179  54.091  1.00  0.00     0.077 A 
HETATM   31 CL1  UNL     1      29.461   0.377  53.971  1.00  0.00    -0.081 Cl
HETATM   32  C11 UNL     1      26.578   0.131  54.712  1.00  0.00     0.059 A 
ENDBRANCH  25  27
ENDBRANCH   7  25
TORSDOF 8
ENDMDL
MODEL 2
REMARK VINA RESULT:      -8.0      3.112      6.145
REMARK  8 active torsions:
REMARK  status: ('A' for Active; 'I' for Inactive)
REMARK    1  A    between atoms: C2_2  and  C3_3 
REMARK    2  A    between atoms: C7_9  and  N3_10 
REMARK    3  A    between atoms: N3_10  and  C8_11 
REMARK    4  A    between atoms: C14_19  and  O1_20 
REMARK    5  A    between atoms: O1_20  and  C15_21 
REMARK    6  A    between atoms: C15_21  and  C16_22 
REMARK    7  A    between atoms: C16_22  and  C17_23 
REMARK    8  A    between atoms: C21_28  and  O2_29 
ROOT
HETATM    1  C3  UNL     1      22.228   0.483  53.503  1.00  0.00    -0.004 A 
HETATM    2  C4  UNL     1      20.967   0.998  53.327  1.00  0.00     0.046 A 
HETATM    3  C5  UNL     1      20.872   2.140  52.561  1.00  0.00     0.073 A 
HETATM    4  N1  UNL     1      19.656   2.654  52.360  1.00  0.00    -0.241 NA
HETATM    5  C6  UNL     1      19.412   3.746  51.634  1.00  0.00     0.236 A 
HETATM    6  N2  UNL     1      20.416   4.390  51.058  1.00  0.00    -0.224 NA
HETATM    7  C7  UNL     1      21.703   3.982  51.177  1.00  0.00     0.142 A 
HETATM    8  C12 UNL     1      21.901   2.830  51.949  1.00  0.00     0.041 A 
HETATM    9  C13 UNL     1      23.130   2.235  52.185  1.00  0.00     0.055 A 
HETATM   10  C14 UNL     1      23.319   1.096  52.934  1.00  0.00     0.079 A 
ENDROOT
BRANCH  10  11
HETATM   11  O1  UNL     1      24.539   0.508  53.166  1.00  0.00    -0.350 OA
BRANCH  11  12
HETATM   12  C15 UNL     1      25.800   1.003  52.829  1.00  0.00     0.178 C 
BRANCH  12  13
HETATM   13  C16 UNL     1      26.652  -0.098  52.216  1.00  0.00     0.054 C 
BRANCH  13  14
HETATM   14  C17 UNL     1      27.295  -0.977  53.272  1.00  0.00     0.107 C 
HETATM   15  N4  UNL     1      27.067  -0.374  54.562  1.00  0.00    -0.414 N 
HETATM   16  C18 UNL     1      28.251   0.070  55.223  1.00  0.00     0.114 C 
HETATM   17  H14 UNL     1      26.251   0.243  54.627  1.00  0.00     0.153 HD
HETATM   18  C19 UNL     1      29.173   0.855  54.296  1.00  0.00     0.022 C 
HETATM   19  C20 UNL     1      29.564   0.052  53.074  1.00  0.00     0.035 C 
HETATM   20  C21 UNL     1      28.743  -1.211  52.983  1.00  0.00     0.140 C 
BRANCH  20  21
HETATM   21  O2  UNL     1      29.255  -2.162  53.873  1.00  0.00    -0.394 OA
HETATM   22  H22 UNL     1      30.207  -1.913  54.063  1.00  0.00     0.210 HD
ENDBRANCH  20  21
ENDBRANCH  13  14
ENDBRANCH  12  13
ENDBRANCH  11  12
ENDBRANCH  10  11
BRANCH   1  23
HETATM   23  C2  UNL     1      22.444  -0.713  54.299  1.00  0.00    -0.012 C 
HETATM   24  C1  UNL     1      21.477  -1.602  54.224  1.00  0.00     0.032 C 
ENDBRANCH   1  23
BRANCH   7  25
HETATM   25  N3  UNL     1      22.893   4.459  50.696  1.00  0.00    -0.338 N 
HETATM   26  H6  UNL     1      22.433   5.195  50.030  1.00  0.00     0.167 HD
BRANCH  25  27
HETATM   27  C8  UNL     1      24.138   4.814  50.312  1.00  0.00     0.076 A 
HETATM   28  C9  UNL     1      25.225   5.466  50.173  1.00  0.00     0.164 A 
HETATM   29  F1  UNL     1      25.261   6.658  50.844  1.00  0.00    -0.202 F 
HETATM   30  C10 UNL     1      25.831   4.453  49.293  1.00  0.00     0.077 A 
HETATM   31 CL1  UNL     1      27.443   4.765  48.710  1.00  0.00    -0.081 Cl
HETATM   32  C11 UNL     1      24.721   3.764  49.422  1.00  0.00     0.059 A 
ENDBRANCH  25  27
ENDBRANCH   7  25
TORSDOF 8
ENDMDL
MODEL 3
REMARK VINA RESULT:      -7.9      3.202      5.523
REMARK  8 active torsions:
REMARK  status: ('A' for Active; 'I' for Inactive)
REMARK    1  A    between atoms: C2_2  and  C3_3 
REMARK    2  A    between atoms: C7_9  and  N3_10 
REMARK    3  A    between atoms: N3_10  and  C8_11 
REMARK    4  A    between atoms: C14_19  and  O1_20 
REMARK    5  A    between atoms: O1_20  and  C15_21 
REMARK    6  A    between atoms: C15_21  and  C16_22 
REMARK    7  A    between atoms: C16_22  and  C17_23 
REMARK    8  A    between atoms: C21_28  and  O2_29 
ROOT
HETATM    1  C3  UNL     1      23.591  -0.262  53.360  1.00  0.00    -0.004 A 
HETATM    2  C4  UNL     1      24.835  -0.446  53.913  1.00  0.00     0.046 A 
HETATM    3  C5  UNL     1      25.840   0.375  53.450  1.00  0.00     0.073 A 
HETATM    4  N1  UNL     1      27.057   0.229  53.981  1.00  0.00    -0.241 NA
HETATM    5  C6  UNL     1      28.119   0.959  53.639  1.00  0.00     0.236 A 
HETATM    6  N2  UNL     1      28.000   1.901  52.716  1.00  0.00    -0.224 NA
HETATM    7  C7  UNL     1      26.824   2.160  52.092  1.00  0.00     0.142 A 
HETATM    8  C12 UNL     1      25.742   1.366  52.491  1.00  0.00     0.041 A 
HETATM    9  C13 UNL     1      24.453   1.474  51.995  1.00  0.00     0.055 A 
HETATM   10  C14 UNL     1      23.390   0.699  52.397  1.00  0.00     0.079 A 
ENDROOT
BRANCH  10  11
HETATM   11  O1  UNL     1      22.112   0.809  51.904  1.00  0.00    -0.350 OA
BRANCH  11  12
HETATM   12  C15 UNL     1      21.211   1.856  52.102  1.00  0.00     0.178 C 
BRANCH  12  13
HETATM   13  C16 UNL     1      21.233   2.803  50.911  1.00  0.00     0.054 C 
BRANCH  13  14
HETATM   14  C17 UNL     1      20.743   2.133  49.642  1.00  0.00     0.107 C 
HETATM   15  N4  UNL     1      21.845   1.405  49.061  1.00  0.00    -0.414 N 
HETATM   16  C18 UNL     1      22.274   1.899  47.792  1.00  0.00     0.114 C 
HETATM   17  H14 UNL     1      22.583   1.121  49.712  1.00  0.00     0.153 HD
HETATM   18  C19 UNL     1      22.424   3.416  47.782  1.00  0.00     0.022 C 
HETATM   19  C20 UNL     1      21.139   4.115  48.171  1.00  0.00     0.035 C 
HETATM   20  C21 UNL     1      20.133   3.121  48.700  1.00  0.00     0.140 C 
BRANCH  20  21
HETATM   21  O2  UNL     1      19.538   2.448  47.627  1.00  0.00    -0.394 OA
HETATM   22  H22 UNL     1      18.574   2.307  47.859  1.00  0.00     0.210 HD
ENDBRANCH  20  21
ENDBRANCH  13  14
ENDBRANCH  12  13
ENDBRANCH  11  12
ENDBRANCH  10  11
BRANCH   1  23
HETATM   23  C2  UNL     1      22.462  -1.079  53.769  1.00  0.00    -0.012 C 
HETATM   24  C1  UNL     1      21.935  -0.744  54.927  1.00  0.00     0.032 C 
ENDBRANCH   1  23
BRANCH   7  25
HETATM   25  N3  UNL     1      26.444   3.054  51.127  1.00  0.00    -0.338 N 
HETATM   26  H6  UNL     1      25.385   2.782  51.163  1.00  0.00     0.167 HD
BRANCH  25  27
HETATM   27  C8  UNL     1      26.228   3.971  50.159  1.00  0.00     0.076 A 
HETATM   28  C9  UNL     1      26.379   4.702  49.125  1.00  0.00     0.164 A 
HETATM   29  F1  UNL     1      27.545   4.487  48.444  1.00  0.00    -0.202 F 
HETATM   30  C10 UNL     1      25.095   5.399  49.314  1.00  0.00     0.077 A 
HETATM   31 CL1  UNL     1      24.669   6.616  48.143  1.00  0.00    -0.081 Cl
HETATM   32  C11 UNL     1      24.919   4.656  50.382  1.00  0.00     0.059 A 
ENDBRANCH  25  27
ENDBRANCH   7  25
TORSDOF 8
ENDMDL
MODEL 4
REMARK VINA RESULT:      -7.8      1.871      2.346
REMARK  8 active torsions:
REMARK  status: ('A' for Active; 'I' for Inactive)
REMARK    1  A    between atoms: C2_2  and  C3_3 
REMARK    2  A    between atoms: C7_9  and  N3_10 
REMARK    3  A    between atoms: N3_10  and  C8_11 
REMARK    4  A    between atoms: C14_19  and  O1_20 
REMARK    5  A    between atoms: O1_20  and  C15_21 
REMARK    6  A    between atoms: C15_21  and  C16_22 
REMARK    7  A    between atoms: C16_22  and  C17_23 
REMARK    8  A    between atoms: C21_28  and  O2_29 
ROOT
HETATM    1  C3  UNL     1      21.661   2.911  51.977  1.00  0.00    -0.004 A 
HETATM    2  C4  UNL     1      20.859   2.096  52.737  1.00  0.00     0.046 A 
HETATM    3  C5  UNL     1      21.449   0.963  53.254  1.00  0.00     0.073 A 
HETATM    4  N1  UNL     1      20.696   0.160  54.010  1.00  0.00    -0.241 NA
HETATM    5  C6  UNL     1      21.134  -0.961  54.583  1.00  0.00     0.236 A 
HETATM    6  N2  UNL     1      22.394  -1.337  54.415  1.00  0.00    -0.224 NA
HETATM    7  C7  UNL     1      23.272  -0.618  53.673  1.00  0.00     0.142 A 
HETATM    8  C12 UNL     1      22.758   0.550  53.096  1.00  0.00     0.041 A 
HETATM    9  C13 UNL     1      23.485   1.435  52.316  1.00  0.00     0.055 A 
HETATM   10  C14 UNL     1      22.980   2.588  51.760  1.00  0.00     0.079 A 
ENDROOT
BRANCH  10  11
HETATM   11  O1  UNL     1      23.704   3.465  50.988  1.00  0.00    -0.350 OA
BRANCH  11  12
HETATM   12  C15 UNL     1      24.469   3.171  49.858  1.00  0.00     0.178 C 
BRANCH  12  13
HETATM   13  C16 UNL     1      24.766   4.442  49.077  1.00  0.00     0.054 C 
BRANCH  13  14
HETATM   14  C17 UNL     1      25.929   5.216  49.669  1.00  0.00     0.107 C 
HETATM   15  N4  UNL     1      25.416   6.086  50.698  1.00  0.00    -0.414 N 
HETATM   16  C18 UNL     1      25.553   7.479  50.416  1.00  0.00     0.114 C 
HETATM   17  H14 UNL     1      24.533   5.794  51.129  1.00  0.00     0.153 HD
HETATM   18  C19 UNL     1      25.117   7.828  48.998  1.00  0.00     0.022 C 
HETATM   19  C20 UNL     1      25.884   7.038  47.959  1.00  0.00     0.035 C 
HETATM   20  C21 UNL     1      26.695   5.947  48.613  1.00  0.00     0.140 C 
BRANCH  20  21
HETATM   21  O2  UNL     1      27.855   6.500  49.168  1.00  0.00    -0.394 OA
HETATM   22  H22 UNL     1      27.927   6.164  50.109  1.00  0.00     0.210 HD
ENDBRANCH  20  21
ENDBRANCH  13  14
ENDBRANCH  12  13
ENDBRANCH  11  12
ENDBRANCH  10  11
BRANCH   1  23
HETATM   23  C2  UNL     1      21.139   4.127  51.376  1.00  0.00    -0.012 C 
HETATM   24  C1  UNL     1      19.829   4.160  51.259  1.00  0.00     0.032 C 
ENDBRANCH   1  23
BRANCH   7  25
HETATM   25  N3  UNL     1      24.592  -0.784  53.349  1.00  0.00    -0.338 N 
HETATM   26  H6  UNL     1      24.417  -0.807  52.269  1.00  0.00     0.167 HD
BRANCH  25  27
HETATM   27  C8  UNL     1      25.921  -0.956  53.189  1.00  0.00     0.076 A 
HETATM   28  C9  UNL     1      27.049  -1.432  52.831  1.00  0.00     0.164 A 
HETATM   29  F1  UNL     1      26.969  -2.564  52.067  1.00  0.00    -0.202 F 
HETATM   30  C10 UNL     1      27.818  -0.385  53.524  1.00  0.00     0.077 A 
HETATM   31 CL1  UNL     1      29.555  -0.466  53.413  1.00  0.00    -0.081 Cl
HETATM   32  C11 UNL     1      26.669   0.123  53.904  1.00  0.00     0.059 A 
ENDBRANCH  25  27
ENDBRANCH   7  25
TORSDOF 8
ENDMDL
MODEL 5
REMARK VINA RESULT:      -7.7      2.902      5.226
REMARK  8 active torsions:
REMARK  status: ('A' for Active; 'I' for Inactive)
REMARK    1  A    between atoms: C2_2  and  C3_3 
REMARK    2  A    between atoms: C7_9  and  N3_10 
REMARK    3  A    between atoms: N3_10  and  C8_11 
REMARK    4  A    between atoms: C14_19  and  O1_20 
REMARK    5  A    between atoms: O1_20  and  C15_21 
REMARK    6  A    between atoms: C15_21  and  C16_22 
REMARK    7  A    between atoms: C16_22  and  C17_23 
REMARK    8  A    between atoms: C21_28  and  O2_29 
ROOT
HETATM    1  C3  UNL     1      27.127   0.565  53.273  1.00  0.00    -0.004 A 
HETATM    2  C4  UNL     1      26.745  -0.126  54.396  1.00  0.00     0.046 A 
HETATM    3  C5  UNL     1      25.408  -0.447  54.496  1.00  0.00     0.073 A 
HETATM    4  N1  UNL     1      25.010  -1.133  55.570  1.00  0.00    -0.241 NA
HETATM    5  C6  UNL     1      23.754  -1.519  55.793  1.00  0.00     0.236 A 
HETATM    6  N2  UNL     1      22.809  -1.222  54.913  1.00  0.00    -0.224 NA
HETATM    7  C7  UNL     1      23.068  -0.531  53.776  1.00  0.00     0.142 A 
HETATM    8  C12 UNL     1      24.404  -0.151  53.593  1.00  0.00     0.041 A 
HETATM    9  C13 UNL     1      24.887   0.545  52.497  1.00  0.00     0.055 A 
HETATM   10  C14 UNL     1      26.202   0.906  52.314  1.00  0.00     0.079 A 
ENDROOT
BRANCH  10  11
HETATM   11  O1  UNL     1      26.679   1.596  51.226  1.00  0.00    -0.350 OA
BRANCH  11  12
HETATM   12  C15 UNL     1      26.552   2.961  50.962  1.00  0.00     0.178 C 
BRANCH  12  13
HETATM   13  C16 UNL     1      25.364   3.213  50.046  1.00  0.00     0.054 C 
BRANCH  13  14
HETATM   14  C17 UNL     1      24.750   4.582  50.270  1.00  0.00     0.107 C 
HETATM   15  N4  UNL     1      24.611   4.787  51.690  1.00  0.00    -0.414 N 
HETATM   16  C18 UNL     1      23.260   4.891  52.141  1.00  0.00     0.114 C 
HETATM   17  H14 UNL     1      25.248   4.247  52.283  1.00  0.00     0.153 HD
HETATM   18  C19 UNL     1      22.369   3.802  51.554  1.00  0.00     0.022 C 
HETATM   19  C20 UNL     1      22.384   3.813  50.040  1.00  0.00     0.035 C 
HETATM   20  C21 UNL     1      23.463   4.735  49.526  1.00  0.00     0.140 C 
BRANCH  20  21
HETATM   21  O2  UNL     1      23.020   6.060  49.613  1.00  0.00    -0.394 OA
HETATM   22  H22 UNL     1      23.728   6.581  50.094  1.00  0.00     0.210 HD
ENDBRANCH  20  21
ENDBRANCH  13  14
ENDBRANCH  12  13
ENDBRANCH  11  12
ENDBRANCH  10  11
BRANCH   1  23
HETATM   23  C2  UNL     1      28.510   0.960  53.071  1.00  0.00    -0.012 C 
HETATM   24  C1  UNL     1      29.389   0.226  53.719  1.00  0.00     0.032 C 
ENDBRANCH   1  23
BRANCH   7  25
HETATM   25  N3  UNL     1      22.291  -0.104  52.732  1.00  0.00    -0.338 N 
HETATM   26  H6  UNL     1      22.949   0.728  52.464  1.00  0.00     0.167 HD
BRANCH  25  27
HETATM   27  C8  UNL     1      21.419   0.200  51.747  1.00  0.00     0.076 A 
HETATM   28  C9  UNL     1      20.934   0.501  50.607  1.00  0.00     0.164 A 
HETATM   29  F1  UNL     1      21.862   0.629  49.611  1.00  0.00    -0.202 F 
HETATM   30  C10 UNL     1      19.547   0.536  51.101  1.00  0.00     0.077 A 
HETATM   31 CL1  UNL     1      18.299   0.915  49.947  1.00  0.00    -0.081 Cl
HETATM   32  C11 UNL     1      20.025   0.226  52.284  1.00  0.00     0.059 A 
ENDBRANCH  25  27
ENDBRANCH   7  25
TORSDOF 8
ENDMDL
MODEL 6
REMARK VINA RESULT:      -7.7      3.222      6.763
REMARK  8 active torsions:
REMARK  status: ('A' for Active; 'I' for Inactive)
REMARK    1  A    between atoms: C2_2  and  C3_3 
REMARK    2  A    between atoms: C7_9  and  N3_10 
REMARK    3  A    between atoms: N3_10  and  C8_11 
REMARK    4  A    between atoms: C14_19  and  O1_20 
REMARK    5  A    between atoms: O1_20  and  C15_21 
REMARK    6  A    between atoms: C15_21  and  C16_22 
REMARK    7  A    between atoms: C16_22  and  C17_23 
REMARK    8  A    between atoms: C21_28  and  O2_29 
ROOT
HETATM    1  C3  UNL     1      26.286   4.865  49.124  1.00  0.00    -0.004 A 
HETATM    2  C4  UNL     1      25.330   5.709  48.616  1.00  0.00     0.046 A 
HETATM    3  C5  UNL     1      24.035   5.497  49.040  1.00  0.00     0.073 A 
HETATM    4  N1  UNL     1      23.087   6.313  48.575  1.00  0.00    -0.241 NA
HETATM    5  C6  UNL     1      21.798   6.234  48.906  1.00  0.00     0.236 A 
HETATM    6  N2  UNL     1      21.392   5.298  49.751  1.00  0.00    -0.224 NA
HETATM    7  C7  UNL     1      22.246   4.401  50.303  1.00  0.00     0.142 A 
HETATM    8  C12 UNL     1      23.587   4.531  49.921  1.00  0.00     0.041 A 
HETATM    9  C13 UNL     1      24.623   3.731  50.377  1.00  0.00     0.055 A 
HETATM   10  C14 UNL     1      25.941   3.870  50.008  1.00  0.00     0.079 A 
ENDROOT
BRANCH  10  11
HETATM   11  O1  UNL     1      26.966   3.075  50.463  1.00  0.00    -0.350 OA
BRANCH  11  12
HETATM   12  C15 UNL     1      27.126   2.542  51.743  1.00  0.00     0.178 C 
BRANCH  12  13
HETATM   13  C16 UNL     1      26.580   1.123  51.794  1.00  0.00     0.054 C 
BRANCH  13  14
HETATM   14  C17 UNL     1      26.315   0.664  53.215  1.00  0.00     0.107 C 
HETATM   15  N4  UNL     1      27.333   1.227  54.068  1.00  0.00    -0.414 N 
HETATM   16  C18 UNL     1      28.196   0.263  54.671  1.00  0.00     0.114 C 
HETATM   17  H14 UNL     1      27.777   2.084  53.726  1.00  0.00     0.153 HD
HETATM   18  C19 UNL     1      28.692  -0.776  53.671  1.00  0.00     0.022 C 
HETATM   19  C20 UNL     1      27.548  -1.498  52.991  1.00  0.00     0.035 C 
HETATM   20  C21 UNL     1      26.233  -0.826  53.305  1.00  0.00     0.140 C 
BRANCH  20  21
HETATM   21  O2  UNL     1      25.815  -1.200  54.587  1.00  0.00    -0.394 OA
HETATM   22  H22 UNL     1      26.076  -2.159  54.719  1.00  0.00     0.210 HD
ENDBRANCH  20  21
ENDBRANCH  13  14
ENDBRANCH  12  13
ENDBRANCH  11  12
ENDBRANCH  10  11
BRANCH   1  23
HETATM   23  C2  UNL     1      27.680   4.993  48.737  1.00  0.00    -0.012 C 
HETATM   24  C1  UNL     1      28.009   6.175  48.261  1.00  0.00     0.032 C 
ENDBRANCH   1  23
BRANCH   7  25
HETATM   25  N3  UNL     1      22.086   3.360  51.179  1.00  0.00    -0.338 N 
HETATM   26  H6  UNL     1      22.489   3.903  52.039  1.00  0.00     0.167 HD
BRANCH  25  27
HETATM   27  C8  UNL     1      21.877   2.247  51.914  1.00  0.00     0.076 A 
HETATM   28  C9  UNL     1      21.388   1.423  52.756  1.00  0.00     0.164 A 
HETATM   29  F1  UNL     1      20.319   1.902  53.462  1.00  0.00    -0.202 F 
HETATM   30  C10 UNL     1      22.361   0.367  52.430  1.00  0.00     0.077 A 
HETATM   31 CL1  UNL     1      22.223  -1.138  53.296  1.00  0.00    -0.081 Cl
HETATM   32  C11 UNL     1      22.880   1.199  51.557  1.00  0.00     0.059 A 
ENDBRANCH  25  27
ENDBRANCH   7  25
TORSDOF 8
ENDMDL
MODEL 7
REMARK VINA RESULT:      -7.5      3.043      5.429
REMARK  8 active torsions:
REMARK  status: ('A' for Active; 'I' for Inactive)
REMARK    1  A    between atoms: C2_2  and  C3_3 
REMARK    2  A    between atoms: C7_9  and  N3_10 
REMARK    3  A    between atoms: N3_10  and  C8_11 
REMARK    4  A    between atoms: C14_19  and  O1_20 
REMARK    5  A    between atoms: O1_20  and  C15_21 
REMARK    6  A    between atoms: C15_21  and  C16_22 
REMARK    7  A    between atoms: C16_22  and  C17_23 
REMARK    8  A    between atoms: C21_28  and  O2_29 
ROOT
HETATM    1  C3  UNL     1      25.709   3.068  50.969  1.00  0.00    -0.004 A 
HETATM    2  C4  UNL     1      26.732   2.310  51.483  1.00  0.00     0.046 A 
HETATM    3  C5  UNL     1      26.373   1.293  52.341  1.00  0.00     0.073 A 
HETATM    4  N1  UNL     1      27.346   0.530  52.844  1.00  0.00    -0.241 NA
HETATM    5  C6  UNL     1      27.146  -0.493  53.675  1.00  0.00     0.236 A 
HETATM    6  N2  UNL     1      25.914  -0.805  54.050  1.00  0.00    -0.224 NA
HETATM    7  C7  UNL     1      24.829  -0.116  53.617  1.00  0.00     0.142 A 
HETATM    8  C12 UNL     1      25.097   0.946  52.746  1.00  0.00     0.041 A 
HETATM    9  C13 UNL     1      24.137   1.766  52.176  1.00  0.00     0.055 A 
HETATM   10  C14 UNL     1      24.403   2.803  51.310  1.00  0.00     0.079 A 
ENDROOT
BRANCH  10  11
HETATM   11  O1  UNL     1      23.448   3.614  50.746  1.00  0.00    -0.350 OA
BRANCH  11  12
HETATM   12  C15 UNL     1      22.266   4.071  51.331  1.00  0.00     0.178 C 
BRANCH  12  13
HETATM   13  C16 UNL     1      21.189   4.249  50.273  1.00  0.00     0.054 C 
BRANCH  13  14
HETATM   14  C17 UNL     1      20.161   3.134  50.311  1.00  0.00     0.107 C 
HETATM   15  N4  UNL     1      20.672   2.078  51.150  1.00  0.00    -0.414 N 
HETATM   16  C18 UNL     1      20.934   0.853  50.464  1.00  0.00     0.114 C 
HETATM   17  H14 UNL     1      21.361   2.362  51.853  1.00  0.00     0.153 HD
HETATM   18  C19 UNL     1      21.697   1.071  49.162  1.00  0.00     0.022 C 
HETATM   19  C20 UNL     1      20.965   2.011  48.228  1.00  0.00     0.035 C 
HETATM   20  C21 UNL     1      19.805   2.668  48.936  1.00  0.00     0.140 C 
BRANCH  20  21
HETATM   21  O2  UNL     1      18.734   1.770  49.003  1.00  0.00    -0.394 OA
HETATM   22  H22 UNL     1      17.932   2.282  49.317  1.00  0.00     0.210 HD
ENDBRANCH  20  21
ENDBRANCH  13  14
ENDBRANCH  12  13
ENDBRANCH  11  12
ENDBRANCH  10  11
BRANCH   1  23
HETATM   23  C2  UNL     1      25.976   4.170  50.062  1.00  0.00    -0.012 C 
HETATM   24  C1  UNL     1      26.961   3.957  49.216  1.00  0.00     0.032 C 
ENDBRANCH   1  23
BRANCH   7  25
HETATM   25  N3  UNL     1      23.485  -0.231  53.850  1.00  0.00    -0.338 N 
HETATM   26  H6  UNL     1      23.539   0.143  54.878  1.00  0.00     0.167 HD
BRANCH  25  27
HETATM   27  C8  UNL     1      22.149  -0.409  53.932  1.00  0.00     0.076 A 
HETATM   28  C9  UNL     1      20.900  -0.183  54.060  1.00  0.00     0.164 A 
HETATM   29  F1  UNL     1      20.579   1.132  54.255  1.00  0.00    -0.202 F 
HETATM   30  C10 UNL     1      20.532  -1.601  53.912  1.00  0.00     0.077 A 
HETATM   31 CL1  UNL     1      18.837  -1.998  53.993  1.00  0.00    -0.081 Cl
HETATM   32  C11 UNL     1      21.813  -1.857  53.777  1.00  0.00     0.059 A 
ENDBRANCH  25  27
ENDBRANCH   7  25
TORSDOF 8
ENDMDL
MODEL 8
REMARK VINA RESULT:      -7.1      3.332      6.224
REMARK  8 active torsions:
REMARK  status: ('A' for Active; 'I' for Inactive)
REMARK    1  A    between atoms: C2_2  and  C3_3 
REMARK    2  A    between atoms: C7_9  and  N3_10 
REMARK    3  A    between atoms: N3_10  and  C8_11 
REMARK    4  A    between atoms: C14_19  and  O1_20 
REMARK    5  A    between atoms: O1_20  and  C15_21 
REMARK    6  A    between atoms: C15_21  and  C16_22 
REMARK    7  A    between atoms: C16_22  and  C17_23 
REMARK    8  A    between atoms: C21_28  and  O2_29 
ROOT
HETATM    1  C3  UNL     1      24.798   4.145  49.523  1.00  0.00    -0.004 A 
HETATM    2  C4  UNL     1      23.659   4.496  48.841  1.00  0.00     0.046 A 
HETATM    3  C5  UNL     1      22.474   3.974  49.313  1.00  0.00     0.073 A 
HETATM    4  N1  UNL     1      21.349   4.311  48.678  1.00  0.00    -0.241 NA
HETATM    5  C6  UNL     1      20.133   3.891  49.028  1.00  0.00     0.236 A 
HETATM    6  N2  UNL     1      19.991   3.086  50.070  1.00  0.00    -0.224 NA
HETATM    7  C7  UNL     1      21.046   2.663  50.809  1.00  0.00     0.142 A 
HETATM    8  C12 UNL     1      22.298   3.135  50.397  1.00  0.00     0.041 A 
HETATM    9  C13 UNL     1      23.501   2.839  51.018  1.00  0.00     0.055 A 
HETATM   10  C14 UNL     1      24.729   3.315  50.617  1.00  0.00     0.079 A 
ENDROOT
BRANCH  10  11
HETATM   11  O1  UNL     1      25.920   3.020  51.235  1.00  0.00    -0.350 OA
BRANCH  11  12
HETATM   12  C15 UNL     1      26.116   2.240  52.376  1.00  0.00     0.178 C 
BRANCH  12  13
HETATM   13  C16 UNL     1      27.579   1.837  52.494  1.00  0.00     0.054 C 
BRANCH  13  14
HETATM   14  C17 UNL     1      27.901   1.250  53.854  1.00  0.00     0.107 C 
HETATM   15  N4  UNL     1      29.321   1.008  53.917  1.00  0.00    -0.414 N 
HETATM   16  C18 UNL     1      29.681  -0.369  54.024  1.00  0.00     0.114 C 
HETATM   17  H14 UNL     1      29.899   1.582  53.295  1.00  0.00     0.153 HD
HETATM   18  C19 UNL     1      28.919  -1.245  53.035  1.00  0.00     0.022 C 
HETATM   19  C20 UNL     1      27.420  -1.115  53.202  1.00  0.00     0.035 C 
HETATM   20  C21 UNL     1      27.086   0.027  54.131  1.00  0.00     0.140 C 
BRANCH  20  21
HETATM   21  O2  UNL     1      27.280  -0.381  55.456  1.00  0.00    -0.394 OA
HETATM   22  H22 UNL     1      26.939  -1.320  55.533  1.00  0.00     0.210 HD
ENDBRANCH  20  21
ENDBRANCH  13  14
ENDBRANCH  12  13
ENDBRANCH  11  12
ENDBRANCH  10  11
BRANCH   1  23
HETATM   23  C2  UNL     1      26.101   4.632  49.106  1.00  0.00    -0.012 C 
HETATM   24  C1  UNL     1      26.173   5.936  48.948  1.00  0.00     0.032 C 
ENDBRANCH   1  23
BRANCH   7  25
HETATM   25  N3  UNL     1      21.166   1.848  51.903  1.00  0.00    -0.338 N 
HETATM   26  H6  UNL     1      21.549   2.636  52.560  1.00  0.00     0.167 HD
BRANCH  25  27
HETATM   27  C8  UNL     1      21.239   0.924  52.885  1.00  0.00     0.076 A 
HETATM   28  C9  UNL     1      21.091   0.326  54.002  1.00  0.00     0.164 A 
HETATM   29  F1  UNL     1      20.364   1.024  54.927  1.00  0.00    -0.202 F 
HETATM   30  C10 UNL     1      21.867  -0.853  53.581  1.00  0.00     0.077 A 
HETATM   31 CL1  UNL     1      22.052  -2.141  54.739  1.00  0.00    -0.081 Cl
HETATM   32  C11 UNL     1      22.030  -0.256  52.422  1.00  0.00     0.059 A 
ENDBRANCH  25  27
ENDBRANCH   7  25
TORSDOF 8
ENDMDL
MODEL 9
REMARK VINA RESULT:      -6.9      3.198      5.977
REMARK  8 active torsions:
REMARK  status: ('A' for Active; 'I' for Inactive)
REMARK    1  A    between atoms: C2_2  and  C3_3 
REMARK    2  A    between atoms: C7_9  and  N3_10 
REMARK    3  A    between atoms: N3_10  and  C8_11 
REMARK    4  A    between atoms: C14_19  and  O1_20 
REMARK    5  A    between atoms: O1_20  and  C15_21 
REMARK    6  A    between atoms: C15_21  and  C16_22 
REMARK    7  A    between atoms: C16_22  and  C17_23 
REMARK    8  A    between atoms: C21_28  and  O2_29 
ROOT
HETATM    1  C3  UNL     1      22.587   0.123  53.447  1.00  0.00    -0.004 A 
HETATM    2  C4  UNL     1      23.797  -0.479  53.691  1.00  0.00     0.046 A 
HETATM    3  C5  UNL     1      24.907   0.129  53.144  1.00  0.00     0.073 A 
HETATM    4  N1  UNL     1      26.098  -0.426  53.379  1.00  0.00    -0.241 NA
HETATM    5  C6  UNL     1      27.255   0.057  52.924  1.00  0.00     0.236 A 
HETATM    6  N2  UNL     1      27.264   1.158  52.188  1.00  0.00    -0.224 NA
HETATM    7  C7  UNL     1      26.128   1.828  51.872  1.00  0.00     0.142 A 
HETATM    8  C12 UNL     1      24.943   1.277  52.376  1.00  0.00     0.041 A 
HETATM    9  C13 UNL     1      23.678   1.808  52.186  1.00  0.00     0.055 A 
HETATM   10  C14 UNL     1      22.517   1.271  52.694  1.00  0.00     0.079 A 
ENDROOT
BRANCH  10  11
HETATM   11  O1  UNL     1      21.263   1.800  52.504  1.00  0.00    -0.350 OA
BRANCH  11  12
HETATM   12  C15 UNL     1      20.862   2.705  51.520  1.00  0.00     0.178 C 
BRANCH  12  13
HETATM   13  C16 UNL     1      19.697   2.136  50.724  1.00  0.00     0.054 C 
BRANCH  13  14
HETATM   14  C17 UNL     1      18.500   1.831  51.604  1.00  0.00     0.107 C 
HETATM   15  N4  UNL     1      18.564   0.443  51.989  1.00  0.00    -0.414 N 
HETATM   16  C18 UNL     1      17.499  -0.360  51.479  1.00  0.00     0.114 C 
HETATM   17  H14 UNL     1      19.497   0.020  51.978  1.00  0.00     0.153 HD
HETATM   18  C19 UNL     1      17.244  -0.111  49.996  1.00  0.00     0.022 C 
HETATM   19  C20 UNL     1      16.942   1.345  49.711  1.00  0.00     0.035 C 
HETATM   20  C21 UNL     1      17.216   2.193  50.930  1.00  0.00     0.140 C 
BRANCH  20  21
HETATM   21  O2  UNL     1      16.154   2.065  51.832  1.00  0.00    -0.394 OA
HETATM   22  H22 UNL     1      15.983   2.971  52.225  1.00  0.00     0.210 HD
ENDBRANCH  20  21
ENDBRANCH  13  14
ENDBRANCH  12  13
ENDBRANCH  11  12
ENDBRANCH  10  11
BRANCH   1  23
HETATM   23  C2  UNL     1      21.353  -0.438  53.969  1.00  0.00    -0.012 C 
HETATM   24  C1  UNL     1      21.488  -1.610  54.551  1.00  0.00     0.032 C 
ENDBRANCH   1  23
BRANCH   7  25
HETATM   25  N3  UNL     1      25.870   2.959  51.144  1.00  0.00    -0.338 N 
HETATM   26  H6  UNL     1      24.874   2.637  50.825  1.00  0.00     0.167 HD
BRANCH  25  27
HETATM   27  C8  UNL     1      25.768   4.121  50.463  1.00  0.00     0.076 A 
HETATM   28  C9  UNL     1      25.383   5.277  50.088  1.00  0.00     0.164 A 
HETATM   29  F1  UNL     1      24.361   5.803  50.829  1.00  0.00    -0.202 F 
HETATM   30  C10 UNL     1      26.356   5.347  48.984  1.00  0.00     0.077 A 
HETATM   31 CL1  UNL     1      26.351   6.789  48.008  1.00  0.00    -0.081 Cl
HETATM   32  C11 UNL     1      26.768   4.156  49.354  1.00  0.00     0.059 A 
ENDBRANCH  25  27
ENDBRANCH   7  25
TORSDOF 8
ENDMDL
