MODEL 1
REMARK VINA RESULT:      -8.8      0.000      0.000
REMARK  5 active torsions:
REMARK  status: ('A' for Active; 'I' for Inactive)
REMARK    1  A    between atoms: C2_2  and  C3_3 
REMARK       I    between atoms: C3_3  and  N1_5 
REMARK    2  A    between atoms: N1_5  and  C4_6 
REMARK    3  A    between atoms: C7_9  and  N2_10 
REMARK    4  A    between atoms: N2_10  and  C8_11 
REMARK    5  A    between atoms: C19_26  and  O3_27 
ROOT
HETATM    1  C4  UNL     1      24.258   3.436  50.226  1.00  0.00     0.069 A 
HETATM    2  C5  UNL     1      24.354   2.657  51.358  1.00  0.00     0.048 A 
HETATM    3  C6  UNL     1      23.354   1.753  51.556  1.00  0.00     0.023 A 
HETATM    4  C7  UNL     1      23.382   0.930  52.677  1.00  0.00     0.067 A 
HETATM    5  C14 UNL     1      22.364   0.017  52.869  1.00  0.00     0.089 A 
HETATM    6  C15 UNL     1      22.323  -0.878  54.014  1.00  0.00     0.103 C 
HETATM    7  N3  UNL     1      22.277  -1.568  54.920  1.00  0.00    -0.191 NA
HETATM    8  C16 UNL     1      21.302  -0.108  51.972  1.00  0.00     0.142 A 
HETATM    9  N4  UNL     1      21.309   0.699  50.907  1.00  0.00    -0.259 NA
HETATM   10  C17 UNL     1      22.285   1.592  50.701  1.00  0.00     0.071 A 
HETATM   11  C18 UNL     1      22.233   2.392  49.587  1.00  0.00     0.071 A 
HETATM   12  C19 UNL     1      23.209   3.343  49.301  1.00  0.00     0.097 A 
ENDROOT
BRANCH   4  13
HETATM   13  N2  UNL     1      24.436   1.020  53.610  1.00  0.00    -0.356 N 
HETATM   14  H6  UNL     1      24.221   1.552  54.499  1.00  0.00     0.166 HD
BRANCH  13  15
HETATM   15  C8  UNL     1      25.790   0.544  53.643  1.00  0.00     0.035 A 
HETATM   16  C9  UNL     1      26.793   1.387  53.907  1.00  0.00     0.049 A 
HETATM   17  C10 UNL     1      28.125   0.807  53.918  1.00  0.00     0.041 A 
HETATM   18 BR1  UNL     1      29.542   2.037  54.293  1.00  0.00    -0.048 Br
HETATM   19  C11 UNL     1      28.353  -0.490  53.681  1.00  0.00     0.060 A 
HETATM   20  C12 UNL     1      29.794  -0.878  53.739  1.00  0.00     0.077 C 
HETATM   21  O2  UNL     1      27.284  -1.339  53.412  1.00  0.00    -0.349 OA
HETATM   22  C13 UNL     1      25.954  -0.922  53.354  1.00  0.00     0.232 A 
ENDBRANCH  13  15
ENDBRANCH   4  13
BRANCH   1  23
HETATM   23  N1  UNL     1      25.228   4.443  49.858  1.00  0.00    -0.321 N 
HETATM   24  C3  UNL     1      26.431   3.852  49.377  1.00  0.00     0.245 C 
HETATM   25  O1  UNL     1      26.354   2.600  49.394  1.00  0.00    -0.268 OA
HETATM   26  H4  UNL     1      25.170   5.489  49.895  1.00  0.00     0.169 HD
BRANCH  24  27
HETATM   27  C2  UNL     1      27.506   4.743  48.962  1.00  0.00     0.064 C 
HETATM   28  C1  UNL     1      27.169   5.931  48.518  1.00  0.00     0.017 C 
ENDBRANCH  24  27
ENDBRANCH   1  23
BRANCH  12  29
HETATM   29  O3  UNL     1      23.134   4.141  48.167  1.00  0.00    -0.354 OA
HETATM   30  C20 UNL     1      21.983   4.031  47.356  1.00  0.00     0.210 C 
ENDBRANCH  12  29
TORSDOF 5
ENDMDL
MODEL 2
REMARK VINA RESULT:      -8.5      2.415      6.206
REMARK  5 active torsions:
REMARK  status: ('A' for Active; 'I' for Inactive)
REMARK    1  A    between atoms: C2_2  and  C3_3 
REMARK       I    between atoms: C3_3  and  N1_5 
REMARK    2  A    between atoms: N1_5  and  C4_6 
REMARK    3  A    between atoms: C7_9  and  N2_10 
REMARK    4  A    between atoms: N2_10  and  C8_11 
REMARK    5  A    between atoms: C19_26  and  O3_27 
ROOT
HETATM    1  C4  UNL     1      25.713   0.393  52.801  1.00  0.00     0.069 A 
HETATM    2  C5  UNL     1      25.194   1.255  51.859  1.00  0.00     0.048 A 
HETATM    3  C6  UNL     1      23.837   1.368  51.826  1.00  0.00     0.023 A 
HETATM    4  C7  UNL     1      23.240   2.219  50.902  1.00  0.00     0.067 A 
HETATM    5  C14 UNL     1      21.864   2.328  50.876  1.00  0.00     0.089 A 
HETATM    6  C15 UNL     1      21.166   3.195  49.942  1.00  0.00     0.103 C 
HETATM    7  N3  UNL     1      20.614   3.861  49.198  1.00  0.00    -0.191 NA
HETATM    8  C16 UNL     1      21.048   1.609  51.750  1.00  0.00     0.142 A 
HETATM    9  N4  UNL     1      21.656   0.802  52.624  1.00  0.00    -0.259 NA
HETATM   10  C17 UNL     1      22.989   0.680  52.667  1.00  0.00     0.071 A 
HETATM   11  C18 UNL     1      23.552  -0.166  53.588  1.00  0.00     0.071 A 
HETATM   12  C19 UNL     1      24.929  -0.347  53.697  1.00  0.00     0.097 A 
ENDROOT
BRANCH   4  13
HETATM   13  N2  UNL     1      24.025   2.966  49.999  1.00  0.00    -0.356 N 
HETATM   14  H6  UNL     1      24.257   2.488  49.085  1.00  0.00     0.166 HD
BRANCH  13  15
HETATM   15  C8  UNL     1      24.611   4.277  50.027  1.00  0.00     0.035 A 
HETATM   16  C9  UNL     1      25.670   4.556  49.259  1.00  0.00     0.049 A 
HETATM   17  C10 UNL     1      26.188   5.910  49.359  1.00  0.00     0.041 A 
HETATM   18 BR1  UNL     1      27.706   6.279  48.254  1.00  0.00    -0.048 Br
HETATM   19  C11 UNL     1      25.651   6.834  50.163  1.00  0.00     0.060 A 
HETATM   20  C12 UNL     1      26.337   8.160  50.114  1.00  0.00     0.077 C 
HETATM   21  O2  UNL     1      24.548   6.509  50.945  1.00  0.00    -0.349 OA
HETATM   22  C13 UNL     1      23.952   5.247  50.965  1.00  0.00     0.232 A 
ENDBRANCH  13  15
ENDBRANCH   4  13
BRANCH   1  23
HETATM   23  N1  UNL     1      27.127   0.151  52.978  1.00  0.00    -0.321 N 
HETATM   24  C3  UNL     1      27.724   1.146  53.804  1.00  0.00     0.245 C 
HETATM   25  O1  UNL     1      26.874   1.992  54.173  1.00  0.00    -0.268 OA
HETATM   26  H4  UNL     1      27.738  -0.613  52.602  1.00  0.00     0.169 HD
BRANCH  24  27
HETATM   27  C2  UNL     1      29.150   1.034  54.077  1.00  0.00     0.064 C 
HETATM   28  C1  UNL     1      29.757  -0.061  53.685  1.00  0.00     0.017 C 
ENDBRANCH  24  27
ENDBRANCH   1  23
BRANCH  12  29
HETATM   29  O3  UNL     1      25.475  -1.210  54.638  1.00  0.00    -0.354 OA
HETATM   30  C20 UNL     1      25.203  -0.960  56.001  1.00  0.00     0.210 C 
ENDBRANCH  12  29
TORSDOF 5
ENDMDL
MODEL 3
REMARK VINA RESULT:      -8.3      2.123      2.271
REMARK  5 active torsions:
REMARK  status: ('A' for Active; 'I' for Inactive)
REMARK    1  A    between atoms: C2_2  and  C3_3 
REMARK       I    between atoms: C3_3  and  N1_5 
REMARK    2  A    between atoms: N1_5  and  C4_6 
REMARK    3  A    between atoms: C7_9  and  N2_10 
REMARK    4  A    between atoms: N2_10  and  C8_11 
REMARK    5  A    between atoms: C19_26  and  O3_27 
ROOT
HETATM    1  C4  UNL     1      24.146   5.004  51.123  1.00  0.00     0.069 A 
HETATM    2  C5  UNL     1      24.073   3.665  51.441  1.00  0.00     0.048 A 
HETATM    3  C6  UNL     1      22.870   3.218  51.897  1.00  0.00     0.023 A 
HETATM    4  C7  UNL     1      22.720   1.877  52.238  1.00  0.00     0.067 A 
HETATM    5  C14 UNL     1      21.497   1.432  52.699  1.00  0.00     0.089 A 
HETATM    6  C15 UNL     1      21.260   0.048  53.075  1.00  0.00     0.103 C 
HETATM    7  N3  UNL     1      21.076  -1.033  53.388  1.00  0.00    -0.191 NA
HETATM    8  C16 UNL     1      20.401   2.286  52.836  1.00  0.00     0.142 A 
HETATM    9  N4  UNL     1      20.583   3.566  52.499  1.00  0.00    -0.259 NA
HETATM   10  C17 UNL     1      21.760   4.020  52.050  1.00  0.00     0.071 A 
HETATM   11  C18 UNL     1      21.882   5.346  51.721  1.00  0.00     0.071 A 
HETATM   12  C19 UNL     1      23.070   5.895  51.246  1.00  0.00     0.097 A 
ENDROOT
BRANCH   4  13
HETATM   13  N2  UNL     1      23.799   0.977  52.116  1.00  0.00    -0.356 N 
HETATM   14  H6  UNL     1      23.764   0.326  51.283  1.00  0.00     0.166 HD
BRANCH  13  15
HETATM   15  C8  UNL     1      24.985   0.723  52.885  1.00  0.00     0.035 A 
HETATM   16  C9  UNL     1      26.021   1.565  52.820  1.00  0.00     0.049 A 
HETATM   17  C10 UNL     1      27.173   1.220  53.636  1.00  0.00     0.041 A 
HETATM   18 BR1  UNL     1      28.643   2.439  53.519  1.00  0.00    -0.048 Br
HETATM   19  C11 UNL     1      27.210   0.131  54.412  1.00  0.00     0.060 A 
HETATM   20  C12 UNL     1      28.489  -0.037  55.167  1.00  0.00     0.077 C 
HETATM   21  O2  UNL     1      26.112  -0.721  54.457  1.00  0.00    -0.349 OA
HETATM   22  C13 UNL     1      24.945  -0.526  53.718  1.00  0.00     0.232 A 
ENDBRANCH  13  15
ENDBRANCH   4  13
BRANCH   1  23
HETATM   23  N1  UNL     1      25.339   5.649  50.625  1.00  0.00    -0.321 N 
HETATM   24  C3  UNL     1      25.473   5.475  49.217  1.00  0.00     0.245 C 
HETATM   25  O1  UNL     1      24.522   4.801  48.756  1.00  0.00    -0.268 OA
HETATM   26  H4  UNL     1      26.079   6.196  51.129  1.00  0.00     0.169 HD
BRANCH  24  27
HETATM   27  C2  UNL     1      26.631   6.074  48.567  1.00  0.00     0.064 C 
HETATM   28  C1  UNL     1      27.734   5.364  48.522  1.00  0.00     0.017 C 
ENDBRANCH  24  27
ENDBRANCH   1  23
BRANCH  12  29
HETATM   29  O3  UNL     1      23.169   7.241  50.919  1.00  0.00    -0.354 OA
HETATM   30  C20 UNL     1      22.143   7.807  50.131  1.00  0.00     0.210 C 
ENDBRANCH  12  29
TORSDOF 5
ENDMDL
MODEL 4
REMARK VINA RESULT:      -8.3      3.099      5.923
REMARK  5 active torsions:
REMARK  status: ('A' for Active; 'I' for Inactive)
REMARK    1  A    between atoms: C2_2  and  C3_3 
REMARK       I    between atoms: C3_3  and  N1_5 
REMARK    2  A    between atoms: N1_5  and  C4_6 
REMARK    3  A    between atoms: C7_9  and  N2_10 
REMARK    4  A    between atoms: N2_10  and  C8_11 
REMARK    5  A    between atoms: C19_26  and  O3_27 
ROOT
HETATM    1  C4  UNL     1      26.073   1.803  51.704  1.00  0.00     0.069 A 
HETATM    2  C5  UNL     1      24.821   1.234  51.790  1.00  0.00     0.048 A 
HETATM    3  C6  UNL     1      24.572   0.487  52.902  1.00  0.00     0.023 A 
HETATM    4  C7  UNL     1      23.329  -0.118  53.059  1.00  0.00     0.067 A 
HETATM    5  C14 UNL     1      23.085  -0.873  54.190  1.00  0.00     0.089 A 
HETATM    6  C15 UNL     1      21.814  -1.536  54.428  1.00  0.00     0.103 C 
HETATM    7  N3  UNL     1      20.824  -2.073  54.608  1.00  0.00    -0.191 NA
HETATM    8  C16 UNL     1      24.049  -1.050  55.184  1.00  0.00     0.142 A 
HETATM    9  N4  UNL     1      25.230  -0.453  54.999  1.00  0.00    -0.259 NA
HETATM   10  C17 UNL     1      25.489   0.283  53.910  1.00  0.00     0.071 A 
HETATM   11  C18 UNL     1      26.722   0.869  53.780  1.00  0.00     0.071 A 
HETATM   12  C19 UNL     1      27.068   1.650  52.679  1.00  0.00     0.097 A 
ENDROOT
BRANCH   4  13
HETATM   13  N2  UNL     1      22.325   0.034  52.080  1.00  0.00    -0.356 N 
HETATM   14  H6  UNL     1      22.240  -0.755  51.381  1.00  0.00     0.166 HD
BRANCH  13  15
HETATM   15  C8  UNL     1      21.350   1.047  51.794  1.00  0.00     0.035 A 
HETATM   16  C9  UNL     1      21.041   1.344  50.527  1.00  0.00     0.049 A 
HETATM   17  C10 UNL     1      20.042   2.383  50.343  1.00  0.00     0.041 A 
HETATM   18 BR1  UNL     1      19.625   2.791  48.521  1.00  0.00    -0.048 Br
HETATM   19  C11 UNL     1      19.456   3.013  51.366  1.00  0.00     0.060 A 
HETATM   20  C12 UNL     1      18.459   4.048  50.956  1.00  0.00     0.077 C 
HETATM   21  O2  UNL     1      19.799   2.677  52.671  1.00  0.00    -0.349 OA
HETATM   22  C13 UNL     1      20.750   1.711  53.001  1.00  0.00     0.232 A 
ENDBRANCH  13  15
ENDBRANCH   4  13
BRANCH   1  23
HETATM   23  N1  UNL     1      26.509   2.625  50.598  1.00  0.00    -0.321 N 
HETATM   24  C3  UNL     1      25.747   3.825  50.513  1.00  0.00     0.245 C 
HETATM   25  O1  UNL     1      24.881   3.872  51.419  1.00  0.00    -0.268 OA
HETATM   26  H4  UNL     1      27.266   2.467  49.890  1.00  0.00     0.169 HD
BRANCH  24  27
HETATM   27  C2  UNL     1      26.073   4.761  49.445  1.00  0.00     0.064 C 
HETATM   28  C1  UNL     1      27.235   4.620  48.851  1.00  0.00     0.017 C 
ENDBRANCH  24  27
ENDBRANCH   1  23
BRANCH  12  29
HETATM   29  O3  UNL     1      28.323   2.233  52.570  1.00  0.00    -0.354 OA
HETATM   30  C20 UNL     1      29.073   2.416  53.752  1.00  0.00     0.210 C 
ENDBRANCH  12  29
TORSDOF 5
ENDMDL
MODEL 5
REMARK VINA RESULT:      -8.0      3.234      6.249
REMARK  5 active torsions:
REMARK  status: ('A' for Active; 'I' for Inactive)
REMARK    1  A    between atoms: C2_2  and  C3_3 
REMARK       I    between atoms: C3_3  and  N1_5 
REMARK    2  A    between atoms: N1_5  and  C4_6 
REMARK    3  A    between atoms: C7_9  and  N2_10 
REMARK    4  A    between atoms: N2_10  and  C8_11 
REMARK    5  A    between atoms: C19_26  and  O3_27 
ROOT
HETATM    1  C4  UNL     1      20.356   0.083  52.309  1.00  0.00     0.069 A 
HETATM    2  C5  UNL     1      21.711   0.334  52.275  1.00  0.00     0.048 A 
HETATM    3  C6  UNL     1      22.449  -0.198  53.288  1.00  0.00     0.023 A 
HETATM    4  C7  UNL     1      23.824   0.011  53.321  1.00  0.00     0.067 A 
HETATM    5  C14 UNL     1      24.565  -0.532  54.352  1.00  0.00     0.089 A 
HETATM    6  C15 UNL     1      26.004  -0.359  54.457  1.00  0.00     0.103 C 
HETATM    7  N3  UNL     1      27.130  -0.209  54.552  1.00  0.00    -0.191 NA
HETATM    8  C16 UNL     1      23.977  -1.288  55.368  1.00  0.00     0.142 A 
HETATM    9  N4  UNL     1      22.654  -1.468  55.303  1.00  0.00    -0.259 NA
HETATM   10  C17 UNL     1      21.916  -0.951  54.313  1.00  0.00     0.071 A 
HETATM   11  C18 UNL     1      20.562  -1.172  54.304  1.00  0.00     0.071 A 
HETATM   12  C19 UNL     1      19.727  -0.670  53.310  1.00  0.00     0.097 A 
ENDROOT
BRANCH   4  13
HETATM   13  N2  UNL     1      24.461   0.768  52.316  1.00  0.00    -0.356 N 
HETATM   14  H6  UNL     1      25.084   0.225  51.655  1.00  0.00     0.166 HD
BRANCH  13  15
HETATM   15  C8  UNL     1      24.468   2.159  51.960  1.00  0.00     0.035 A 
HETATM   16  C9  UNL     1      25.230   2.591  50.950  1.00  0.00     0.049 A 
HETATM   17  C10 UNL     1      25.166   4.015  50.669  1.00  0.00     0.041 A 
HETATM   18 BR1  UNL     1      26.270   4.606  49.223  1.00  0.00    -0.048 Br
HETATM   19  C11 UNL     1      24.396   4.857  51.367  1.00  0.00     0.060 A 
HETATM   20  C12 UNL     1      24.479   6.279  50.915  1.00  0.00     0.077 C 
HETATM   21  O2  UNL     1      23.614   4.372  52.410  1.00  0.00    -0.349 OA
HETATM   22  C13 UNL     1      23.584   3.034  52.803  1.00  0.00     0.232 A 
ENDBRANCH  13  15
ENDBRANCH   4  13
BRANCH   1  23
HETATM   23  N1  UNL     1      19.423   0.567  51.317  1.00  0.00    -0.321 N 
HETATM   24  C3  UNL     1      19.079   1.929  51.549  1.00  0.00     0.245 C 
HETATM   25  O1  UNL     1      19.669   2.375  52.563  1.00  0.00    -0.268 OA
HETATM   26  H4  UNL     1      18.990   0.080  50.496  1.00  0.00     0.169 HD
BRANCH  24  27
HETATM   27  C2  UNL     1      18.146   2.560  50.625  1.00  0.00     0.064 C 
HETATM   28  C1  UNL     1      17.462   1.775  49.827  1.00  0.00     0.017 C 
ENDBRANCH  24  27
ENDBRANCH   1  23
BRANCH  12  29
HETATM   29  O3  UNL     1      18.359  -0.908  53.323  1.00  0.00    -0.354 OA
HETATM   30  C20 UNL     1      17.919  -2.220  53.603  1.00  0.00     0.210 C 
ENDBRANCH  12  29
TORSDOF 5
ENDMDL
MODEL 6
REMARK VINA RESULT:      -7.7      3.260      7.675
REMARK  5 active torsions:
REMARK  status: ('A' for Active; 'I' for Inactive)
REMARK    1  A    between atoms: C2_2  and  C3_3 
REMARK       I    between atoms: C3_3  and  N1_5 
REMARK    2  A    between atoms: N1_5  and  C4_6 
REMARK    3  A    between atoms: C7_9  and  N2_10 
REMARK    4  A    between atoms: N2_10  and  C8_11 
REMARK    5  A    between atoms: C19_26  and  O3_27 
ROOT
HETATM    1  C4  UNL     1      24.531   0.422  53.242  1.00  0.00     0.069 A 
HETATM    2  C5  UNL     1      24.049   1.617  52.753  1.00  0.00     0.048 A 
HETATM    3  C6  UNL     1      24.853   2.278  51.873  1.00  0.00     0.023 A 
HETATM    4  C7  UNL     1      24.433   3.490  51.336  1.00  0.00     0.067 A 
HETATM    5  C14 UNL     1      25.254   4.153  50.445  1.00  0.00     0.089 A 
HETATM    6  C15 UNL     1      24.888   5.423  49.841  1.00  0.00     0.103 C 
HETATM    7  N3  UNL     1      24.612   6.428  49.379  1.00  0.00    -0.191 NA
HETATM    8  C16 UNL     1      26.497   3.645  50.064  1.00  0.00     0.142 A 
HETATM    9  N4  UNL     1      26.866   2.478  50.600  1.00  0.00    -0.259 NA
HETATM   10  C17 UNL     1      26.087   1.817  51.466  1.00  0.00     0.071 A 
HETATM   11  C18 UNL     1      26.524   0.624  51.981  1.00  0.00     0.071 A 
HETATM   12  C19 UNL     1      25.772  -0.123  52.885  1.00  0.00     0.097 A 
ENDROOT
BRANCH   4  13
HETATM   13  N2  UNL     1      23.185   4.042  51.692  1.00  0.00    -0.356 N 
HETATM   14  H6  UNL     1      23.212   4.821  52.407  1.00  0.00     0.166 HD
BRANCH  13  15
HETATM   15  C8  UNL     1      21.828   3.788  51.299  1.00  0.00     0.035 A 
HETATM   16  C9  UNL     1      21.516   3.658  50.005  1.00  0.00     0.049 A 
HETATM   17  C10 UNL     1      20.116   3.402  49.711  1.00  0.00     0.041 A 
HETATM   18 BR1  UNL     1      19.698   3.226  47.852  1.00  0.00    -0.048 Br
HETATM   19  C11 UNL     1      19.184   3.297  50.664  1.00  0.00     0.060 A 
HETATM   20  C12 UNL     1      17.807   3.033  50.145  1.00  0.00     0.077 C 
HETATM   21  O2  UNL     1      19.544   3.436  52.000  1.00  0.00    -0.349 OA
HETATM   22  C13 UNL     1      20.845   3.698  52.431  1.00  0.00     0.232 A 
ENDBRANCH  13  15
ENDBRANCH   4  13
BRANCH   1  23
HETATM   23  N1  UNL     1      23.814  -0.411  54.180  1.00  0.00    -0.321 N 
HETATM   24  C3  UNL     1      22.595  -0.890  53.621  1.00  0.00     0.245 C 
HETATM   25  O1  UNL     1      22.441  -0.468  52.450  1.00  0.00    -0.268 OA
HETATM   26  H4  UNL     1      24.054  -0.694  55.161  1.00  0.00     0.169 HD
BRANCH  24  27
HETATM   27  C2  UNL     1      21.760  -1.749  54.451  1.00  0.00     0.064 C 
HETATM   28  C1  UNL     1      20.461  -1.674  54.283  1.00  0.00     0.017 C 
ENDBRANCH  24  27
ENDBRANCH   1  23
BRANCH  12  29
HETATM   29  O3  UNL     1      26.237  -1.329  53.393  1.00  0.00    -0.354 OA
HETATM   30  C20 UNL     1      27.110  -2.093  52.588  1.00  0.00     0.210 C 
ENDBRANCH  12  29
TORSDOF 5
ENDMDL
MODEL 7
REMARK VINA RESULT:      -7.7      5.501      9.806
REMARK  5 active torsions:
REMARK  status: ('A' for Active; 'I' for Inactive)
REMARK    1  A    between atoms: C2_2  and  C3_3 
REMARK       I    between atoms: C3_3  and  N1_5 
REMARK    2  A    between atoms: N1_5  and  C4_6 
REMARK    3  A    between atoms: C7_9  and  N2_10 
REMARK    4  A    between atoms: N2_10  and  C8_11 
REMARK    5  A    between atoms: C19_26  and  O3_27 
ROOT
HETATM    1  C4  UNL     1      32.048   6.319  47.125  1.00  0.00     0.069 A 
HETATM    2  C5  UNL     1      30.715   6.611  47.314  1.00  0.00     0.048 A 
HETATM    3  C6  UNL     1      30.439   7.778  47.960  1.00  0.00     0.023 A 
HETATM    4  C7  UNL     1      29.115   8.142  48.187  1.00  0.00     0.067 A 
HETATM    5  C14 UNL     1      28.844   9.327  48.842  1.00  0.00     0.089 A 
HETATM    6  C15 UNL     1      27.490   9.777  49.116  1.00  0.00     0.103 C 
HETATM    7  N3  UNL     1      26.429  10.123  49.349  1.00  0.00    -0.191 NA
HETATM    8  C16 UNL     1      29.859  10.176  49.287  1.00  0.00     0.142 A 
HETATM    9  N4  UNL     1      31.117   9.794  49.051  1.00  0.00    -0.259 NA
HETATM   10  C17 UNL     1      31.404   8.649  48.418  1.00  0.00     0.071 A 
HETATM   11  C18 UNL     1      32.717   8.314  48.207  1.00  0.00     0.071 A 
HETATM   12  C19 UNL     1      33.097   7.143  47.556  1.00  0.00     0.097 A 
ENDROOT
BRANCH   4  13
HETATM   13  N2  UNL     1      28.057   7.316  47.754  1.00  0.00    -0.356 N 
HETATM   14  H6  UNL     1      27.725   7.473  46.762  1.00  0.00     0.166 HD
BRANCH  13  15
HETATM   15  C8  UNL     1      27.289   6.268  48.365  1.00  0.00     0.035 A 
HETATM   16  C9  UNL     1      26.016   6.483  48.713  1.00  0.00     0.049 A 
HETATM   17  C10 UNL     1      25.325   5.360  49.323  1.00  0.00     0.041 A 
HETATM   18 BR1  UNL     1      23.507   5.698  49.815  1.00  0.00    -0.048 Br
HETATM   19  C11 UNL     1      25.910   4.176  49.531  1.00  0.00     0.060 A 
HETATM   20  C12 UNL     1      25.023   3.159  50.172  1.00  0.00     0.077 C 
HETATM   21  O2  UNL     1      27.236   3.987  49.154  1.00  0.00    -0.349 OA
HETATM   22  C13 UNL     1      28.028   4.977  48.572  1.00  0.00     0.232 A 
ENDBRANCH  13  15
ENDBRANCH   4  13
BRANCH   1  23
HETATM   23  N1  UNL     1      32.524   5.127  46.459  1.00  0.00    -0.321 N 
HETATM   24  C3  UNL     1      32.538   4.010  47.343  1.00  0.00     0.245 C 
HETATM   25  O1  UNL     1      32.136   4.337  48.486  1.00  0.00    -0.268 OA
HETATM   26  H4  UNL     1      32.842   4.980  45.471  1.00  0.00     0.169 HD
BRANCH  24  27
HETATM   27  C2  UNL     1      32.992   2.732  46.813  1.00  0.00     0.064 C 
HETATM   28  C1  UNL     1      32.093   1.788  46.659  1.00  0.00     0.017 C 
ENDBRANCH  24  27
ENDBRANCH   1  23
BRANCH  12  29
HETATM   29  O3  UNL     1      34.433   6.825  47.354  1.00  0.00    -0.354 OA
HETATM   30  C20 UNL     1      35.216   6.511  48.487  1.00  0.00     0.210 C 
ENDBRANCH  12  29
TORSDOF 5
ENDMDL
MODEL 8
REMARK VINA RESULT:      -7.5      2.764      5.677
REMARK  5 active torsions:
REMARK  status: ('A' for Active; 'I' for Inactive)
REMARK    1  A    between atoms: C2_2  and  C3_3 
REMARK       I    between atoms: C3_3  and  N1_5 
REMARK    2  A    between atoms: N1_5  and  C4_6 
REMARK    3  A    between atoms: C7_9  and  N2_10 
REMARK    4  A    between atoms: N2_10  and  C8_11 
REMARK    5  A    between atoms: C19_26  and  O3_27 
ROOT
HETATM    1  C4  UNL     1      26.049   2.604  51.552  1.00  0.00     0.069 A 
HETATM    2  C5  UNL     1      24.683   2.520  51.386  1.00  0.00     0.048 A 
HETATM    3  C6  UNL     1      24.059   1.494  52.028  1.00  0.00     0.023 A 
HETATM    4  C7  UNL     1      22.681   1.345  51.908  1.00  0.00     0.067 A 
HETATM    5  C14 UNL     1      22.056   0.302  52.563  1.00  0.00     0.089 A 
HETATM    6  C15 UNL     1      20.622   0.079  52.488  1.00  0.00     0.103 C 
HETATM    7  N3  UNL     1      19.500  -0.110  52.416  1.00  0.00    -0.191 NA
HETATM    8  C16 UNL     1      22.764  -0.612  53.345  1.00  0.00     0.142 A 
HETATM    9  N4  UNL     1      24.086  -0.436  53.438  1.00  0.00    -0.259 NA
HETATM   10  C17 UNL     1      24.713   0.567  52.811  1.00  0.00     0.071 A 
HETATM   11  C18 UNL     1      26.073   0.692  52.946  1.00  0.00     0.071 A 
HETATM   12  C19 UNL     1      26.797   1.708  52.328  1.00  0.00     0.097 A 
ENDROOT
BRANCH   4  13
HETATM   13  N2  UNL     1      21.924   2.245  51.129  1.00  0.00    -0.356 N 
HETATM   14  H6  UNL     1      21.093   1.830  50.623  1.00  0.00     0.166 HD
BRANCH  13  15
HETATM   15  C8  UNL     1      22.018   3.649  50.845  1.00  0.00     0.035 A 
HETATM   16  C9  UNL     1      22.417   4.066  49.640  1.00  0.00     0.049 A 
HETATM   17  C10 UNL     1      22.478   5.505  49.452  1.00  0.00     0.041 A 
HETATM   18 BR1  UNL     1      23.058   6.073  47.720  1.00  0.00    -0.048 Br
HETATM   19  C11 UNL     1      22.156   6.375  50.415  1.00  0.00     0.060 A 
HETATM   20  C12 UNL     1      22.289   7.808  50.015  1.00  0.00     0.077 C 
HETATM   21  O2  UNL     1      21.742   5.906  51.657  1.00  0.00    -0.349 OA
HETATM   22  C13 UNL     1      21.649   4.553  51.987  1.00  0.00     0.232 A 
ENDBRANCH  13  15
ENDBRANCH   4  13
BRANCH   1  23
HETATM   23  N1  UNL     1      26.871   3.627  50.947  1.00  0.00    -0.321 N 
HETATM   24  C3  UNL     1      26.661   3.695  49.540  1.00  0.00     0.245 C 
HETATM   25  O1  UNL     1      25.814   2.847  49.170  1.00  0.00    -0.268 OA
HETATM   26  H4  UNL     1      27.563   4.288  51.377  1.00  0.00     0.169 HD
BRANCH  24  27
HETATM   27  C2  UNL     1      27.421   4.685  48.788  1.00  0.00     0.064 C 
HETATM   28  C1  UNL     1      26.892   5.879  48.653  1.00  0.00     0.017 C 
ENDBRANCH  24  27
ENDBRANCH   1  23
BRANCH  12  29
HETATM   29  O3  UNL     1      28.173   1.814  52.480  1.00  0.00    -0.354 OA
HETATM   30  C20 UNL     1      28.669   2.251  53.728  1.00  0.00     0.210 C 
ENDBRANCH  12  29
TORSDOF 5
ENDMDL
MODEL 9
REMARK VINA RESULT:      -7.4      4.461      8.366
REMARK  5 active torsions:
REMARK  status: ('A' for Active; 'I' for Inactive)
REMARK    1  A    between atoms: C2_2  and  C3_3 
REMARK       I    between atoms: C3_3  and  N1_5 
REMARK    2  A    between atoms: N1_5  and  C4_6 
REMARK    3  A    between atoms: C7_9  and  N2_10 
REMARK    4  A    between atoms: N2_10  and  C8_11 
REMARK    5  A    between atoms: C19_26  and  O3_27 
ROOT
HETATM    1  C4  UNL     1      30.479   6.773  47.403  1.00  0.00     0.069 A 
HETATM    2  C5  UNL     1      29.150   6.581  47.713  1.00  0.00     0.048 A 
HETATM    3  C6  UNL     1      28.579   7.514  48.525  1.00  0.00     0.023 A 
HETATM    4  C7  UNL     1      27.240   7.387  48.882  1.00  0.00     0.067 A 
HETATM    5  C14 UNL     1      26.669   8.338  49.705  1.00  0.00     0.089 A 
HETATM    6  C15 UNL     1      25.278   8.277  50.122  1.00  0.00     0.103 C 
HETATM    7  N3  UNL     1      24.192   8.222  50.466  1.00  0.00    -0.191 NA
HETATM    8  C16 UNL     1      27.394   9.426  50.193  1.00  0.00     0.142 A 
HETATM    9  N4  UNL     1      28.676   9.515  49.829  1.00  0.00    -0.259 NA
HETATM   10  C17 UNL     1      29.251   8.605  49.032  1.00  0.00     0.071 A 
HETATM   11  C18 UNL     1      30.573   8.753  48.695  1.00  0.00     0.071 A 
HETATM   12  C19 UNL     1      31.242   7.851  47.872  1.00  0.00     0.097 A 
ENDROOT
BRANCH   4  13
HETATM   13  N2  UNL     1      26.469   6.304  48.412  1.00  0.00    -0.356 N 
HETATM   14  H6  UNL     1      26.347   6.245  47.363  1.00  0.00     0.166 HD
BRANCH  13  15
HETATM   15  C8  UNL     1      25.778   5.216  49.045  1.00  0.00     0.035 A 
HETATM   16  C9  UNL     1      26.448   4.351  49.812  1.00  0.00     0.049 A 
HETATM   17  C10 UNL     1      25.659   3.286  50.408  1.00  0.00     0.041 A 
HETATM   18 BR1  UNL     1      26.644   2.059  51.497  1.00  0.00    -0.048 Br
HETATM   19  C11 UNL     1      24.342   3.164  50.212  1.00  0.00     0.060 A 
HETATM   20  C12 UNL     1      23.724   1.999  50.915  1.00  0.00     0.077 C 
HETATM   21  O2  UNL     1      23.676   4.084  49.409  1.00  0.00    -0.349 OA
HETATM   22  C13 UNL     1      24.304   5.149  48.761  1.00  0.00     0.232 A 
ENDBRANCH  13  15
ENDBRANCH   4  13
BRANCH   1  23
HETATM   23  N1  UNL     1      31.243   5.885  46.556  1.00  0.00    -0.321 N 
HETATM   24  C3  UNL     1      31.735   4.767  47.288  1.00  0.00     0.245 C 
HETATM   25  O1  UNL     1      31.386   4.829  48.491  1.00  0.00    -0.268 OA
HETATM   26  H4  UNL     1      31.473   5.949  45.535  1.00  0.00     0.169 HD
BRANCH  24  27
HETATM   27  C2  UNL     1      32.525   3.778  46.566  1.00  0.00     0.064 C 
HETATM   28  C1  UNL     1      32.263   2.513  46.793  1.00  0.00     0.017 C 
ENDBRANCH  24  27
ENDBRANCH   1  23
BRANCH  12  29
HETATM   29  O3  UNL     1      32.580   8.023  47.545  1.00  0.00    -0.354 OA
HETATM   30  C20 UNL     1      33.541   7.808  48.557  1.00  0.00     0.210 C 
ENDBRANCH  12  29
TORSDOF 5
ENDMDL
