MODEL 1
REMARK VINA RESULT:      -7.4      0.000      0.000
REMARK  3 active torsions:
REMARK  status: ('A' for Active; 'I' for Inactive)
REMARK    1  A    between atoms: C2_2  and  C3_3 
REMARK       I    between atoms: C3_3  and  N1_5 
REMARK    2  A    between atoms: N1_5  and  C4_6 
REMARK    3  A    between atoms: C11_15  and  C12_16 
ROOT
HETATM    1  C4  UNL     1      23.832   1.367  52.785  1.00  0.00     0.034 C 
HETATM    2  C5  UNL     1      24.590   0.620  53.571  1.00  0.00     0.115 C 
HETATM    3  C6  UNL     1      25.940   0.147  53.941  1.00  0.00     0.161 C 
HETATM    4  N2  UNL     1      26.815   1.164  54.496  1.00  0.00    -0.272 NA
HETATM    5  C7  UNL     1      27.367   2.155  53.810  1.00  0.00     0.228 C 
HETATM    6  N3  UNL     1      27.490   2.360  52.361  1.00  0.00    -0.243 NA
HETATM    7  C8  UNL     1      26.730   1.733  51.475  1.00  0.00     0.059 C 
HETATM    8  C9  UNL     1      25.882   2.590  50.605  1.00  0.00     0.028 C 
HETATM    9  C10 UNL     1      24.588   2.705  50.832  1.00  0.00    -0.014 C 
HETATM   10  C11 UNL     1      23.460   2.297  51.692  1.00  0.00     0.056 C 
HETATM   11  C14 UNL     1      26.890   0.250  51.598  1.00  0.00     0.053 C 
HETATM   12  C15 UNL     1      26.544  -0.477  52.696  1.00  0.00     0.039 C 
HETATM   13 CL1  UNL     1      26.848  -2.166  52.557  1.00  0.00    -0.087 Cl
ENDROOT
BRANCH   1  14
HETATM   14  N1  UNL     1      22.605   0.997  53.414  1.00  0.00    -0.355 N 
HETATM   15  C3  UNL     1      22.189  -0.359  53.397  1.00  0.00     0.217 C 
HETATM   16  O1  UNL     1      22.624  -1.453  52.947  1.00  0.00    -0.274 OA
HETATM   17  H6  UNL     1      21.828   1.494  53.950  1.00  0.00     0.162 HD
BRANCH  15  18
HETATM   18  C2  UNL     1      20.982  -1.003  53.961  1.00  0.00     0.098 C 
HETATM   19  C1  UNL     1      19.712  -0.478  53.379  1.00  0.00     0.014 C 
ENDBRANCH  15  18
ENDBRANCH   1  14
BRANCH  10  20
HETATM   20  C12 UNL     1      22.476   1.631  50.750  1.00  0.00     0.013 C 
HETATM   21  C13 UNL     1      21.397   2.233  50.210  1.00  0.00     0.185 C 
HETATM   22  F1  UNL     1      21.304   3.522  50.622  1.00  0.00    -0.220 F 
ENDBRANCH  10  20
TORSDOF 3
ENDMDL
MODEL 2
REMARK VINA RESULT:      -7.4      3.068      5.817
REMARK  3 active torsions:
REMARK  status: ('A' for Active; 'I' for Inactive)
REMARK    1  A    between atoms: C2_2  and  C3_3 
REMARK       I    between atoms: C3_3  and  N1_5 
REMARK    2  A    between atoms: N1_5  and  C4_6 
REMARK    3  A    between atoms: C11_15  and  C12_16 
ROOT
HETATM    1  C4  UNL     1      25.009   1.462  52.055  1.00  0.00     0.034 C 
HETATM    2  C5  UNL     1      24.647   2.455  51.260  1.00  0.00     0.115 C 
HETATM    3  C6  UNL     1      23.561   3.204  50.593  1.00  0.00     0.161 C 
HETATM    4  N2  UNL     1      22.687   3.942  51.487  1.00  0.00    -0.272 NA
HETATM    5  C7  UNL     1      21.792   3.401  52.302  1.00  0.00     0.228 C 
HETATM    6  N3  UNL     1      21.251   2.036  52.352  1.00  0.00    -0.243 NA
HETATM    7  C8  UNL     1      21.853   0.998  51.791  1.00  0.00     0.059 C 
HETATM    8  C9  UNL     1      22.256  -0.106  52.702  1.00  0.00     0.028 C 
HETATM    9  C10 UNL     1      23.517  -0.252  53.061  1.00  0.00    -0.014 C 
HETATM   10  C11 UNL     1      24.890   0.274  52.935  1.00  0.00     0.056 C 
HETATM   11  C14 UNL     1      22.019   1.217  50.320  1.00  0.00     0.053 C 
HETATM   12  C15 UNL     1      22.779   2.201  49.765  1.00  0.00     0.039 C 
HETATM   13 CL1  UNL     1      22.780   2.215  48.044  1.00  0.00    -0.087 Cl
ENDROOT
BRANCH   1  14
HETATM   14  N1  UNL     1      26.407   1.738  51.963  1.00  0.00    -0.355 N 
HETATM   15  C3  UNL     1      27.120   2.148  53.118  1.00  0.00     0.217 C 
HETATM   16  O1  UNL     1      26.863   2.365  54.333  1.00  0.00    -0.274 OA
HETATM   17  H6  UNL     1      27.151   1.722  51.198  1.00  0.00     0.162 HD
BRANCH  15  18
HETATM   18  C2  UNL     1      28.548   2.492  53.297  1.00  0.00     0.098 C 
HETATM   19  C1  UNL     1      29.237   1.628  54.299  1.00  0.00     0.014 C 
ENDBRANCH  15  18
ENDBRANCH   1  14
BRANCH  10  20
HETATM   20  C12 UNL     1      25.696  -0.878  52.370  1.00  0.00     0.013 C 
HETATM   21  C13 UNL     1      26.750  -1.456  52.982  1.00  0.00     0.185 C 
HETATM   22  F1  UNL     1      26.998  -0.868  54.179  1.00  0.00    -0.220 F 
ENDBRANCH  10  20
TORSDOF 3
ENDMDL
MODEL 3
REMARK VINA RESULT:      -7.3      3.028      5.306
REMARK  3 active torsions:
REMARK  status: ('A' for Active; 'I' for Inactive)
REMARK    1  A    between atoms: C2_2  and  C3_3 
REMARK       I    between atoms: C3_3  and  N1_5 
REMARK    2  A    between atoms: N1_5  and  C4_6 
REMARK    3  A    between atoms: C11_15  and  C12_16 
ROOT
HETATM    1  C4  UNL     1      23.450   1.190  52.305  1.00  0.00     0.034 C 
HETATM    2  C5  UNL     1      23.957   1.886  51.300  1.00  0.00     0.115 C 
HETATM    3  C6  UNL     1      23.786   2.957  50.296  1.00  0.00     0.161 C 
HETATM    4  N2  UNL     1      23.692   4.299  50.841  1.00  0.00    -0.272 NA
HETATM    5  C7  UNL     1      22.655   4.783  51.511  1.00  0.00     0.228 C 
HETATM    6  N3  UNL     1      21.289   4.264  51.657  1.00  0.00    -0.243 NA
HETATM    7  C8  UNL     1      20.964   3.001  51.418  1.00  0.00     0.059 C 
HETATM    8  C9  UNL     1      20.402   2.235  52.561  1.00  0.00     0.028 C 
HETATM    9  C10 UNL     1      21.143   1.359  53.212  1.00  0.00    -0.014 C 
HETATM   10  C11 UNL     1      22.470   0.721  53.313  1.00  0.00     0.056 C 
HETATM   11  C14 UNL     1      21.293   2.631  50.007  1.00  0.00     0.053 C 
HETATM   12  C15 UNL     1      22.551   2.607  49.486  1.00  0.00     0.039 C 
HETATM   13 CL1  UNL     1      22.627   2.147  47.828  1.00  0.00    -0.087 Cl
ENDROOT
BRANCH   1  14
HETATM   14  N1  UNL     1      24.610   0.377  52.484  1.00  0.00    -0.355 N 
HETATM   15  C3  UNL     1      25.660   0.826  53.326  1.00  0.00     0.217 C 
HETATM   16  O1  UNL     1      25.901   1.836  54.042  1.00  0.00    -0.274 OA
HETATM   17  H6  UNL     1      24.955  -0.571  52.134  1.00  0.00     0.162 HD
BRANCH  15  18
HETATM   18  C2  UNL     1      26.949   0.193  53.680  1.00  0.00     0.098 C 
HETATM   19  C1  UNL     1      27.226  -1.046  52.896  1.00  0.00     0.014 C 
ENDBRANCH  15  18
ENDBRANCH   1  14
BRANCH  10  20
HETATM   20  C12 UNL     1      22.203  -0.760  53.135  1.00  0.00     0.013 C 
HETATM   21  C13 UNL     1      21.847  -1.604  54.125  1.00  0.00     0.185 C 
HETATM   22  F1  UNL     1      21.759  -0.952  55.310  1.00  0.00    -0.220 F 
ENDBRANCH  10  20
TORSDOF 3
ENDMDL
MODEL 4
REMARK VINA RESULT:      -6.9      3.178      6.034
REMARK  3 active torsions:
REMARK  status: ('A' for Active; 'I' for Inactive)
REMARK    1  A    between atoms: C2_2  and  C3_3 
REMARK       I    between atoms: C3_3  and  N1_5 
REMARK    2  A    between atoms: N1_5  and  C4_6 
REMARK    3  A    between atoms: C11_15  and  C12_16 
ROOT
HETATM    1  C4  UNL     1      24.113   2.214  52.012  1.00  0.00     0.034 C 
HETATM    2  C5  UNL     1      23.195   2.846  51.301  1.00  0.00     0.115 C 
HETATM    3  C6  UNL     1      21.798   2.915  50.821  1.00  0.00     0.161 C 
HETATM    4  N2  UNL     1      20.809   3.173  51.852  1.00  0.00    -0.272 NA
HETATM    5  C7  UNL     1      20.430   2.307  52.783  1.00  0.00     0.228 C 
HETATM    6  N3  UNL     1      20.658   0.860  52.888  1.00  0.00    -0.243 NA
HETATM    7  C8  UNL     1      21.612   0.227  52.222  1.00  0.00     0.059 C 
HETATM    8  C9  UNL     1      22.638  -0.473  53.039  1.00  0.00     0.028 C 
HETATM    9  C10 UNL     1      23.838   0.048  53.199  1.00  0.00    -0.014 C 
HETATM   10  C11 UNL     1      24.730   1.178  52.876  1.00  0.00     0.056 C 
HETATM   11  C14 UNL     1      21.437   0.412  50.747  1.00  0.00     0.053 C 
HETATM   12  C15 UNL     1      21.515   1.608  50.103  1.00  0.00     0.039 C 
HETATM   13 CL1  UNL     1      21.265   1.519  48.402  1.00  0.00    -0.087 Cl
ENDROOT
BRANCH   1  14
HETATM   14  N1  UNL     1      25.157   3.141  51.713  1.00  0.00    -0.355 N 
HETATM   15  C3  UNL     1      25.478   3.425  50.361  1.00  0.00     0.217 C 
HETATM   16  O1  UNL     1      25.074   3.067  49.221  1.00  0.00    -0.274 OA
HETATM   17  H6  UNL     1      25.836   3.749  52.268  1.00  0.00     0.162 HD
BRANCH  15  18
HETATM   18  C2  UNL     1      26.496   4.329  49.782  1.00  0.00     0.098 C 
HETATM   19  C1  UNL     1      25.905   5.442  48.984  1.00  0.00     0.014 C 
ENDBRANCH  15  18
ENDBRANCH   1  14
BRANCH  10  20
HETATM   20  C12 UNL     1      25.916   0.548  52.173  1.00  0.00     0.013 C 
HETATM   21  C13 UNL     1      27.078   0.211  52.769  1.00  0.00     0.185 C 
HETATM   22  F1  UNL     1      27.048   0.512  54.091  1.00  0.00    -0.220 F 
ENDBRANCH  10  20
TORSDOF 3
ENDMDL
MODEL 5
REMARK VINA RESULT:      -6.9      8.651     10.799
REMARK  3 active torsions:
REMARK  status: ('A' for Active; 'I' for Inactive)
REMARK    1  A    between atoms: C2_2  and  C3_3 
REMARK       I    between atoms: C3_3  and  N1_5 
REMARK    2  A    between atoms: N1_5  and  C4_6 
REMARK    3  A    between atoms: C11_15  and  C12_16 
ROOT
HETATM    1  C4  UNL     1      31.951   5.866  47.564  1.00  0.00     0.034 C 
HETATM    2  C5  UNL     1      31.833   4.927  46.640  1.00  0.00     0.115 C 
HETATM    3  C6  UNL     1      32.424   3.769  45.936  1.00  0.00     0.161 C 
HETATM    4  N2  UNL     1      32.604   2.582  46.753  1.00  0.00    -0.272 NA
HETATM    5  C7  UNL     1      33.510   2.443  47.711  1.00  0.00     0.228 C 
HETATM    6  N3  UNL     1      34.691   3.255  48.032  1.00  0.00    -0.243 NA
HETATM    7  C8  UNL     1      34.847   4.503  47.613  1.00  0.00     0.059 C 
HETATM    8  C9  UNL     1      34.973   5.544  48.667  1.00  0.00     0.028 C 
HETATM    9  C10 UNL     1      33.958   6.336  48.953  1.00  0.00    -0.014 C 
HETATM   10  C11 UNL     1      32.559   6.687  48.639  1.00  0.00     0.056 C 
HETATM   11  C14 UNL     1      34.819   4.564  46.118  1.00  0.00     0.053 C 
HETATM   12  C15 UNL     1      33.744   4.238  45.351  1.00  0.00     0.039 C 
HETATM   13 CL1  UNL     1      34.002   4.399  43.656  1.00  0.00    -0.087 Cl
ENDROOT
BRANCH   1  14
HETATM   14  N1  UNL     1      30.663   6.434  47.324  1.00  0.00    -0.355 N 
HETATM   15  C3  UNL     1      29.541   5.960  48.050  1.00  0.00     0.217 C 
HETATM   16  O1  UNL     1      29.314   5.097  48.940  1.00  0.00    -0.274 OA
HETATM   17  H6  UNL     1      30.255   7.191  46.692  1.00  0.00     0.162 HD
BRANCH  15  18
HETATM   18  C2  UNL     1      28.118   6.366  47.997  1.00  0.00     0.098 C 
HETATM   19  C1  UNL     1      27.201   5.363  48.613  1.00  0.00     0.014 C 
ENDBRANCH  15  18
ENDBRANCH   1  14
BRANCH  10  20
HETATM   20  C12 UNL     1      32.610   8.143  48.221  1.00  0.00     0.013 C 
HETATM   21  C13 UNL     1      31.841   9.122  48.740  1.00  0.00     0.185 C 
HETATM   22  F1  UNL     1      31.010   8.632  49.693  1.00  0.00    -0.220 F 
ENDBRANCH  10  20
TORSDOF 3
ENDMDL
MODEL 6
REMARK VINA RESULT:      -6.8      3.134      4.673
REMARK  3 active torsions:
REMARK  status: ('A' for Active; 'I' for Inactive)
REMARK    1  A    between atoms: C2_2  and  C3_3 
REMARK       I    between atoms: C3_3  and  N1_5 
REMARK    2  A    between atoms: N1_5  and  C4_6 
REMARK    3  A    between atoms: C11_15  and  C12_16 
ROOT
HETATM    1  C4  UNL     1      24.459   1.431  52.534  1.00  0.00     0.034 C 
HETATM    2  C5  UNL     1      23.251   1.941  52.361  1.00  0.00     0.115 C 
HETATM    3  C6  UNL     1      22.347   2.803  51.571  1.00  0.00     0.161 C 
HETATM    4  N2  UNL     1      22.055   2.321  50.233  1.00  0.00    -0.272 NA
HETATM    5  C7  UNL     1      22.910   2.313  49.219  1.00  0.00     0.228 C 
HETATM    6  N3  UNL     1      24.207   2.983  49.060  1.00  0.00    -0.243 NA
HETATM    7  C8  UNL     1      24.917   3.438  50.083  1.00  0.00     0.059 C 
HETATM    8  C9  UNL     1      26.270   2.850  50.263  1.00  0.00     0.028 C 
HETATM    9  C10 UNL     1      26.492   1.952  51.203  1.00  0.00    -0.014 C 
HETATM   10  C11 UNL     1      25.900   1.168  52.305  1.00  0.00     0.056 C 
HETATM   11  C14 UNL     1      24.133   4.448  50.860  1.00  0.00     0.053 C 
HETATM   12  C15 UNL     1      22.979   4.182  51.531  1.00  0.00     0.039 C 
HETATM   13 CL1  UNL     1      22.293   5.542  52.335  1.00  0.00    -0.087 Cl
ENDROOT
BRANCH   1  14
HETATM   14  N1  UNL     1      24.110   0.687  53.702  1.00  0.00    -0.355 N 
HETATM   15  C3  UNL     1      23.156  -0.358  53.609  1.00  0.00     0.217 C 
HETATM   16  O1  UNL     1      22.448  -0.885  52.709  1.00  0.00    -0.274 OA
HETATM   17  H6  UNL     1      24.388   0.686  54.732  1.00  0.00     0.162 HD
BRANCH  15  18
HETATM   18  C2  UNL     1      22.622  -1.269  54.646  1.00  0.00     0.098 C 
HETATM   19  C1  UNL     1      21.195  -1.642  54.418  1.00  0.00     0.014 C 
ENDBRANCH  15  18
ENDBRANCH   1  14
BRANCH  10  20
HETATM   20  C12 UNL     1      26.705   1.555  53.530  1.00  0.00     0.013 C 
HETATM   21  C13 UNL     1      27.779   0.883  53.991  1.00  0.00     0.185 C 
HETATM   22  F1  UNL     1      28.051  -0.192  53.210  1.00  0.00    -0.220 F 
ENDBRANCH  10  20
TORSDOF 3
ENDMDL
MODEL 7
REMARK VINA RESULT:      -6.5      3.059      4.358
REMARK  3 active torsions:
REMARK  status: ('A' for Active; 'I' for Inactive)
REMARK    1  A    between atoms: C2_2  and  C3_3 
REMARK       I    between atoms: C3_3  and  N1_5 
REMARK    2  A    between atoms: N1_5  and  C4_6 
REMARK    3  A    between atoms: C11_15  and  C12_16 
ROOT
HETATM    1  C4  UNL     1      22.062   1.189  52.615  1.00  0.00     0.034 C 
HETATM    2  C5  UNL     1      22.062   2.448  52.206  1.00  0.00     0.115 C 
HETATM    3  C6  UNL     1      22.832   3.637  51.787  1.00  0.00     0.161 C 
HETATM    4  N2  UNL     1      23.537   3.497  50.525  1.00  0.00    -0.272 NA
HETATM    5  C7  UNL     1      24.615   2.749  50.329  1.00  0.00     0.228 C 
HETATM    6  N3  UNL     1      25.519   2.109  51.293  1.00  0.00    -0.243 NA
HETATM    7  C8  UNL     1      25.187   1.881  52.556  1.00  0.00     0.059 C 
HETATM    8  C9  UNL     1      25.189   0.460  52.994  1.00  0.00     0.028 C 
HETATM    9  C10 UNL     1      24.056  -0.199  53.139  1.00  0.00    -0.014 C 
HETATM   10  C11 UNL     1      22.585  -0.131  53.043  1.00  0.00     0.056 C 
HETATM   11  C14 UNL     1      24.841   3.160  53.250  1.00  0.00     0.053 C 
HETATM   12  C15 UNL     1      23.792   3.961  52.918  1.00  0.00     0.039 C 
HETATM   13 CL1  UNL     1      23.639   5.375  53.888  1.00  0.00    -0.087 Cl
ENDROOT
BRANCH   1  14
HETATM   14  N1  UNL     1      20.640   1.092  52.705  1.00  0.00    -0.355 N 
HETATM   15  C3  UNL     1      19.890   0.706  51.565  1.00  0.00     0.217 C 
HETATM   16  O1  UNL     1      20.126   0.387  50.368  1.00  0.00    -0.274 OA
HETATM   17  H6  UNL     1      19.900   1.238  53.459  1.00  0.00     0.162 HD
BRANCH  15  18
HETATM   18  C2  UNL     1      18.431   0.531  51.387  1.00  0.00     0.098 C 
HETATM   19  C1  UNL     1      17.874  -0.593  52.195  1.00  0.00     0.014 C 
ENDBRANCH  15  18
ENDBRANCH   1  14
BRANCH  10  20
HETATM   20  C12 UNL     1      22.089  -0.463  54.436  1.00  0.00     0.013 C 
HETATM   21  C13 UNL     1      21.594  -1.660  54.814  1.00  0.00     0.185 C 
HETATM   22  F1  UNL     1      21.597  -2.535  53.778  1.00  0.00    -0.220 F 
ENDBRANCH  10  20
TORSDOF 3
ENDMDL
MODEL 8
REMARK VINA RESULT:      -6.5      3.374      5.116
REMARK  3 active torsions:
REMARK  status: ('A' for Active; 'I' for Inactive)
REMARK    1  A    between atoms: C2_2  and  C3_3 
REMARK       I    between atoms: C3_3  and  N1_5 
REMARK    2  A    between atoms: N1_5  and  C4_6 
REMARK    3  A    between atoms: C11_15  and  C12_16 
ROOT
HETATM    1  C4  UNL     1      22.844   1.800  51.895  1.00  0.00     0.034 C 
HETATM    2  C5  UNL     1      21.596   1.923  51.472  1.00  0.00     0.115 C 
HETATM    3  C6  UNL     1      20.663   2.325  50.399  1.00  0.00     0.161 C 
HETATM    4  N2  UNL     1      20.717   1.507  49.200  1.00  0.00    -0.272 NA
HETATM    5  C7  UNL     1      21.707   1.508  48.318  1.00  0.00     0.228 C 
HETATM    6  N3  UNL     1      22.822   2.446  48.136  1.00  0.00    -0.243 NA
HETATM    7  C8  UNL     1      23.227   3.281  49.083  1.00  0.00     0.059 C 
HETATM    8  C9  UNL     1      24.630   3.125  49.548  1.00  0.00     0.028 C 
HETATM    9  C10 UNL     1      24.894   2.540  50.701  1.00  0.00    -0.014 C 
HETATM   10  C11 UNL     1      24.324   1.885  51.894  1.00  0.00     0.056 C 
HETATM   11  C14 UNL     1      22.113   4.191  49.495  1.00  0.00     0.053 C 
HETATM   12  C15 UNL     1      20.956   3.781  50.084  1.00  0.00     0.039 C 
HETATM   13 CL1  UNL     1      19.850   5.050  50.443  1.00  0.00    -0.087 Cl
ENDROOT
BRANCH   1  14
HETATM   14  N1  UNL     1      22.487   1.259  53.167  1.00  0.00    -0.355 N 
HETATM   15  C3  UNL     1      22.528  -0.144  53.370  1.00  0.00     0.217 C 
HETATM   16  O1  UNL     1      22.818  -1.167  52.692  1.00  0.00    -0.274 OA
HETATM   17  H6  UNL     1      22.165   1.642  54.110  1.00  0.00     0.162 HD
BRANCH  15  18
HETATM   18  C2  UNL     1      22.213  -0.953  54.568  1.00  0.00     0.098 C 
HETATM   19  C1  UNL     1      20.957  -1.745  54.426  1.00  0.00     0.014 C 
ENDBRANCH  15  18
ENDBRANCH   1  14
BRANCH  10  20
HETATM   20  C12 UNL     1      24.802   2.723  53.062  1.00  0.00     0.013 C 
HETATM   21  C13 UNL     1      25.812   2.389  53.891  1.00  0.00     0.185 C 
HETATM   22  F1  UNL     1      26.351   1.195  53.540  1.00  0.00    -0.220 F 
ENDBRANCH  10  20
TORSDOF 3
ENDMDL
MODEL 9
REMARK VINA RESULT:      -6.3      3.049      6.032
REMARK  3 active torsions:
REMARK  status: ('A' for Active; 'I' for Inactive)
REMARK    1  A    between atoms: C2_2  and  C3_3 
REMARK       I    between atoms: C3_3  and  N1_5 
REMARK    2  A    between atoms: N1_5  and  C4_6 
REMARK    3  A    between atoms: C11_15  and  C12_16 
ROOT
HETATM    1  C4  UNL     1      22.144   1.841  52.362  1.00  0.00     0.034 C 
HETATM    2  C5  UNL     1      22.339   2.706  51.380  1.00  0.00     0.115 C 
HETATM    3  C6  UNL     1      21.862   3.307  50.117  1.00  0.00     0.161 C 
HETATM    4  N2  UNL     1      20.655   4.104  50.234  1.00  0.00    -0.272 NA
HETATM    5  C7  UNL     1      19.437   3.622  50.446  1.00  0.00     0.228 C 
HETATM    6  N3  UNL     1      18.927   2.248  50.356  1.00  0.00    -0.243 NA
HETATM    7  C8  UNL     1      19.712   1.180  50.389  1.00  0.00     0.059 C 
HETATM    8  C9  UNL     1      19.481   0.223  51.502  1.00  0.00     0.028 C 
HETATM    9  C10 UNL     1      20.295   0.190  52.539  1.00  0.00    -0.014 C 
HETATM   10  C11 UNL     1      21.503   0.768  53.160  1.00  0.00     0.056 C 
HETATM   11  C14 UNL     1      20.705   1.222  49.271  1.00  0.00     0.053 C 
HETATM   12  C15 UNL     1      21.674   2.168  49.132  1.00  0.00     0.039 C 
HETATM   13 CL1  UNL     1      22.672   1.967  47.743  1.00  0.00    -0.087 Cl
ENDROOT
BRANCH   1  14
HETATM   14  N1  UNL     1      23.345   2.176  53.058  1.00  0.00    -0.355 N 
HETATM   15  C3  UNL     1      24.599   1.784  52.523  1.00  0.00     0.217 C 
HETATM   16  O1  UNL     1      25.017   1.163  51.508  1.00  0.00    -0.274 OA
HETATM   17  H6  UNL     1      23.603   2.691  53.956  1.00  0.00     0.162 HD
BRANCH  15  18
HETATM   18  C2  UNL     1      25.972   1.997  53.032  1.00  0.00     0.098 C 
HETATM   19  C1  UNL     1      26.969   2.231  51.946  1.00  0.00     0.014 C 
ENDBRANCH  15  18
ENDBRANCH   1  14
BRANCH  10  20
HETATM   20  C12 UNL     1      22.453  -0.402  53.323  1.00  0.00     0.013 C 
HETATM   21  C13 UNL     1      22.621  -1.107  54.461  1.00  0.00     0.185 C 
HETATM   22  F1  UNL     1      21.823  -0.630  55.448  1.00  0.00    -0.220 F 
ENDBRANCH  10  20
TORSDOF 3
ENDMDL
