MODEL 1
REMARK VINA RESULT:      -6.9      0.000      0.000
REMARK  7 active torsions:
REMARK  status: ('A' for Active; 'I' for Inactive)
REMARK    1  A    between atoms: N1_2  and  C2_3 
REMARK    2  A    between atoms: C4_7  and  N3_8 
REMARK    3  A    between atoms: N3_8  and  C5_9 
REMARK    4  A    between atoms: C5_9  and  C6_10 
REMARK    5  A    between atoms: C6_10  and  N4_11 
REMARK    6  A    between atoms: C7_13  and  N6_14 
REMARK    7  A    between atoms: N6_14  and  C8_15 
ROOT
HETATM    1  C2  UNL     1      22.882   0.001  53.050  1.00  0.00     0.143 A 
HETATM    2  C3  UNL     1      22.075   0.936  52.386  1.00  0.00     0.177 A 
HETATM    3 CL1  UNL     1      20.453   0.623  51.793  1.00  0.00    -0.059 Cl
HETATM    4  N2  UNL     1      22.491   2.202  52.145  1.00  0.00    -0.048 NA
HETATM    5  C4  UNL     1      23.723   2.599  52.550  1.00  0.00     0.726 A 
HETATM    6  N5  UNL     1      24.502   1.709  53.187  1.00  0.00    -0.043 NA
HETATM    7  C7  UNL     1      24.119   0.446  53.442  1.00  0.00     0.179 A 
ENDROOT
BRANCH   7   8
HETATM    8  N6  UNL     1      24.970  -0.461  54.107  1.00  0.00    -0.338 N 
HETATM    9  H10 UNL     1      24.503  -1.203  54.708  1.00  0.00     0.167 HD
BRANCH   8  10
HETATM   10  C8  UNL     1      26.382  -0.470  54.027  1.00  0.00     0.033 A 
HETATM   11  C9  UNL     1      27.241   0.230  54.833  1.00  0.00     0.029 A 
HETATM   12  C10 UNL     1      28.605   0.296  54.855  1.00  0.00     0.002 A 
HETATM   13  C11 UNL     1      29.220  -0.492  53.877  1.00  0.00     0.000 A 
HETATM   14  C12 UNL     1      28.435  -1.249  52.996  1.00  0.00     0.002 A 
HETATM   15  C13 UNL     1      27.067  -1.227  53.079  1.00  0.00     0.029 A 
ENDBRANCH   8  10
ENDBRANCH   7   8
BRANCH   1  16
HETATM   16  N1  UNL     1      22.345  -1.301  53.243  1.00  0.00    -0.265 NA
HETATM   17  C1  UNL     1      21.611  -1.558  54.305  1.00  0.00     0.150 C 
ENDBRANCH   1  16
BRANCH   5  18
HETATM   18  N3  UNL     1      24.169   3.929  52.311  1.00  0.00    -0.221 N 
HETATM   19  H3  UNL     1      25.192   4.109  52.239  1.00  0.00     0.177 HD
BRANCH  18  20
HETATM   20  C5  UNL     1      23.216   5.013  52.169  1.00  0.00     0.168 C 
BRANCH  20  21
HETATM   21  C6  UNL     1      23.791   6.057  51.207  1.00  0.00     0.286 C 
BRANCH  21  22
HETATM   22  N4  UNL     1      24.521   7.012  51.994  1.00  0.00     0.079 N 
HETATM   23  H8  UNL     1      24.526   6.749  53.023  1.00  0.00     0.312 HD
HETATM   24  H9  UNL     1      25.486   7.181  51.653  1.00  0.00     0.312 HD
ENDBRANCH  21  22
ENDBRANCH  20  21
ENDBRANCH  18  20
ENDBRANCH   5  18
TORSDOF 7
ENDMDL
MODEL 2
REMARK VINA RESULT:      -6.8      3.248      6.425
REMARK  7 active torsions:
REMARK  status: ('A' for Active; 'I' for Inactive)
REMARK    1  A    between atoms: N1_2  and  C2_3 
REMARK    2  A    between atoms: C4_7  and  N3_8 
REMARK    3  A    between atoms: N3_8  and  C5_9 
REMARK    4  A    between atoms: C5_9  and  C6_10 
REMARK    5  A    between atoms: C6_10  and  N4_11 
REMARK    6  A    between atoms: C7_13  and  N6_14 
REMARK    7  A    between atoms: N6_14  and  C8_15 
ROOT
HETATM    1  C2  UNL     1      24.971   2.330  51.200  1.00  0.00     0.143 A 
HETATM    2  C3  UNL     1      24.774   1.927  52.528  1.00  0.00     0.177 A 
HETATM    3 CL1  UNL     1      23.230   1.451  53.215  1.00  0.00    -0.059 Cl
HETATM    4  N2  UNL     1      25.791   1.863  53.420  1.00  0.00    -0.048 NA
HETATM    5  C4  UNL     1      27.049   2.195  53.036  1.00  0.00     0.726 A 
HETATM    6  N5  UNL     1      27.247   2.582  51.765  1.00  0.00    -0.043 NA
HETATM    7  C7  UNL     1      26.260   2.655  50.856  1.00  0.00     0.179 A 
ENDROOT
BRANCH   7   8
HETATM    8  N6  UNL     1      26.507   3.075  49.533  1.00  0.00    -0.338 N 
HETATM    9  H10 UNL     1      26.434   2.334  48.774  1.00  0.00     0.167 HD
BRANCH   8  10
HETATM   10  C8  UNL     1      26.829   4.393  49.137  1.00  0.00     0.033 A 
HETATM   11  C9  UNL     1      28.017   4.807  48.595  1.00  0.00     0.029 A 
HETATM   12  C10 UNL     1      28.437   6.036  48.174  1.00  0.00     0.002 A 
HETATM   13  C11 UNL     1      27.477   7.041  48.331  1.00  0.00     0.000 A 
HETATM   14  C12 UNL     1      26.225   6.729  48.878  1.00  0.00     0.002 A 
HETATM   15  C13 UNL     1      25.926   5.448  49.264  1.00  0.00     0.029 A 
ENDBRANCH   8  10
ENDBRANCH   7   8
BRANCH   1  16
HETATM   16  N1  UNL     1      23.830   2.366  50.354  1.00  0.00    -0.265 NA
HETATM   17  C1  UNL     1      23.053   3.428  50.342  1.00  0.00     0.150 C 
ENDBRANCH   1  16
BRANCH   5  18
HETATM   18  N3  UNL     1      28.129   2.123  53.960  1.00  0.00    -0.221 N 
HETATM   19  H3  UNL     1      28.125   2.758  54.785  1.00  0.00     0.177 HD
BRANCH  18  20
HETATM   20  C5  UNL     1      29.213   1.181  53.758  1.00  0.00     0.168 C 
BRANCH  20  21
HETATM   21  C6  UNL     1      28.668  -0.243  53.907  1.00  0.00     0.286 C 
BRANCH  21  22
HETATM   22  N4  UNL     1      27.801  -0.254  55.052  1.00  0.00     0.079 N 
HETATM   23  H8  UNL     1      28.346  -0.153  55.958  1.00  0.00     0.312 HD
HETATM   24  H9  UNL     1      27.037   0.446  55.003  1.00  0.00     0.312 HD
ENDBRANCH  21  22
ENDBRANCH  20  21
ENDBRANCH  18  20
ENDBRANCH   5  18
TORSDOF 7
ENDMDL
MODEL 3
REMARK VINA RESULT:      -6.7      2.180      5.300
REMARK  7 active torsions:
REMARK  status: ('A' for Active; 'I' for Inactive)
REMARK    1  A    between atoms: N1_2  and  C2_3 
REMARK    2  A    between atoms: C4_7  and  N3_8 
REMARK    3  A    between atoms: N3_8  and  C5_9 
REMARK    4  A    between atoms: C5_9  and  C6_10 
REMARK    5  A    between atoms: C6_10  and  N4_11 
REMARK    6  A    between atoms: C7_13  and  N6_14 
REMARK    7  A    between atoms: N6_14  and  C8_15 
ROOT
HETATM    1  C2  UNL     1      23.681  -0.100  53.377  1.00  0.00     0.143 A 
HETATM    2  C3  UNL     1      24.034  -0.813  54.532  1.00  0.00     0.177 A 
HETATM    3 CL1  UNL     1      22.927  -1.781  55.492  1.00  0.00    -0.059 Cl
HETATM    4  N2  UNL     1      25.299  -0.822  55.014  1.00  0.00    -0.048 NA
HETATM    5  C4  UNL     1      26.271  -0.125  54.376  1.00  0.00     0.726 A 
HETATM    6  N5  UNL     1      25.942   0.562  53.269  1.00  0.00    -0.043 NA
HETATM    7  C7  UNL     1      24.697   0.590  52.764  1.00  0.00     0.179 A 
ENDROOT
BRANCH   7   8
HETATM    8  N6  UNL     1      24.390   1.330  51.604  1.00  0.00    -0.338 N 
HETATM    9  H10 UNL     1      24.304   0.784  50.696  1.00  0.00     0.167 HD
BRANCH   8  10
HETATM   10  C8  UNL     1      24.177   2.727  51.555  1.00  0.00     0.033 A 
HETATM   11  C9  UNL     1      23.663   3.501  52.561  1.00  0.00     0.029 A 
HETATM   12  C10 UNL     1      23.419   4.843  52.632  1.00  0.00     0.002 A 
HETATM   13  C11 UNL     1      23.756   5.536  51.465  1.00  0.00     0.000 A 
HETATM   14  C12 UNL     1      24.289   4.841  50.371  1.00  0.00     0.002 A 
HETATM   15  C13 UNL     1      24.486   3.486  50.428  1.00  0.00     0.029 A 
ENDBRANCH   8  10
ENDBRANCH   7   8
BRANCH   1  16
HETATM   16  N1  UNL     1      22.322  -0.158  52.965  1.00  0.00    -0.265 NA
HETATM   17  C1  UNL     1      21.443   0.674  53.482  1.00  0.00     0.150 C 
ENDBRANCH   1  16
BRANCH   5  18
HETATM   18  N3  UNL     1      27.607  -0.133  54.867  1.00  0.00    -0.221 N 
HETATM   19  H3  UNL     1      27.774  -0.405  55.858  1.00  0.00     0.177 HD
BRANCH  18  20
HETATM   20  C5  UNL     1      28.714   0.228  54.003  1.00  0.00     0.168 C 
BRANCH  20  21
HETATM   21  C6  UNL     1      29.239   1.606  54.417  1.00  0.00     0.286 C 
BRANCH  21  22
HETATM   22  N4  UNL     1      28.354   2.590  53.859  1.00  0.00     0.079 N 
HETATM   23  H8  UNL     1      27.337   2.292  53.938  1.00  0.00     0.312 HD
HETATM   24  H9  UNL     1      28.489   3.541  54.249  1.00  0.00     0.312 HD
ENDBRANCH  21  22
ENDBRANCH  20  21
ENDBRANCH  18  20
ENDBRANCH   5  18
TORSDOF 7
ENDMDL
MODEL 4
REMARK VINA RESULT:      -6.5      2.862      4.935
REMARK  7 active torsions:
REMARK  status: ('A' for Active; 'I' for Inactive)
REMARK    1  A    between atoms: N1_2  and  C2_3 
REMARK    2  A    between atoms: C4_7  and  N3_8 
REMARK    3  A    between atoms: N3_8  and  C5_9 
REMARK    4  A    between atoms: C5_9  and  C6_10 
REMARK    5  A    between atoms: C6_10  and  N4_11 
REMARK    6  A    between atoms: C7_13  and  N6_14 
REMARK    7  A    between atoms: N6_14  and  C8_15 
ROOT
HETATM    1  C2  UNL     1      26.868   0.558  53.486  1.00  0.00     0.143 A 
HETATM    2  C3  UNL     1      27.855   1.548  53.378  1.00  0.00     0.177 A 
HETATM    3 CL1  UNL     1      29.264   1.681  54.418  1.00  0.00    -0.059 Cl
HETATM    4  N2  UNL     1      27.808   2.511  52.428  1.00  0.00    -0.048 NA
HETATM    5  C4  UNL     1      26.781   2.538  51.542  1.00  0.00     0.726 A 
HETATM    6  N5  UNL     1      25.831   1.593  51.639  1.00  0.00    -0.043 NA
HETATM    7  C7  UNL     1      25.849   0.624  52.569  1.00  0.00     0.179 A 
ENDROOT
BRANCH   7   8
HETATM    8  N6  UNL     1      24.828  -0.345  52.643  1.00  0.00    -0.338 N 
HETATM    9  H10 UNL     1      25.056  -1.312  52.263  1.00  0.00     0.167 HD
BRANCH   8  10
HETATM   10  C8  UNL     1      23.540  -0.139  53.188  1.00  0.00     0.033 A 
HETATM   11  C9  UNL     1      22.997  -0.807  54.253  1.00  0.00     0.029 A 
HETATM   12  C10 UNL     1      21.782  -0.693  54.866  1.00  0.00     0.002 A 
HETATM   13  C11 UNL     1      20.955   0.279  54.293  1.00  0.00     0.000 A 
HETATM   14  C12 UNL     1      21.409   1.022  53.196  1.00  0.00     0.002 A 
HETATM   15  C13 UNL     1      22.658   0.809  52.672  1.00  0.00     0.029 A 
ENDBRANCH   8  10
ENDBRANCH   7   8
BRANCH   1  16
HETATM   16  N1  UNL     1      27.017  -0.400  54.526  1.00  0.00    -0.265 NA
HETATM   17  C1  UNL     1      26.401  -0.223  55.675  1.00  0.00     0.150 C 
ENDBRANCH   1  16
BRANCH   5  18
HETATM   18  N3  UNL     1      26.724   3.539  50.532  1.00  0.00    -0.221 N 
HETATM   19  H3  UNL     1      27.610   3.992  50.225  1.00  0.00     0.177 HD
BRANCH  18  20
HETATM   20  C5  UNL     1      25.456   3.919  49.941  1.00  0.00     0.168 C 
BRANCH  20  21
HETATM   21  C6  UNL     1      25.270   5.432  50.094  1.00  0.00     0.286 C 
BRANCH  21  22
HETATM   22  N4  UNL     1      24.543   5.655  51.313  1.00  0.00     0.079 N 
HETATM   23  H8  UNL     1      24.768   4.918  52.044  1.00  0.00     0.312 HD
HETATM   24  H9  UNL     1      24.666   6.609  51.703  1.00  0.00     0.312 HD
ENDBRANCH  21  22
ENDBRANCH  20  21
ENDBRANCH  18  20
ENDBRANCH   5  18
TORSDOF 7
ENDMDL
MODEL 5
REMARK VINA RESULT:      -6.5      2.654      5.847
REMARK  7 active torsions:
REMARK  status: ('A' for Active; 'I' for Inactive)
REMARK    1  A    between atoms: N1_2  and  C2_3 
REMARK    2  A    between atoms: C4_7  and  N3_8 
REMARK    3  A    between atoms: N3_8  and  C5_9 
REMARK    4  A    between atoms: C5_9  and  C6_10 
REMARK    5  A    between atoms: C6_10  and  N4_11 
REMARK    6  A    between atoms: C7_13  and  N6_14 
REMARK    7  A    between atoms: N6_14  and  C8_15 
ROOT
HETATM    1  C2  UNL     1      24.814   2.617  51.275  1.00  0.00     0.143 A 
HETATM    2  C3  UNL     1      26.174   2.684  50.939  1.00  0.00     0.177 A 
HETATM    3 CL1  UNL     1      26.798   3.137  49.362  1.00  0.00    -0.059 Cl
HETATM    4  N2  UNL     1      27.151   2.401  51.833  1.00  0.00    -0.048 NA
HETATM    5  C4  UNL     1      26.826   2.040  53.098  1.00  0.00     0.726 A 
HETATM    6  N5  UNL     1      25.526   1.974  53.429  1.00  0.00    -0.043 NA
HETATM    7  C7  UNL     1      24.533   2.249  52.567  1.00  0.00     0.179 A 
ENDROOT
BRANCH   7   8
HETATM    8  N6  UNL     1      23.179   2.159  52.951  1.00  0.00    -0.338 N 
HETATM    9  H10 UNL     1      22.618   3.063  52.942  1.00  0.00     0.167 HD
BRANCH   8  10
HETATM   10  C8  UNL     1      22.511   0.973  53.330  1.00  0.00     0.033 A 
HETATM   11  C9  UNL     1      21.156   0.814  53.459  1.00  0.00     0.029 A 
HETATM   12  C10 UNL     1      20.404  -0.271  53.808  1.00  0.00     0.002 A 
HETATM   13  C11 UNL     1      21.163  -1.414  54.083  1.00  0.00     0.000 A 
HETATM   14  C12 UNL     1      22.560  -1.363  53.983  1.00  0.00     0.002 A 
HETATM   15  C13 UNL     1      23.197  -0.205  53.621  1.00  0.00     0.029 A 
ENDBRANCH   8  10
ENDBRANCH   7   8
BRANCH   1  16
HETATM   16  N1  UNL     1      23.875   2.929  50.255  1.00  0.00    -0.265 NA
HETATM   17  C1  UNL     1      23.419   4.158  50.135  1.00  0.00     0.150 C 
ENDBRANCH   1  16
BRANCH   5  18
HETATM   18  N3  UNL     1      27.843   1.750  54.051  1.00  0.00    -0.221 N 
HETATM   19  H3  UNL     1      28.513   2.503  54.313  1.00  0.00     0.177 HD
BRANCH  18  20
HETATM   20  C5  UNL     1      27.944   0.431  54.645  1.00  0.00     0.168 C 
BRANCH  20  21
HETATM   21  C6  UNL     1      29.036  -0.360  53.918  1.00  0.00     0.286 C 
BRANCH  21  22
HETATM   22  N4  UNL     1      30.048   0.576  53.514  1.00  0.00     0.079 N 
HETATM   23  H8  UNL     1      29.999   0.783  52.474  1.00  0.00     0.312 HD
HETATM   24  H9  UNL     1      30.045   1.455  54.064  1.00  0.00     0.312 HD
ENDBRANCH  21  22
ENDBRANCH  20  21
ENDBRANCH  18  20
ENDBRANCH   5  18
TORSDOF 7
ENDMDL
MODEL 6
REMARK VINA RESULT:      -6.5      2.041      2.193
REMARK  7 active torsions:
REMARK  status: ('A' for Active; 'I' for Inactive)
REMARK    1  A    between atoms: N1_2  and  C2_3 
REMARK    2  A    between atoms: C4_7  and  N3_8 
REMARK    3  A    between atoms: N3_8  and  C5_9 
REMARK    4  A    between atoms: C5_9  and  C6_10 
REMARK    5  A    between atoms: C6_10  and  N4_11 
REMARK    6  A    between atoms: C7_13  and  N6_14 
REMARK    7  A    between atoms: N6_14  and  C8_15 
ROOT
HETATM    1  C2  UNL     1      23.645   1.154  52.981  1.00  0.00     0.143 A 
HETATM    2  C3  UNL     1      22.965   1.957  52.055  1.00  0.00     0.177 A 
HETATM    3 CL1  UNL     1      21.251   1.844  51.693  1.00  0.00    -0.059 Cl
HETATM    4  N2  UNL     1      23.593   2.924  51.344  1.00  0.00    -0.048 NA
HETATM    5  C4  UNL     1      24.920   3.139  51.518  1.00  0.00     0.726 A 
HETATM    6  N5  UNL     1      25.579   2.373  52.403  1.00  0.00    -0.043 NA
HETATM    7  C7  UNL     1      24.986   1.407  53.125  1.00  0.00     0.179 A 
ENDROOT
BRANCH   7   8
HETATM    8  N6  UNL     1      25.715   0.619  54.039  1.00  0.00    -0.338 N 
HETATM    9  H10 UNL     1      25.430   0.684  55.062  1.00  0.00     0.167 HD
BRANCH   8  10
HETATM   10  C8  UNL     1      26.776  -0.253  53.706  1.00  0.00     0.033 A 
HETATM   11  C9  UNL     1      28.091  -0.099  54.060  1.00  0.00     0.029 A 
HETATM   12  C10 UNL     1      29.190  -0.868  53.805  1.00  0.00     0.002 A 
HETATM   13  C11 UNL     1      28.912  -2.009  53.046  1.00  0.00     0.000 A 
HETATM   14  C12 UNL     1      27.599  -2.265  52.627  1.00  0.00     0.002 A 
HETATM   15  C13 UNL     1      26.579  -1.409  52.951  1.00  0.00     0.029 A 
ENDBRANCH   8  10
ENDBRANCH   7   8
BRANCH   1  16
HETATM   16  N1  UNL     1      22.886   0.166  53.667  1.00  0.00    -0.265 NA
HETATM   17  C1  UNL     1      22.686  -1.010  53.113  1.00  0.00     0.150 C 
ENDBRANCH   1  16
BRANCH   5  18
HETATM   18  N3  UNL     1      25.590   4.157  50.784  1.00  0.00    -0.221 N 
HETATM   19  H3  UNL     1      25.378   5.153  51.002  1.00  0.00     0.177 HD
BRANCH  18  20
HETATM   20  C5  UNL     1      26.550   3.815  49.753  1.00  0.00     0.168 C 
BRANCH  20  21
HETATM   21  C6  UNL     1      26.803   5.048  48.880  1.00  0.00     0.286 C 
BRANCH  21  22
HETATM   22  N4  UNL     1      28.209   5.337  48.938  1.00  0.00     0.079 N 
HETATM   23  H8  UNL     1      28.402   6.244  49.455  1.00  0.00     0.312 HD
HETATM   24  H9  UNL     1      28.776   4.562  49.331  1.00  0.00     0.312 HD
ENDBRANCH  21  22
ENDBRANCH  20  21
ENDBRANCH  18  20
ENDBRANCH   5  18
TORSDOF 7
ENDMDL
MODEL 7
REMARK VINA RESULT:      -6.5      2.145      4.573
REMARK  7 active torsions:
REMARK  status: ('A' for Active; 'I' for Inactive)
REMARK    1  A    between atoms: N1_2  and  C2_3 
REMARK    2  A    between atoms: C4_7  and  N3_8 
REMARK    3  A    between atoms: N3_8  and  C5_9 
REMARK    4  A    between atoms: C5_9  and  C6_10 
REMARK    5  A    between atoms: C6_10  and  N4_11 
REMARK    6  A    between atoms: C7_13  and  N6_14 
REMARK    7  A    between atoms: N6_14  and  C8_15 
ROOT
HETATM    1  C2  UNL     1      24.785   2.849  51.000  1.00  0.00     0.143 A 
HETATM    2  C3  UNL     1      23.595   2.526  50.332  1.00  0.00     0.177 A 
HETATM    3 CL1  UNL     1      23.098   3.192  48.786  1.00  0.00    -0.059 Cl
HETATM    4  N2  UNL     1      22.705   1.639  50.836  1.00  0.00    -0.048 NA
HETATM    5  C4  UNL     1      22.951   1.032  52.023  1.00  0.00     0.726 A 
HETATM    6  N5  UNL     1      24.089   1.336  52.670  1.00  0.00    -0.043 NA
HETATM    7  C7  UNL     1      24.993   2.210  52.197  1.00  0.00     0.179 A 
ENDROOT
BRANCH   7   8
HETATM    8  N6  UNL     1      26.172   2.509  52.911  1.00  0.00    -0.338 N 
HETATM    9  H10 UNL     1      26.266   3.498  53.288  1.00  0.00     0.167 HD
BRANCH   8  10
HETATM   10  C8  UNL     1      27.223   1.601  53.174  1.00  0.00     0.033 A 
HETATM   11  C9  UNL     1      27.211   0.255  52.921  1.00  0.00     0.029 A 
HETATM   12  C10 UNL     1      28.156  -0.710  53.123  1.00  0.00     0.002 A 
HETATM   13  C11 UNL     1      29.339  -0.225  53.692  1.00  0.00     0.000 A 
HETATM   14  C12 UNL     1      29.460   1.138  53.993  1.00  0.00     0.002 A 
HETATM   15  C13 UNL     1      28.431   2.008  53.740  1.00  0.00     0.029 A 
ENDBRANCH   8  10
ENDBRANCH   7   8
BRANCH   1  16
HETATM   16  N1  UNL     1      25.643   3.797  50.380  1.00  0.00    -0.265 NA
HETATM   17  C1  UNL     1      26.576   3.393  49.546  1.00  0.00     0.150 C 
ENDBRANCH   1  16
BRANCH   5  18
HETATM   18  N3  UNL     1      22.029   0.091  52.559  1.00  0.00    -0.221 N 
HETATM   19  H3  UNL     1      21.033   0.138  52.258  1.00  0.00     0.177 HD
BRANCH  18  20
HETATM   20  C5  UNL     1      22.467  -0.915  53.507  1.00  0.00     0.168 C 
BRANCH  20  21
HETATM   21  C6  UNL     1      21.342  -1.173  54.514  1.00  0.00     0.286 C 
BRANCH  21  22
HETATM   22  N4  UNL     1      20.702   0.086  54.776  1.00  0.00     0.079 N 
HETATM   23  H8  UNL     1      20.754   0.345  55.805  1.00  0.00     0.312 HD
HETATM   24  H9  UNL     1      21.052   0.862  54.184  1.00  0.00     0.312 HD
ENDBRANCH  21  22
ENDBRANCH  20  21
ENDBRANCH  18  20
ENDBRANCH   5  18
TORSDOF 7
ENDMDL
MODEL 8
REMARK VINA RESULT:      -6.3      1.665      2.296
REMARK  7 active torsions:
REMARK  status: ('A' for Active; 'I' for Inactive)
REMARK    1  A    between atoms: N1_2  and  C2_3 
REMARK    2  A    between atoms: C4_7  and  N3_8 
REMARK    3  A    between atoms: N3_8  and  C5_9 
REMARK    4  A    between atoms: C5_9  and  C6_10 
REMARK    5  A    between atoms: C6_10  and  N4_11 
REMARK    6  A    between atoms: C7_13  and  N6_14 
REMARK    7  A    between atoms: N6_14  and  C8_15 
ROOT
HETATM    1  C2  UNL     1      23.445   1.676  52.162  1.00  0.00     0.143 A 
HETATM    2  C3  UNL     1      22.384   2.553  52.432  1.00  0.00     0.177 A 
HETATM    3 CL1  UNL     1      20.766   2.058  52.900  1.00  0.00    -0.059 Cl
HETATM    4  N2  UNL     1      22.526   3.897  52.360  1.00  0.00    -0.048 NA
HETATM    5  C4  UNL     1      23.722   4.435  52.018  1.00  0.00     0.726 A 
HETATM    6  N5  UNL     1      24.744   3.602  51.757  1.00  0.00    -0.043 NA
HETATM    7  C7  UNL     1      24.637   2.264  51.820  1.00  0.00     0.179 A 
ENDROOT
BRANCH   7   8
HETATM    8  N6  UNL     1      25.731   1.424  51.530  1.00  0.00    -0.338 N 
HETATM    9  H10 UNL     1      25.731   0.947  50.580  1.00  0.00     0.167 HD
BRANCH   8  10
HETATM   10  C8  UNL     1      26.826   1.177  52.390  1.00  0.00     0.033 A 
HETATM   11  C9  UNL     1      27.241  -0.049  52.839  1.00  0.00     0.029 A 
HETATM   12  C10 UNL     1      28.274  -0.409  53.657  1.00  0.00     0.002 A 
HETATM   13  C11 UNL     1      29.033   0.675  54.110  1.00  0.00     0.000 A 
HETATM   14  C12 UNL     1      28.696   1.977  53.713  1.00  0.00     0.002 A 
HETATM   15  C13 UNL     1      27.628   2.204  52.885  1.00  0.00     0.029 A 
ENDBRANCH   8  10
ENDBRANCH   7   8
BRANCH   1  16
HETATM   16  N1  UNL     1      23.181   0.283  52.263  1.00  0.00    -0.265 NA
HETATM   17  C1  UNL     1      23.367  -0.340  53.407  1.00  0.00     0.150 C 
ENDBRANCH   1  16
BRANCH   5  18
HETATM   18  N3  UNL     1      23.887   5.846  51.948  1.00  0.00    -0.221 N 
HETATM   19  H3  UNL     1      23.966   6.386  52.835  1.00  0.00     0.177 HD
BRANCH  18  20
HETATM   20  C5  UNL     1      23.947   6.520  50.665  1.00  0.00     0.168 C 
BRANCH  20  21
HETATM   21  C6  UNL     1      25.347   7.112  50.479  1.00  0.00     0.286 C 
BRANCH  21  22
HETATM   22  N4  UNL     1      26.225   6.035  50.114  1.00  0.00     0.079 N 
HETATM   23  H8  UNL     1      27.074   6.384  49.580  1.00  0.00     0.312 HD
HETATM   24  H9  UNL     1      26.513   5.443  50.917  1.00  0.00     0.312 HD
ENDBRANCH  21  22
ENDBRANCH  20  21
ENDBRANCH  18  20
ENDBRANCH   5  18
TORSDOF 7
ENDMDL
MODEL 9
REMARK VINA RESULT:      -6.2      2.590      5.524
REMARK  7 active torsions:
REMARK  status: ('A' for Active; 'I' for Inactive)
REMARK    1  A    between atoms: N1_2  and  C2_3 
REMARK    2  A    between atoms: C4_7  and  N3_8 
REMARK    3  A    between atoms: N3_8  and  C5_9 
REMARK    4  A    between atoms: C5_9  and  C6_10 
REMARK    5  A    between atoms: C6_10  and  N4_11 
REMARK    6  A    between atoms: C7_13  and  N6_14 
REMARK    7  A    between atoms: N6_14  and  C8_15 
ROOT
HETATM    1  C2  UNL     1      22.491   0.454  53.406  1.00  0.00     0.143 A 
HETATM    2  C3  UNL     1      23.084  -0.602  54.113  1.00  0.00     0.177 A 
HETATM    3 CL1  UNL     1      22.229  -1.697  55.186  1.00  0.00    -0.059 Cl
HETATM    4  N2  UNL     1      24.406  -0.880  54.018  1.00  0.00    -0.048 NA
HETATM    5  C4  UNL     1      25.200  -0.125  53.220  1.00  0.00     0.726 A 
HETATM    6  N5  UNL     1      24.641   0.889  52.539  1.00  0.00    -0.043 NA
HETATM    7  C7  UNL     1      23.333   1.190  52.610  1.00  0.00     0.179 A 
ENDROOT
BRANCH   7   8
HETATM    8  N6  UNL     1      22.786   2.269  51.886  1.00  0.00    -0.338 N 
HETATM    9  H10 UNL     1      22.493   3.123  52.447  1.00  0.00     0.167 HD
BRANCH   8  10
HETATM   10  C8  UNL     1      22.609   2.310  50.484  1.00  0.00     0.033 A 
HETATM   11  C9  UNL     1      23.081   3.278  49.638  1.00  0.00     0.029 A 
HETATM   12  C10 UNL     1      22.980   3.421  48.284  1.00  0.00     0.002 A 
HETATM   13  C11 UNL     1      22.264   2.391  47.664  1.00  0.00     0.000 A 
HETATM   14  C12 UNL     1      21.734   1.348  48.435  1.00  0.00     0.002 A 
HETATM   15  C13 UNL     1      21.907   1.322  49.795  1.00  0.00     0.029 A 
ENDBRANCH   8  10
ENDBRANCH   7   8
BRANCH   1  16
HETATM   16  N1  UNL     1      21.096   0.657  53.586  1.00  0.00    -0.265 NA
HETATM   17  C1  UNL     1      20.235  -0.001  52.840  1.00  0.00     0.150 C 
ENDBRANCH   1  16
BRANCH   5  18
HETATM   18  N3  UNL     1      26.589  -0.411  53.104  1.00  0.00    -0.221 N 
HETATM   19  H3  UNL     1      26.927  -1.362  53.360  1.00  0.00     0.177 HD
BRANCH  18  20
HETATM   20  C5  UNL     1      27.516   0.601  52.636  1.00  0.00     0.168 C 
BRANCH  20  21
HETATM   21  C6  UNL     1      28.018   1.409  53.838  1.00  0.00     0.286 C 
BRANCH  21  22
HETATM   22  N4  UNL     1      27.236   2.611  53.905  1.00  0.00     0.079 N 
HETATM   23  H8  UNL     1      27.131   3.065  52.950  1.00  0.00     0.312 HD
HETATM   24  H9  UNL     1      26.310   2.481  54.353  1.00  0.00     0.312 HD
ENDBRANCH  21  22
ENDBRANCH  20  21
ENDBRANCH  18  20
ENDBRANCH   5  18
TORSDOF 7
ENDMDL
