MODEL 1
REMARK VINA RESULT:      -8.7      0.000      0.000
REMARK  4 active torsions:
REMARK  status: ('A' for Active; 'I' for Inactive)
REMARK    1  A    between atoms: C2_2  and  N1_3 
REMARK    2  A    between atoms: N1_3  and  C3_4 
REMARK    3  A    between atoms: C6_7  and  N2_8 
REMARK    4  A    between atoms: N2_8  and  C7_9 
ROOT
HETATM    1  C3  UNL     1      21.674   0.429  52.338  1.00  0.00     0.258 C 
HETATM    2  C4  UNL     1      22.955   1.063  52.216  1.00  0.00     0.058 C 
HETATM    3  C5  UNL     1      24.220   1.485  52.533  1.00  0.00     0.012 C 
HETATM    4  C6  UNL     1      25.043   2.294  51.567  1.00  0.00     0.046 C 
HETATM    5  C13 UNL     1      25.023   2.878  50.349  1.00  0.00     0.053 C 
HETATM    6  C14 UNL     1      26.178   3.606  49.820  1.00  0.00     0.098 C 
HETATM    7  N3  UNL     1      27.100   4.208  49.386  1.00  0.00    -0.192 NA
HETATM    8  C15 UNL     1      23.996   3.065  49.275  1.00  0.00     0.099 C 
HETATM    9  C16 UNL     1      22.662   2.599  49.625  1.00  0.00     0.094 C 
HETATM   10  N4  UNL     1      22.246   1.384  49.556  1.00  0.00    -0.277 NA
HETATM   11  C17 UNL     1      20.913   1.062  49.927  1.00  0.00     0.120 C 
HETATM   12  C18 UNL     1      20.788   0.657  51.155  1.00  0.00    -0.033 C 
HETATM   13  C19 UNL     1      19.386   0.237  51.513  1.00  0.00     0.047 C 
ENDROOT
BRANCH   4  14
HETATM   14  N2  UNL     1      26.341   2.449  52.149  1.00  0.00    -0.355 N 
HETATM   15  H10 UNL     1      26.841   3.413  52.169  1.00  0.00     0.166 HD
BRANCH  14  16
HETATM   16  C7  UNL     1      27.318   1.649  52.785  1.00  0.00     0.033 A 
HETATM   17  C8  UNL     1      28.281   2.172  53.644  1.00  0.00     0.029 A 
HETATM   18  C9  UNL     1      29.200   1.351  54.256  1.00  0.00     0.004 A 
HETATM   19  C10 UNL     1      29.171  -0.005  54.018  1.00  0.00     0.019 A 
HETATM   20  C11 UNL     1      28.210  -0.537  53.156  1.00  0.00     0.013 A 
HETATM   21 BR1  UNL     1      28.327  -2.438  52.957  1.00  0.00    -0.051 Br
HETATM   22  C12 UNL     1      27.280   0.291  52.538  1.00  0.00     0.048 A 
ENDBRANCH  14  16
ENDBRANCH   4  14
BRANCH   1  23
HETATM   23  N1  UNL     1      20.898   0.643  53.541  1.00  0.00     0.092 N 
HETATM   24  H6  UNL     1      20.934   1.684  53.771  1.00  0.00     0.316 HD
BRANCH  23  25
HETATM   25  C2  UNL     1      21.326  -0.103  54.681  1.00  0.00     0.266 C 
HETATM   26  C1  UNL     1      21.330  -1.589  54.284  1.00  0.00     0.037 C 
ENDBRANCH  23  25
ENDBRANCH   1  23
TORSDOF 4
ENDMDL
MODEL 2
REMARK VINA RESULT:      -8.3      3.346      6.100
REMARK  4 active torsions:
REMARK  status: ('A' for Active; 'I' for Inactive)
REMARK    1  A    between atoms: C2_2  and  N1_3 
REMARK    2  A    between atoms: N1_3  and  C3_4 
REMARK    3  A    between atoms: C6_7  and  N2_8 
REMARK    4  A    between atoms: N2_8  and  C7_9 
ROOT
HETATM    1  C3  UNL     1      26.809   0.841  53.289  1.00  0.00     0.258 C 
HETATM    2  C4  UNL     1      26.462   1.675  52.174  1.00  0.00     0.058 C 
HETATM    3  C5  UNL     1      26.598   2.542  51.122  1.00  0.00     0.012 C 
HETATM    4  C6  UNL     1      25.411   2.978  50.305  1.00  0.00     0.046 C 
HETATM    5  C13 UNL     1      24.070   2.862  50.193  1.00  0.00     0.053 C 
HETATM    6  C14 UNL     1      23.320   3.539  49.133  1.00  0.00     0.098 C 
HETATM    7  N3  UNL     1      22.700   4.091  48.290  1.00  0.00    -0.192 NA
HETATM    8  C15 UNL     1      22.989   2.198  50.988  1.00  0.00     0.099 C 
HETATM    9  C16 UNL     1      23.438   1.597  52.237  1.00  0.00     0.094 C 
HETATM   10  N4  UNL     1      23.987   0.441  52.363  1.00  0.00    -0.277 NA
HETATM   11  C17 UNL     1      24.377  -0.029  53.645  1.00  0.00     0.120 C 
HETATM   12  C18 UNL     1      25.623   0.197  53.935  1.00  0.00    -0.033 C 
HETATM   13  C19 UNL     1      26.049  -0.381  55.260  1.00  0.00     0.047 C 
ENDROOT
BRANCH   4  14
HETATM   14  N2  UNL     1      25.915   3.763  49.220  1.00  0.00    -0.355 N 
HETATM   15  H10 UNL     1      25.776   3.457  48.187  1.00  0.00     0.166 HD
BRANCH  14  16
HETATM   16  C7  UNL     1      26.634   4.965  49.028  1.00  0.00     0.033 A 
HETATM   17  C8  UNL     1      27.919   5.000  48.492  1.00  0.00     0.029 A 
HETATM   18  C9  UNL     1      28.573   6.196  48.305  1.00  0.00     0.004 A 
HETATM   19  C10 UNL     1      27.953   7.375  48.653  1.00  0.00     0.019 A 
HETATM   20  C11 UNL     1      26.665   7.350  49.192  1.00  0.00     0.013 A 
HETATM   21 BR1  UNL     1      25.972   9.086  49.604  1.00  0.00    -0.051 Br
HETATM   22  C12 UNL     1      26.003   6.142  49.380  1.00  0.00     0.048 A 
ENDBRANCH  14  16
ENDBRANCH   4  14
BRANCH   1  23
HETATM   23  N1  UNL     1      27.663   1.377  54.326  1.00  0.00     0.092 N 
HETATM   24  H6  UNL     1      27.317   2.359  54.557  1.00  0.00     0.316 HD
BRANCH  23  25
HETATM   25  C2  UNL     1      29.052   1.434  54.001  1.00  0.00     0.266 C 
HETATM   26  C1  UNL     1      29.514  -0.002  53.702  1.00  0.00     0.037 C 
ENDBRANCH  23  25
ENDBRANCH   1  23
TORSDOF 4
ENDMDL
MODEL 3
REMARK VINA RESULT:      -8.1      2.310      4.900
REMARK  4 active torsions:
REMARK  status: ('A' for Active; 'I' for Inactive)
REMARK    1  A    between atoms: C2_2  and  N1_3 
REMARK    2  A    between atoms: N1_3  and  C3_4 
REMARK    3  A    between atoms: C6_7  and  N2_8 
REMARK    4  A    between atoms: N2_8  and  C7_9 
ROOT
HETATM    1  C3  UNL     1      22.543   4.138  51.251  1.00  0.00     0.258 C 
HETATM    2  C4  UNL     1      22.906   2.942  51.955  1.00  0.00     0.058 C 
HETATM    3  C5  UNL     1      23.682   1.956  52.506  1.00  0.00     0.012 C 
HETATM    4  C6  UNL     1      23.072   0.805  53.259  1.00  0.00     0.046 C 
HETATM    5  C13 UNL     1      21.896   0.261  53.642  1.00  0.00     0.053 C 
HETATM    6  C14 UNL     1      21.834  -0.969  54.434  1.00  0.00     0.098 C 
HETATM    7  N3  UNL     1      21.768  -1.969  55.063  1.00  0.00    -0.192 NA
HETATM    8  C15 UNL     1      20.451   0.571  53.401  1.00  0.00     0.099 C 
HETATM    9  C16 UNL     1      20.214   1.658  52.461  1.00  0.00     0.094 C 
HETATM   10  N4  UNL     1      20.248   2.914  52.737  1.00  0.00    -0.277 NA
HETATM   11  C17 UNL     1      19.993   3.876  51.723  1.00  0.00     0.120 C 
HETATM   12  C18 UNL     1      21.064   4.338  51.152  1.00  0.00    -0.033 C 
HETATM   13  C19 UNL     1      20.789   5.420  50.138  1.00  0.00     0.047 C 
ENDROOT
BRANCH   4  14
HETATM   14  N2  UNL     1      24.151   0.043  53.808  1.00  0.00    -0.355 N 
HETATM   15  H10 UNL     1      24.002  -0.622  54.654  1.00  0.00     0.166 HD
BRANCH  14  16
HETATM   16  C7  UNL     1      25.534  -0.147  53.585  1.00  0.00     0.033 A 
HETATM   17  C8  UNL     1      26.056  -1.301  53.009  1.00  0.00     0.029 A 
HETATM   18  C9  UNL     1      27.408  -1.434  52.793  1.00  0.00     0.004 A 
HETATM   19  C10 UNL     1      28.260  -0.413  53.151  1.00  0.00     0.019 A 
HETATM   20  C11 UNL     1      27.746   0.749  53.731  1.00  0.00     0.013 A 
HETATM   21 BR1  UNL     1      29.084   2.052  54.152  1.00  0.00    -0.051 Br
HETATM   22  C12 UNL     1      26.380   0.884  53.948  1.00  0.00     0.048 A 
ENDBRANCH  14  16
ENDBRANCH   4  14
BRANCH   1  23
HETATM   23  N1  UNL     1      23.129   4.392  49.952  1.00  0.00     0.092 N 
HETATM   24  H6  UNL     1      23.068   3.490  49.386  1.00  0.00     0.316 HD
BRANCH  23  25
HETATM   25  C2  UNL     1      24.485   4.839  49.974  1.00  0.00     0.266 C 
HETATM   26  C1  UNL     1      25.353   3.701  49.413  1.00  0.00     0.037 C 
ENDBRANCH  23  25
ENDBRANCH   1  23
TORSDOF 4
ENDMDL
MODEL 4
REMARK VINA RESULT:      -7.7      3.694      5.407
REMARK  4 active torsions:
REMARK  status: ('A' for Active; 'I' for Inactive)
REMARK    1  A    between atoms: C2_2  and  N1_3 
REMARK    2  A    between atoms: N1_3  and  C3_4 
REMARK    3  A    between atoms: C6_7  and  N2_8 
REMARK    4  A    between atoms: N2_8  and  C7_9 
ROOT
HETATM    1  C3  UNL     1      23.683   0.566  52.711  1.00  0.00     0.258 C 
HETATM    2  C4  UNL     1      23.775   1.956  52.366  1.00  0.00     0.058 C 
HETATM    3  C5  UNL     1      24.321   3.183  52.095  1.00  0.00     0.012 C 
HETATM    4  C6  UNL     1      23.460   4.361  51.725  1.00  0.00     0.046 C 
HETATM    5  C13 UNL     1      22.181   4.759  51.554  1.00  0.00     0.053 C 
HETATM    6  C14 UNL     1      21.842   6.125  51.150  1.00  0.00     0.098 C 
HETATM    7  N3  UNL     1      21.552   7.229  50.836  1.00  0.00    -0.192 NA
HETATM    8  C15 UNL     1      20.836   4.128  51.744  1.00  0.00     0.099 C 
HETATM    9  C16 UNL     1      20.869   2.800  52.341  1.00  0.00     0.094 C 
HETATM   10  N4  UNL     1      21.093   1.698  51.716  1.00  0.00    -0.277 NA
HETATM   11  C17 UNL     1      21.094   0.464  52.419  1.00  0.00     0.120 C 
HETATM   12  C18 UNL     1      22.273   0.072  52.798  1.00  0.00    -0.033 C 
HETATM   13  C19 UNL     1      22.275  -1.278  53.468  1.00  0.00     0.047 C 
ENDROOT
BRANCH   4  14
HETATM   14  N2  UNL     1      24.343   5.434  51.380  1.00  0.00    -0.355 N 
HETATM   15  H10 UNL     1      24.363   6.357  51.952  1.00  0.00     0.166 HD
BRANCH  14  16
HETATM   16  C7  UNL     1      25.325   5.725  50.406  1.00  0.00     0.033 A 
HETATM   17  C8  UNL     1      25.994   4.738  49.688  1.00  0.00     0.029 A 
HETATM   18  C9  UNL     1      26.929   5.070  48.735  1.00  0.00     0.004 A 
HETATM   19  C10 UNL     1      27.210   6.395  48.485  1.00  0.00     0.019 A 
HETATM   20  C11 UNL     1      26.544   7.391  49.201  1.00  0.00     0.013 A 
HETATM   21 BR1  UNL     1      27.064   9.167  48.709  1.00  0.00    -0.051 Br
HETATM   22  C12 UNL     1      25.598   7.057  50.164  1.00  0.00     0.048 A 
ENDBRANCH  14  16
ENDBRANCH   4  14
BRANCH   1  23
HETATM   23  N1  UNL     1      24.412   0.079  53.861  1.00  0.00     0.092 N 
HETATM   24  H6  UNL     1      24.072   0.621  54.715  1.00  0.00     0.316 HD
BRANCH  23  25
HETATM   25  C2  UNL     1      25.833   0.190  53.772  1.00  0.00     0.266 C 
HETATM   26  C1  UNL     1      26.309  -0.829  52.723  1.00  0.00     0.037 C 
ENDBRANCH  23  25
ENDBRANCH   1  23
TORSDOF 4
ENDMDL
MODEL 5
REMARK VINA RESULT:      -7.5      3.119      7.373
REMARK  4 active torsions:
REMARK  status: ('A' for Active; 'I' for Inactive)
REMARK    1  A    between atoms: C2_2  and  N1_3 
REMARK    2  A    between atoms: N1_3  and  C3_4 
REMARK    3  A    between atoms: C6_7  and  N2_8 
REMARK    4  A    between atoms: N2_8  and  C7_9 
ROOT
HETATM    1  C3  UNL     1      24.589   3.133  50.797  1.00  0.00     0.258 C 
HETATM    2  C4  UNL     1      23.718   2.376  51.651  1.00  0.00     0.058 C 
HETATM    3  C5  UNL     1      22.578   1.967  52.292  1.00  0.00     0.012 C 
HETATM    4  C6  UNL     1      22.587   0.796  53.237  1.00  0.00     0.046 C 
HETATM    5  C13 UNL     1      23.386  -0.131  53.810  1.00  0.00     0.053 C 
HETATM    6  C14 UNL     1      22.864  -1.140  54.734  1.00  0.00     0.098 C 
HETATM    7  N3  UNL     1      22.458  -1.953  55.492  1.00  0.00    -0.192 NA
HETATM    8  C15 UNL     1      24.857  -0.413  53.810  1.00  0.00     0.099 C 
HETATM    9  C16 UNL     1      25.664   0.578  53.111  1.00  0.00     0.094 C 
HETATM   10  N4  UNL     1      25.861   0.629  51.842  1.00  0.00    -0.277 NA
HETATM   11  C17 UNL     1      26.677   1.651  51.286  1.00  0.00     0.120 C 
HETATM   12  C18 UNL     1      26.014   2.685  50.863  1.00  0.00    -0.033 C 
HETATM   13  C19 UNL     1      26.879   3.725  50.198  1.00  0.00     0.047 C 
ENDROOT
BRANCH   4  14
HETATM   14  N2  UNL     1      21.229   0.557  53.622  1.00  0.00    -0.355 N 
HETATM   15  H10 UNL     1      20.897   0.701  54.646  1.00  0.00     0.166 HD
BRANCH  14  16
HETATM   16  C7  UNL     1      20.020   0.134  53.026  1.00  0.00     0.033 A 
HETATM   17  C8  UNL     1      19.438   0.790  51.945  1.00  0.00     0.029 A 
HETATM   18  C9  UNL     1      18.269   0.329  51.385  1.00  0.00     0.004 A 
HETATM   19  C10 UNL     1      17.661  -0.794  51.899  1.00  0.00     0.019 A 
HETATM   20  C11 UNL     1      18.236  -1.459  52.985  1.00  0.00     0.013 A 
HETATM   21 BR1  UNL     1      17.250  -2.999  53.551  1.00  0.00    -0.051 Br
HETATM   22  C12 UNL     1      19.419  -0.995  53.550  1.00  0.00     0.048 A 
ENDBRANCH  14  16
ENDBRANCH   4  14
BRANCH   1  23
HETATM   23  N1  UNL     1      24.556   4.578  50.866  1.00  0.00     0.092 N 
HETATM   24  H6  UNL     1      24.514   4.853  51.896  1.00  0.00     0.316 HD
BRANCH  23  25
HETATM   25  C2  UNL     1      23.473   5.196  50.171  1.00  0.00     0.266 C 
HETATM   26  C1  UNL     1      22.457   5.663  51.227  1.00  0.00     0.037 C 
ENDBRANCH  23  25
ENDBRANCH   1  23
TORSDOF 4
ENDMDL
MODEL 6
REMARK VINA RESULT:      -7.4      3.086      4.999
REMARK  4 active torsions:
REMARK  status: ('A' for Active; 'I' for Inactive)
REMARK    1  A    between atoms: C2_2  and  N1_3 
REMARK    2  A    between atoms: N1_3  and  C3_4 
REMARK    3  A    between atoms: C6_7  and  N2_8 
REMARK    4  A    between atoms: N2_8  and  C7_9 
ROOT
HETATM    1  C3  UNL     1      20.168   0.870  52.772  1.00  0.00     0.258 C 
HETATM    2  C4  UNL     1      21.495   1.406  52.672  1.00  0.00     0.058 C 
HETATM    3  C5  UNL     1      22.521   2.259  52.356  1.00  0.00     0.012 C 
HETATM    4  C6  UNL     1      23.943   1.954  52.743  1.00  0.00     0.046 C 
HETATM    5  C13 UNL     1      24.731   1.034  53.339  1.00  0.00     0.053 C 
HETATM    6  C14 UNL     1      26.176   1.228  53.482  1.00  0.00     0.098 C 
HETATM    7  N3  UNL     1      27.346   1.365  53.594  1.00  0.00    -0.192 NA
HETATM    8  C15 UNL     1      24.524  -0.333  53.915  1.00  0.00     0.099 C 
HETATM    9  C16 UNL     1      23.184  -0.872  53.727  1.00  0.00     0.094 C 
HETATM   10  N4  UNL     1      22.157  -0.610  54.455  1.00  0.00    -0.277 NA
HETATM   11  C17 UNL     1      20.902  -1.208  54.164  1.00  0.00     0.120 C 
HETATM   12  C18 UNL     1      20.122  -0.472  53.430  1.00  0.00    -0.033 C 
HETATM   13  C19 UNL     1      18.762  -1.078  53.198  1.00  0.00     0.047 C 
ENDROOT
BRANCH   4  14
HETATM   14  N2  UNL     1      24.728   3.095  52.385  1.00  0.00    -0.355 N 
HETATM   15  H10 UNL     1      25.101   3.785  53.137  1.00  0.00     0.166 HD
BRANCH  14  16
HETATM   16  C7  UNL     1      25.241   3.703  51.216  1.00  0.00     0.033 A 
HETATM   17  C8  UNL     1      26.347   3.210  50.530  1.00  0.00     0.029 A 
HETATM   18  C9  UNL     1      26.799   3.824  49.385  1.00  0.00     0.004 A 
HETATM   19  C10 UNL     1      26.153   4.943  48.909  1.00  0.00     0.019 A 
HETATM   20  C11 UNL     1      25.043   5.446  49.592  1.00  0.00     0.013 A 
HETATM   21 BR1  UNL     1      24.278   7.000  48.774  1.00  0.00    -0.051 Br
HETATM   22  C12 UNL     1      24.585   4.825  50.748  1.00  0.00     0.048 A 
ENDBRANCH  14  16
ENDBRANCH   4  14
BRANCH   1  23
HETATM   23  N1  UNL     1      19.337   0.830  51.588  1.00  0.00     0.092 N 
HETATM   24  H6  UNL     1      19.843   0.241  50.856  1.00  0.00     0.316 HD
BRANCH  23  25
HETATM   25  C2  UNL     1      19.019   2.103  51.025  1.00  0.00     0.266 C 
HETATM   26  C1  UNL     1      19.421   2.063  49.541  1.00  0.00     0.037 C 
ENDBRANCH  23  25
ENDBRANCH   1  23
TORSDOF 4
ENDMDL
MODEL 7
REMARK VINA RESULT:      -7.3      2.986      5.526
REMARK  4 active torsions:
REMARK  status: ('A' for Active; 'I' for Inactive)
REMARK    1  A    between atoms: C2_2  and  N1_3 
REMARK    2  A    between atoms: N1_3  and  C3_4 
REMARK    3  A    between atoms: C6_7  and  N2_8 
REMARK    4  A    between atoms: N2_8  and  C7_9 
ROOT
HETATM    1  C3  UNL     1      25.265   0.124  53.454  1.00  0.00     0.258 C 
HETATM    2  C4  UNL     1      24.928   1.098  52.456  1.00  0.00     0.058 C 
HETATM    3  C5  UNL     1      25.075   2.083  51.515  1.00  0.00     0.012 C 
HETATM    4  C6  UNL     1      23.891   2.650  50.780  1.00  0.00     0.046 C 
HETATM    5  C13 UNL     1      22.545   2.588  50.679  1.00  0.00     0.053 C 
HETATM    6  C14 UNL     1      21.801   3.411  49.724  1.00  0.00     0.098 C 
HETATM    7  N3  UNL     1      21.186   4.080  48.966  1.00  0.00    -0.192 NA
HETATM    8  C15 UNL     1      21.456   1.862  51.407  1.00  0.00     0.099 C 
HETATM    9  C16 UNL     1      21.904   1.100  52.564  1.00  0.00     0.094 C 
HETATM   10  N4  UNL     1      22.420  -0.078  52.538  1.00  0.00    -0.277 NA
HETATM   11  C17 UNL     1      22.814  -0.713  53.746  1.00  0.00     0.120 C 
HETATM   12  C18 UNL     1      24.070  -0.560  54.038  1.00  0.00    -0.033 C 
HETATM   13  C19 UNL     1      24.497  -1.308  55.275  1.00  0.00     0.047 C 
ENDROOT
BRANCH   4  14
HETATM   14  N2  UNL     1      24.402   3.548  49.790  1.00  0.00    -0.355 N 
HETATM   15  H10 UNL     1      24.340   3.318  48.730  1.00  0.00     0.166 HD
BRANCH  14  16
HETATM   16  C7  UNL     1      25.054   4.801  49.733  1.00  0.00     0.033 A 
HETATM   17  C8  UNL     1      24.560   5.940  50.362  1.00  0.00     0.029 A 
HETATM   18  C9  UNL     1      25.240   7.135  50.295  1.00  0.00     0.004 A 
HETATM   19  C10 UNL     1      26.424   7.209  49.596  1.00  0.00     0.019 A 
HETATM   20  C11 UNL     1      26.926   6.072  48.961  1.00  0.00     0.013 A 
HETATM   21 BR1  UNL     1      28.583   6.372  48.047  1.00  0.00    -0.051 Br
HETATM   22  C12 UNL     1      26.241   4.864  49.029  1.00  0.00     0.048 A 
ENDBRANCH  14  16
ENDBRANCH   4  14
BRANCH   1  23
HETATM   23  N1  UNL     1      26.151   0.503  54.533  1.00  0.00     0.092 N 
HETATM   24  H6  UNL     1      25.782   1.412  54.953  1.00  0.00     0.316 HD
BRANCH  23  25
HETATM   25  C2  UNL     1      27.519   0.681  54.164  1.00  0.00     0.266 C 
HETATM   26  C1  UNL     1      27.967  -0.595  53.431  1.00  0.00     0.037 C 
ENDBRANCH  23  25
ENDBRANCH   1  23
TORSDOF 4
ENDMDL
MODEL 8
REMARK VINA RESULT:      -7.3      3.636      5.748
REMARK  4 active torsions:
REMARK  status: ('A' for Active; 'I' for Inactive)
REMARK    1  A    between atoms: C2_2  and  N1_3 
REMARK    2  A    between atoms: N1_3  and  C3_4 
REMARK    3  A    between atoms: C6_7  and  N2_8 
REMARK    4  A    between atoms: N2_8  and  C7_9 
ROOT
HETATM    1  C3  UNL     1      22.306   0.417  53.466  1.00  0.00     0.258 C 
HETATM    2  C4  UNL     1      22.839   1.336  52.503  1.00  0.00     0.058 C 
HETATM    3  C5  UNL     1      22.891   2.324  51.554  1.00  0.00     0.012 C 
HETATM    4  C6  UNL     1      24.195   2.757  50.941  1.00  0.00     0.046 C 
HETATM    5  C13 UNL     1      25.523   2.511  50.929  1.00  0.00     0.053 C 
HETATM    6  C14 UNL     1      26.446   3.280  50.092  1.00  0.00     0.098 C 
HETATM    7  N3  UNL     1      27.201   3.885  49.410  1.00  0.00    -0.192 NA
HETATM    8  C15 UNL     1      26.424   1.502  51.571  1.00  0.00     0.099 C 
HETATM    9  C16 UNL     1      25.732   0.465  52.324  1.00  0.00     0.094 C 
HETATM   10  N4  UNL     1      25.297   0.572  53.530  1.00  0.00    -0.277 NA
HETATM   11  C17 UNL     1      24.639  -0.522  54.153  1.00  0.00     0.120 C 
HETATM   12  C18 UNL     1      23.344  -0.479  54.064  1.00  0.00    -0.033 C 
HETATM   13  C19 UNL     1      22.651  -1.597  54.800  1.00  0.00     0.047 C 
ENDROOT
BRANCH   4  14
HETATM   14  N2  UNL     1      23.911   3.881  50.102  1.00  0.00    -0.355 N 
HETATM   15  H10 UNL     1      24.024   3.825  49.023  1.00  0.00     0.166 HD
BRANCH  14  16
HETATM   16  C7  UNL     1      23.479   5.220  50.237  1.00  0.00     0.033 A 
HETATM   17  C8  UNL     1      24.286   6.227  50.759  1.00  0.00     0.029 A 
HETATM   18  C9  UNL     1      23.828   7.521  50.853  1.00  0.00     0.004 A 
HETATM   19  C10 UNL     1      22.556   7.829  50.427  1.00  0.00     0.019 A 
HETATM   20  C11 UNL     1      21.738   6.825  49.903  1.00  0.00     0.013 A 
HETATM   21 BR1  UNL     1      20.010   7.448  49.361  1.00  0.00    -0.051 Br
HETATM   22  C12 UNL     1      22.200   5.518  49.806  1.00  0.00     0.048 A 
ENDBRANCH  14  16
ENDBRANCH   4  14
BRANCH   1  23
HETATM   23  N1  UNL     1      21.157  -0.386  53.107  1.00  0.00     0.092 N 
HETATM   24  H6  UNL     1      21.296  -0.725  52.105  1.00  0.00     0.316 HD
BRANCH  23  25
HETATM   25  C2  UNL     1      19.897   0.278  53.205  1.00  0.00     0.266 C 
HETATM   26  C1  UNL     1      19.127  -0.003  51.904  1.00  0.00     0.037 C 
ENDBRANCH  23  25
ENDBRANCH   1  23
TORSDOF 4
ENDMDL
MODEL 9
REMARK VINA RESULT:      -7.2      2.715      6.302
REMARK  4 active torsions:
REMARK  status: ('A' for Active; 'I' for Inactive)
REMARK    1  A    between atoms: C2_2  and  N1_3 
REMARK    2  A    between atoms: N1_3  and  C3_4 
REMARK    3  A    between atoms: C6_7  and  N2_8 
REMARK    4  A    between atoms: N2_8  and  C7_9 
ROOT
HETATM    1  C3  UNL     1      26.062   0.620  54.323  1.00  0.00     0.258 C 
HETATM    2  C4  UNL     1      25.075   1.175  53.442  1.00  0.00     0.058 C 
HETATM    3  C5  UNL     1      23.850   1.512  52.927  1.00  0.00     0.012 C 
HETATM    4  C6  UNL     1      23.724   2.303  51.653  1.00  0.00     0.046 C 
HETATM    5  C13 UNL     1      24.435   2.875  50.657  1.00  0.00     0.053 C 
HETATM    6  C14 UNL     1      23.787   3.596  49.559  1.00  0.00     0.098 C 
HETATM    7  N3  UNL     1      23.277   4.170  48.659  1.00  0.00    -0.192 NA
HETATM    8  C15 UNL     1      25.883   2.933  50.280  1.00  0.00     0.099 C 
HETATM    9  C16 UNL     1      26.758   2.118  51.111  1.00  0.00     0.094 C 
HETATM   10  N4  UNL     1      27.232   2.450  52.259  1.00  0.00    -0.277 NA
HETATM   11  C17 UNL     1      28.081   1.558  52.968  1.00  0.00     0.120 C 
HETATM   12  C18 UNL     1      27.463   0.818  53.838  1.00  0.00    -0.033 C 
HETATM   13  C19 UNL     1      28.383  -0.063  54.644  1.00  0.00     0.047 C 
ENDROOT
BRANCH   4  14
HETATM   14  N2  UNL     1      22.334   2.593  51.475  1.00  0.00    -0.355 N 
HETATM   15  H10 UNL     1      21.951   3.606  51.563  1.00  0.00     0.166 HD
BRANCH  14  16
HETATM   16  C7  UNL     1      21.137   1.899  51.190  1.00  0.00     0.033 A 
HETATM   17  C8  UNL     1      20.458   2.025  49.981  1.00  0.00     0.029 A 
HETATM   18  C9  UNL     1      19.305   1.314  49.741  1.00  0.00     0.004 A 
HETATM   19  C10 UNL     1      18.812   0.466  50.707  1.00  0.00     0.019 A 
HETATM   20  C11 UNL     1      19.485   0.334  51.923  1.00  0.00     0.013 A 
HETATM   21 BR1  UNL     1      18.649  -0.894  53.133  1.00  0.00    -0.051 Br
HETATM   22  C12 UNL     1      20.650   1.051  52.166  1.00  0.00     0.048 A 
ENDBRANCH  14  16
ENDBRANCH   4  14
BRANCH   1  23
HETATM   23  N1  UNL     1      25.917  -0.751  54.762  1.00  0.00     0.092 N 
HETATM   24  H6  UNL     1      25.512  -1.312  53.950  1.00  0.00     0.316 HD
BRANCH  23  25
HETATM   25  C2  UNL     1      25.095  -0.937  55.915  1.00  0.00     0.266 C 
HETATM   26  C1  UNL     1      23.710  -1.388  55.423  1.00  0.00     0.037 C 
ENDBRANCH  23  25
ENDBRANCH   1  23
TORSDOF 4
ENDMDL
