MODEL 1
REMARK VINA RESULT:      -8.4      0.000      0.000
REMARK  3 active torsions:
REMARK  status: ('A' for Active; 'I' for Inactive)
REMARK    1  A    between atoms: C2_2  and  O1_3 
REMARK    2  A    between atoms: O1_3  and  C3_4 
REMARK    3  A    between atoms: C26_31  and  N5_32 
ROOT
HETATM    1  C3  UNL     1      29.136   9.468  49.032  1.00  0.00     0.089 C 
HETATM    2  C4  UNL     1      28.123  10.292  48.839  1.00  0.00     0.041 C 
HETATM    3  C5  UNL     1      26.718  10.482  48.462  1.00  0.00     0.327 C 
HETATM    4  N1  UNL     1      25.674  11.126  48.232  1.00  0.00    -0.413 NA
HETATM    5  C6  UNL     1      24.449  10.552  47.833  1.00  0.00     0.093 C 
HETATM    6  C7  UNL     1      23.568   9.550  48.020  1.00  0.00     0.054 C 
HETATM    7  C8  UNL     1      22.381   9.445  47.274  1.00  0.00     0.098 C 
HETATM    8  N2  UNL     1      21.411   9.337  46.664  1.00  0.00    -0.192 NA
HETATM    9  C9  UNL     1      24.063   8.611  49.060  1.00  0.00     0.171 C 
HETATM   10  N3  UNL     1      24.143   7.263  48.479  1.00  0.00    -0.385 N 
HETATM   11  C10 UNL     1      24.855   6.117  49.015  1.00  0.00     0.029 C 
HETATM   12  C11 UNL     1      25.963   6.479  48.464  1.00  0.00     0.037 C 
HETATM   13  C12 UNL     1      26.851   5.392  48.969  1.00  0.00    -0.040 C 
HETATM   14  C13 UNL     1      26.793   4.354  49.785  1.00  0.00     0.090 C 
HETATM   15  N4  UNL     1      25.801   3.759  50.618  1.00  0.00    -0.394 N 
HETATM   16  C14 UNL     1      24.816   3.165  51.445  1.00  0.00     0.154 C 
HETATM   17  C15 UNL     1      23.518   3.883  51.600  1.00  0.00    -0.046 A 
HETATM   18  C16 UNL     1      22.812   4.612  52.470  1.00  0.00     0.006 A 
HETATM   19  C17 UNL     1      21.544   4.983  51.852  1.00  0.00    -0.002 A 
HETATM   20  C18 UNL     1      21.500   4.474  50.619  1.00  0.00    -0.008 A 
HETATM   21  C19 UNL     1      22.708   3.740  50.334  1.00  0.00     0.026 A 
HETATM   22  C20 UNL     1      22.632   2.390  49.738  1.00  0.00     0.027 C 
HETATM   23  C21 UNL     1      23.747   2.858  48.835  1.00  0.00     0.037 C 
HETATM   24  C22 UNL     1      23.633   4.267  49.267  1.00  0.00    -0.061 C 
HETATM   25  C23 UNL     1      23.662   5.583  49.586  1.00  0.00     0.033 C 
HETATM   26  C24 UNL     1      28.117   5.674  48.203  1.00  0.00     0.051 C 
HETATM   27  C25 UNL     1      28.728   6.973  48.570  1.00  0.00     0.052 C 
HETATM   28  C26 UNL     1      29.506   8.030  48.957  1.00  0.00     0.041 C 
HETATM   29  H11 UNL     1      23.610   7.101  47.599  1.00  0.00     0.160 HD
HETATM   30  H14 UNL     1      26.416   2.880  50.747  1.00  0.00     0.159 HD
ENDROOT
BRANCH   1  31
HETATM   31  O1  UNL     1      30.264  10.190  49.443  1.00  0.00    -0.350 OA
BRANCH  31  32
HETATM   32  C2  UNL     1      30.638  11.450  49.009  1.00  0.00     0.171 C 
HETATM   33  C1  UNL     1      31.630  11.399  47.832  1.00  0.00     0.034 C 
ENDBRANCH  31  32
ENDBRANCH   1  31
BRANCH  28  34
HETATM   34  N5  UNL     1      30.914   7.931  49.390  1.00  0.00    -0.400 N 
HETATM   35  H28 UNL     1      31.744   8.049  48.746  1.00  0.00     0.156 HD
HETATM   36  H29 UNL     1      31.139   7.730  50.401  1.00  0.00     0.156 HD
ENDBRANCH  28  34
TORSDOF 3
ENDMDL
MODEL 2
REMARK VINA RESULT:      -8.4      5.271      8.496
REMARK  3 active torsions:
REMARK  status: ('A' for Active; 'I' for Inactive)
REMARK    1  A    between atoms: C2_2  and  O1_3 
REMARK    2  A    between atoms: O1_3  and  C3_4 
REMARK    3  A    between atoms: C26_31  and  N5_32 
ROOT
HETATM    1  C3  UNL     1      25.573   0.837  53.764  1.00  0.00     0.089 C 
HETATM    2  C4  UNL     1      24.661  -0.113  53.668  1.00  0.00     0.041 C 
HETATM    3  C5  UNL     1      23.269  -0.489  53.402  1.00  0.00     0.327 C 
HETATM    4  N1  UNL     1      22.298  -1.264  53.280  1.00  0.00    -0.413 NA
HETATM    5  C6  UNL     1      20.991  -0.864  52.933  1.00  0.00     0.093 C 
HETATM    6  C7  UNL     1      20.232  -0.087  52.136  1.00  0.00     0.054 C 
HETATM    7  C8  UNL     1      18.828  -0.075  52.216  1.00  0.00     0.098 C 
HETATM    8  N2  UNL     1      17.679  -0.044  52.276  1.00  0.00    -0.192 NA
HETATM    9  C9  UNL     1      21.089   0.735  51.244  1.00  0.00     0.171 C 
HETATM   10  N3  UNL     1      20.772   2.154  51.460  1.00  0.00    -0.385 N 
HETATM   11  C10 UNL     1      21.559   3.303  51.049  1.00  0.00     0.029 C 
HETATM   12  C11 UNL     1      22.290   3.248  52.110  1.00  0.00     0.037 C 
HETATM   13  C12 UNL     1      23.222   4.377  51.819  1.00  0.00    -0.040 C 
HETATM   14  C13 UNL     1      23.481   5.233  50.846  1.00  0.00     0.090 C 
HETATM   15  N4  UNL     1      22.968   5.485  49.540  1.00  0.00    -0.394 N 
HETATM   16  C14 UNL     1      22.459   5.739  48.243  1.00  0.00     0.154 C 
HETATM   17  C15 UNL     1      21.458   4.780  47.692  1.00  0.00    -0.046 A 
HETATM   18  C16 UNL     1      21.318   3.797  46.798  1.00  0.00     0.006 A 
HETATM   19  C17 UNL     1      19.944   3.311  46.844  1.00  0.00    -0.002 A 
HETATM   20  C18 UNL     1      19.271   4.007  47.764  1.00  0.00    -0.008 A 
HETATM   21  C19 UNL     1      20.130   4.987  48.381  1.00  0.00     0.026 A 
HETATM   22  C20 UNL     1      19.669   6.381  48.539  1.00  0.00     0.027 C 
HETATM   23  C21 UNL     1      20.245   6.287  49.931  1.00  0.00     0.037 C 
HETATM   24  C22 UNL     1      20.466   4.828  49.842  1.00  0.00    -0.061 C 
HETATM   25  C23 UNL     1      20.751   3.504  49.893  1.00  0.00     0.033 C 
HETATM   26  C24 UNL     1      23.982   4.466  53.118  1.00  0.00     0.051 C 
HETATM   27  C25 UNL     1      24.795   3.258  53.386  1.00  0.00     0.052 C 
HETATM   28  C26 UNL     1      25.746   2.310  53.656  1.00  0.00     0.041 C 
HETATM   29  H11 UNL     1      19.870   2.364  51.937  1.00  0.00     0.160 HD
HETATM   30  H14 UNL     1      23.497   6.427  49.499  1.00  0.00     0.159 HD
ENDROOT
BRANCH   1  31
HETATM   31  O1  UNL     1      26.813   0.275  54.092  1.00  0.00    -0.350 OA
BRANCH  31  32
HETATM   32  C2  UNL     1      27.458  -0.749  53.418  1.00  0.00     0.171 C 
HETATM   33  C1  UNL     1      28.990  -0.643  53.512  1.00  0.00     0.034 C 
ENDBRANCH  31  32
ENDBRANCH   1  31
BRANCH  28  34
HETATM   34  N5  UNL     1      27.175   2.589  53.897  1.00  0.00    -0.400 N 
HETATM   35  H28 UNL     1      27.962   1.937  53.631  1.00  0.00     0.156 HD
HETATM   36  H29 UNL     1      27.460   3.491  54.366  1.00  0.00     0.156 HD
ENDBRANCH  28  34
TORSDOF 3
ENDMDL
MODEL 3
REMARK VINA RESULT:      -8.2      4.941      9.970
REMARK  3 active torsions:
REMARK  status: ('A' for Active; 'I' for Inactive)
REMARK    1  A    between atoms: C2_2  and  O1_3 
REMARK    2  A    between atoms: O1_3  and  C3_4 
REMARK    3  A    between atoms: C26_31  and  N5_32 
ROOT
HETATM    1  C3  UNL     1      19.523  -0.184  52.460  1.00  0.00     0.089 C 
HETATM    2  C4  UNL     1      20.651  -0.209  53.145  1.00  0.00     0.041 C 
HETATM    3  C5  UNL     1      22.072   0.143  53.229  1.00  0.00     0.327 C 
HETATM    4  N1  UNL     1      23.207   0.195  53.745  1.00  0.00    -0.413 NA
HETATM    5  C6  UNL     1      24.329   0.813  53.153  1.00  0.00     0.093 C 
HETATM    6  C7  UNL     1      24.792   1.883  52.476  1.00  0.00     0.054 C 
HETATM    7  C8  UNL     1      26.140   2.006  52.098  1.00  0.00     0.098 C 
HETATM    8  N2  UNL     1      27.238   2.118  51.772  1.00  0.00    -0.192 NA
HETATM    9  C9  UNL     1      23.684   2.828  52.180  1.00  0.00     0.171 C 
HETATM   10  N3  UNL     1      23.614   3.033  50.726  1.00  0.00    -0.385 N 
HETATM   11  C10 UNL     1      22.516   3.611  49.972  1.00  0.00     0.029 C 
HETATM   12  C11 UNL     1      21.901   2.481  49.898  1.00  0.00     0.037 C 
HETATM   13  C12 UNL     1      20.678   2.920  49.164  1.00  0.00    -0.040 C 
HETATM   14  C13 UNL     1      20.131   4.036  48.714  1.00  0.00     0.090 C 
HETATM   15  N4  UNL     1      20.466   5.421  48.728  1.00  0.00    -0.394 N 
HETATM   16  C14 UNL     1      20.799   6.798  48.740  1.00  0.00     0.154 C 
HETATM   17  C15 UNL     1      21.986   7.216  49.541  1.00  0.00    -0.046 A 
HETATM   18  C16 UNL     1      22.329   7.837  50.673  1.00  0.00     0.006 A 
HETATM   19  C17 UNL     1      23.784   7.860  50.774  1.00  0.00    -0.002 A 
HETATM   20  C18 UNL     1      24.300   7.254  49.702  1.00  0.00    -0.008 A 
HETATM   21  C19 UNL     1      23.249   6.798  48.827  1.00  0.00     0.026 A 
HETATM   22  C20 UNL     1      23.319   7.072  47.378  1.00  0.00     0.027 C 
HETATM   23  C21 UNL     1      22.886   5.636  47.207  1.00  0.00     0.037 C 
HETATM   24  C22 UNL     1      23.067   5.313  48.638  1.00  0.00    -0.061 C 
HETATM   25  C23 UNL     1      23.160   4.882  49.920  1.00  0.00     0.033 C 
HETATM   26  C24 UNL     1      20.011   1.596  48.895  1.00  0.00     0.051 C 
HETATM   27  C25 UNL     1      19.580   0.912  50.137  1.00  0.00     0.052 C 
HETATM   28  C26 UNL     1      18.946   0.277  51.170  1.00  0.00     0.041 C 
HETATM   29  H11 UNL     1      24.453   2.757  50.175  1.00  0.00     0.160 HD
HETATM   30  H14 UNL     1      19.698   5.629  47.997  1.00  0.00     0.159 HD
ENDROOT
BRANCH   1  31
HETATM   31  O1  UNL     1      18.509  -0.817  53.191  1.00  0.00    -0.350 OA
BRANCH  31  32
HETATM   32  C2  UNL     1      18.613  -2.015  53.877  1.00  0.00     0.171 C 
HETATM   33  C1  UNL     1      17.483  -2.999  53.520  1.00  0.00     0.034 C 
ENDBRANCH  31  32
ENDBRANCH   1  31
BRANCH  28  34
HETATM   34  N5  UNL     1      17.514  -0.082  51.192  1.00  0.00    -0.400 N 
HETATM   35  H28 UNL     1      16.735   0.561  50.884  1.00  0.00     0.156 HD
HETATM   36  H29 UNL     1      17.219  -1.036  51.532  1.00  0.00     0.156 HD
ENDBRANCH  28  34
TORSDOF 3
ENDMDL
MODEL 4
REMARK VINA RESULT:      -8.1      4.362      8.631
REMARK  3 active torsions:
REMARK  status: ('A' for Active; 'I' for Inactive)
REMARK    1  A    between atoms: C2_2  and  O1_3 
REMARK    2  A    between atoms: O1_3  and  C3_4 
REMARK    3  A    between atoms: C26_31  and  N5_32 
ROOT
HETATM    1  C3  UNL     1      22.084   0.477  52.086  1.00  0.00     0.089 C 
HETATM    2  C4  UNL     1      23.333   0.842  52.309  1.00  0.00     0.041 C 
HETATM    3  C5  UNL     1      24.525   1.567  51.855  1.00  0.00     0.327 C 
HETATM    4  N1  UNL     1      25.699   1.985  51.916  1.00  0.00    -0.413 NA
HETATM    5  C6  UNL     1      26.312   2.795  50.938  1.00  0.00     0.093 C 
HETATM    6  C7  UNL     1      26.176   3.850  50.111  1.00  0.00     0.054 C 
HETATM    7  C8  UNL     1      27.212   4.276  49.261  1.00  0.00     0.098 C 
HETATM    8  N2  UNL     1      28.045   4.630  48.550  1.00  0.00    -0.192 NA
HETATM    9  C9  UNL     1      24.809   4.420  50.218  1.00  0.00     0.171 C 
HETATM   10  N3  UNL     1      24.186   4.406  48.886  1.00  0.00    -0.385 N 
HETATM   11  C10 UNL     1      22.777   4.568  48.574  1.00  0.00     0.029 C 
HETATM   12  C11 UNL     1      22.536   3.316  48.761  1.00  0.00     0.037 C 
HETATM   13  C12 UNL     1      21.064   3.314  48.516  1.00  0.00    -0.040 C 
HETATM   14  C13 UNL     1      20.092   4.175  48.270  1.00  0.00     0.090 C 
HETATM   15  N4  UNL     1      19.988   5.589  48.123  1.00  0.00    -0.394 N 
HETATM   16  C14 UNL     1      19.882   6.994  47.977  1.00  0.00     0.154 C 
HETATM   17  C15 UNL     1      21.092   7.814  48.274  1.00  0.00    -0.046 A 
HETATM   18  C16 UNL     1      21.605   8.647  49.184  1.00  0.00     0.006 A 
HETATM   19  C17 UNL     1      22.930   9.068  48.743  1.00  0.00    -0.002 A 
HETATM   20  C18 UNL     1      23.199   8.485  47.572  1.00  0.00    -0.008 A 
HETATM   21  C19 UNL     1      22.096   7.655  47.157  1.00  0.00     0.026 A 
HETATM   22  C20 UNL     1      21.579   7.745  45.777  1.00  0.00     0.027 C 
HETATM   23  C21 UNL     1      21.557   6.236  45.815  1.00  0.00     0.037 C 
HETATM   24  C22 UNL     1      22.307   6.164  47.087  1.00  0.00    -0.061 C 
HETATM   25  C23 UNL     1      22.958   5.946  48.255  1.00  0.00     0.033 C 
HETATM   26  C24 UNL     1      20.768   1.837  48.546  1.00  0.00     0.051 C 
HETATM   27  C25 UNL     1      21.012   1.233  49.877  1.00  0.00     0.052 C 
HETATM   28  C26 UNL     1      20.990   0.594  51.087  1.00  0.00     0.041 C 
HETATM   29  H11 UNL     1      24.825   4.293  48.073  1.00  0.00     0.160 HD
HETATM   30  H14 UNL     1      18.990   5.488  47.721  1.00  0.00     0.159 HD
ENDROOT
BRANCH   1  31
HETATM   31  O1  UNL     1      21.618  -0.300  53.155  1.00  0.00    -0.350 OA
BRANCH  31  32
HETATM   32  C2  UNL     1      21.898  -0.107  54.498  1.00  0.00     0.171 C 
HETATM   33  C1  UNL     1      22.613  -1.315  55.130  1.00  0.00     0.034 C 
ENDBRANCH  31  32
ENDBRANCH   1  31
BRANCH  28  34
HETATM   34  N5  UNL     1      19.827  -0.126  51.642  1.00  0.00    -0.400 N 
HETATM   35  H28 UNL     1      19.710  -0.368  52.664  1.00  0.00     0.156 HD
HETATM   36  H29 UNL     1      19.046  -0.433  51.002  1.00  0.00     0.156 HD
ENDBRANCH  28  34
TORSDOF 3
ENDMDL
MODEL 5
REMARK VINA RESULT:      -8.0      2.934      4.190
REMARK  3 active torsions:
REMARK  status: ('A' for Active; 'I' for Inactive)
REMARK    1  A    between atoms: C2_2  and  O1_3 
REMARK    2  A    between atoms: O1_3  and  C3_4 
REMARK    3  A    between atoms: C26_31  and  N5_32 
ROOT
HETATM    1  C3  UNL     1      25.541   8.336  48.448  1.00  0.00     0.089 C 
HETATM    2  C4  UNL     1      24.811   8.393  47.349  1.00  0.00     0.041 C 
HETATM    3  C5  UNL     1      23.922   7.714  46.401  1.00  0.00     0.327 C 
HETATM    4  N1  UNL     1      23.201   7.607  45.388  1.00  0.00    -0.413 NA
HETATM    5  C6  UNL     1      22.512   6.433  45.015  1.00  0.00     0.093 C 
HETATM    6  C7  UNL     1      21.761   5.395  45.432  1.00  0.00     0.054 C 
HETATM    7  C8  UNL     1      21.287   4.409  44.549  1.00  0.00     0.098 C 
HETATM    8  N2  UNL     1      20.901   3.588  43.841  1.00  0.00    -0.192 NA
HETATM    9  C9  UNL     1      21.572   5.449  46.905  1.00  0.00     0.171 C 
HETATM   10  N3  UNL     1      22.070   4.197  47.491  1.00  0.00    -0.385 N 
HETATM   11  C10 UNL     1      22.373   3.940  48.888  1.00  0.00     0.029 C 
HETATM   12  C11 UNL     1      23.562   4.424  48.775  1.00  0.00     0.037 C 
HETATM   13  C12 UNL     1      24.018   4.275  50.188  1.00  0.00    -0.040 C 
HETATM   14  C13 UNL     1      23.535   3.895  51.358  1.00  0.00     0.090 C 
HETATM   15  N4  UNL     1      22.279   3.434  51.848  1.00  0.00    -0.394 N 
HETATM   16  C14 UNL     1      21.031   2.974  52.336  1.00  0.00     0.154 C 
HETATM   17  C15 UNL     1      19.869   3.002  51.401  1.00  0.00    -0.046 A 
HETATM   18  C16 UNL     1      18.737   3.663  51.143  1.00  0.00     0.006 A 
HETATM   19  C17 UNL     1      18.092   3.058  49.983  1.00  0.00    -0.002 A 
HETATM   20  C18 UNL     1      18.842   2.039  49.556  1.00  0.00    -0.008 A 
HETATM   21  C19 UNL     1      20.013   1.893  50.385  1.00  0.00     0.026 A 
HETATM   22  C20 UNL     1      20.397   0.563  50.898  1.00  0.00     0.027 C 
HETATM   23  C21 UNL     1      21.801   0.949  50.503  1.00  0.00     0.037 C 
HETATM   24  C22 UNL     1      21.364   2.156  49.771  1.00  0.00    -0.061 C 
HETATM   25  C23 UNL     1      21.114   3.302  49.092  1.00  0.00     0.033 C 
HETATM   26  C24 UNL     1      25.470   4.662  50.065  1.00  0.00     0.051 C 
HETATM   27  C25 UNL     1      25.650   6.079  49.673  1.00  0.00     0.052 C 
HETATM   28  C26 UNL     1      25.965   7.403  49.525  1.00  0.00     0.041 C 
HETATM   29  H11 UNL     1      22.197   3.394  46.840  1.00  0.00     0.160 HD
HETATM   30  H14 UNL     1      22.737   3.126  52.777  1.00  0.00     0.159 HD
ENDROOT
BRANCH   1  31
HETATM   31  O1  UNL     1      26.138   9.580  48.687  1.00  0.00    -0.350 OA
BRANCH  31  32
HETATM   32  C2  UNL     1      26.471  10.531  47.737  1.00  0.00     0.171 C 
HETATM   33  C1  UNL     1      25.974  11.939  48.112  1.00  0.00     0.034 C 
ENDBRANCH  31  32
ENDBRANCH   1  31
BRANCH  28  34
HETATM   34  N5  UNL     1      26.817   8.178  50.448  1.00  0.00    -0.400 N 
HETATM   35  H28 UNL     1      26.656   8.250  51.489  1.00  0.00     0.156 HD
HETATM   36  H29 UNL     1      27.650   8.707  50.072  1.00  0.00     0.156 HD
ENDBRANCH  28  34
TORSDOF 3
ENDMDL
MODEL 6
REMARK VINA RESULT:      -7.9      4.099      7.882
REMARK  3 active torsions:
REMARK  status: ('A' for Active; 'I' for Inactive)
REMARK    1  A    between atoms: C2_2  and  O1_3 
REMARK    2  A    between atoms: O1_3  and  C3_4 
REMARK    3  A    between atoms: C26_31  and  N5_32 
ROOT
HETATM    1  C3  UNL     1      24.872   4.676  49.698  1.00  0.00     0.089 C 
HETATM    2  C4  UNL     1      25.092   3.521  50.299  1.00  0.00     0.041 C 
HETATM    3  C5  UNL     1      24.619   2.476  51.212  1.00  0.00     0.327 C 
HETATM    4  N1  UNL     1      24.681   1.408  51.856  1.00  0.00    -0.413 NA
HETATM    5  C6  UNL     1      23.661   0.922  52.700  1.00  0.00     0.093 C 
HETATM    6  C7  UNL     1      22.338   0.725  52.861  1.00  0.00     0.054 C 
HETATM    7  C8  UNL     1      21.801   0.134  54.018  1.00  0.00     0.098 C 
HETATM    8  N2  UNL     1      21.345  -0.337  54.963  1.00  0.00    -0.192 NA
HETATM    9  C9  UNL     1      21.590   1.251  51.690  1.00  0.00     0.171 C 
HETATM   10  N3  UNL     1      20.614   2.245  52.160  1.00  0.00    -0.385 N 
HETATM   11  C10 UNL     1      19.902   3.225  51.359  1.00  0.00     0.029 C 
HETATM   12  C11 UNL     1      20.876   4.067  51.427  1.00  0.00     0.037 C 
HETATM   13  C12 UNL     1      20.309   5.160  50.584  1.00  0.00    -0.040 C 
HETATM   14  C13 UNL     1      19.243   5.394  49.838  1.00  0.00     0.090 C 
HETATM   15  N4  UNL     1      18.076   4.669  49.460  1.00  0.00    -0.394 N 
HETATM   16  C14 UNL     1      16.915   3.949  49.085  1.00  0.00     0.154 C 
HETATM   17  C15 UNL     1      16.833   2.513  49.480  1.00  0.00    -0.046 A 
HETATM   18  C16 UNL     1      16.914   1.276  48.982  1.00  0.00     0.006 A 
HETATM   19  C17 UNL     1      16.711   0.320  50.065  1.00  0.00    -0.002 A 
HETATM   20  C18 UNL     1      16.509   0.992  51.201  1.00  0.00    -0.008 A 
HETATM   21  C19 UNL     1      16.558   2.412  50.961  1.00  0.00     0.026 A 
HETATM   22  C20 UNL     1      15.507   3.293  51.507  1.00  0.00     0.027 C 
HETATM   23  C21 UNL     1      16.642   4.207  51.898  1.00  0.00     0.037 C 
HETATM   24  C22 UNL     1      17.682   3.206  51.578  1.00  0.00    -0.061 C 
HETATM   25  C23 UNL     1      18.739   2.403  51.303  1.00  0.00     0.033 C 
HETATM   26  C24 UNL     1      21.338   6.242  50.783  1.00  0.00     0.051 C 
HETATM   27  C25 UNL     1      22.663   5.878  50.230  1.00  0.00     0.052 C 
HETATM   28  C26 UNL     1      23.866   5.765  49.586  1.00  0.00     0.041 C 
HETATM   29  H11 UNL     1      20.387   2.232  53.176  1.00  0.00     0.160 HD
HETATM   30  H14 UNL     1      17.622   5.571  49.075  1.00  0.00     0.159 HD
ENDROOT
BRANCH   1  31
HETATM   31  O1  UNL     1      25.964   5.004  48.885  1.00  0.00    -0.350 OA
BRANCH  31  32
HETATM   32  C2  UNL     1      27.248   4.496  48.984  1.00  0.00     0.171 C 
HETATM   33  C1  UNL     1      28.302   5.428  48.360  1.00  0.00     0.034 C 
ENDBRANCH  31  32
ENDBRANCH   1  31
BRANCH  28  34
HETATM   34  N5  UNL     1      24.405   6.745  48.623  1.00  0.00    -0.400 N 
HETATM   35  H28 UNL     1      24.099   6.819  47.615  1.00  0.00     0.156 HD
HETATM   36  H29 UNL     1      25.148   7.429  48.932  1.00  0.00     0.156 HD
ENDBRANCH  28  34
TORSDOF 3
ENDMDL
MODEL 7
REMARK VINA RESULT:      -7.9      7.825     11.212
REMARK  3 active torsions:
REMARK  status: ('A' for Active; 'I' for Inactive)
REMARK    1  A    between atoms: C2_2  and  O1_3 
REMARK    2  A    between atoms: O1_3  and  C3_4 
REMARK    3  A    between atoms: C26_31  and  N5_32 
ROOT
HETATM    1  C3  UNL     1      20.832   0.738  53.073  1.00  0.00     0.089 C 
HETATM    2  C4  UNL     1      21.004   1.887  52.445  1.00  0.00     0.041 C 
HETATM    3  C5  UNL     1      20.482   2.899  51.521  1.00  0.00     0.327 C 
HETATM    4  N1  UNL     1      20.498   3.955  50.856  1.00  0.00    -0.413 NA
HETATM    5  C6  UNL     1      19.449   4.391  50.020  1.00  0.00     0.093 C 
HETATM    6  C7  UNL     1      18.116   4.542  49.880  1.00  0.00     0.054 C 
HETATM    7  C8  UNL     1      17.541   5.093  48.722  1.00  0.00     0.098 C 
HETATM    8  N2  UNL     1      17.053   5.530  47.776  1.00  0.00    -0.192 NA
HETATM    9  C9  UNL     1      17.407   4.016  51.075  1.00  0.00     0.171 C 
HETATM   10  N3  UNL     1      16.456   2.982  50.641  1.00  0.00    -0.385 N 
HETATM   11  C10 UNL     1      15.790   1.996  51.474  1.00  0.00     0.029 C 
HETATM   12  C11 UNL     1      16.789   1.185  51.405  1.00  0.00     0.037 C 
HETATM   13  C12 UNL     1      16.272   0.091  52.279  1.00  0.00    -0.040 C 
HETATM   14  C13 UNL     1      15.228  -0.162  53.049  1.00  0.00     0.090 C 
HETATM   15  N4  UNL     1      14.045   0.533  53.433  1.00  0.00    -0.394 N 
HETATM   16  C14 UNL     1      12.868   1.223  53.816  1.00  0.00     0.154 C 
HETATM   17  C15 UNL     1      12.732   2.647  53.395  1.00  0.00    -0.046 A 
HETATM   18  C16 UNL     1      12.782   3.896  53.867  1.00  0.00     0.006 A 
HETATM   19  C17 UNL     1      12.530   4.824  52.769  1.00  0.00    -0.002 A 
HETATM   20  C18 UNL     1      12.330   4.123  51.650  1.00  0.00    -0.008 A 
HETATM   21  C19 UNL     1      12.429   2.710  51.917  1.00  0.00     0.026 A 
HETATM   22  C20 UNL     1      11.397   1.785  51.407  1.00  0.00     0.027 C 
HETATM   23  C21 UNL     1      12.554   0.901  51.014  1.00  0.00     0.037 C 
HETATM   24  C22 UNL     1      13.567   1.940  51.295  1.00  0.00    -0.061 C 
HETATM   25  C23 UNL     1      14.601   2.781  51.535  1.00  0.00     0.033 C 
HETATM   26  C24 UNL     1      17.332  -0.962  52.082  1.00  0.00     0.051 C 
HETATM   27  C25 UNL     1      18.654  -0.544  52.604  1.00  0.00     0.052 C 
HETATM   28  C26 UNL     1      19.864  -0.380  53.224  1.00  0.00     0.041 C 
HETATM   29  H11 UNL     1      16.210   2.968  49.630  1.00  0.00     0.160 HD
HETATM   30  H14 UNL     1      13.627  -0.375  53.844  1.00  0.00     0.159 HD
ENDROOT
BRANCH   1  31
HETATM   31  O1  UNL     1      21.948   0.461  53.872  1.00  0.00    -0.350 OA
BRANCH  31  32
HETATM   32  C2  UNL     1      23.276   0.646  53.526  1.00  0.00     0.171 C 
HETATM   33  C1  UNL     1      24.156  -0.560  53.900  1.00  0.00     0.034 C 
ENDBRANCH  31  32
ENDBRANCH   1  31
BRANCH  28  34
HETATM   34  N5  UNL     1      20.451  -1.323  54.195  1.00  0.00    -0.400 N 
HETATM   35  H28 UNL     1      19.955  -1.673  55.060  1.00  0.00     0.156 HD
HETATM   36  H29 UNL     1      21.430  -1.688  54.045  1.00  0.00     0.156 HD
ENDBRANCH  28  34
TORSDOF 3
ENDMDL
MODEL 8
REMARK VINA RESULT:      -7.7      5.894     10.063
REMARK  3 active torsions:
REMARK  status: ('A' for Active; 'I' for Inactive)
REMARK    1  A    between atoms: C2_2  and  O1_3 
REMARK    2  A    between atoms: O1_3  and  C3_4 
REMARK    3  A    between atoms: C26_31  and  N5_32 
ROOT
HETATM    1  C3  UNL     1      18.039  -0.050  52.009  1.00  0.00     0.089 C 
HETATM    2  C4  UNL     1      17.939   1.061  51.303  1.00  0.00     0.041 C 
HETATM    3  C5  UNL     1      18.476   2.385  50.971  1.00  0.00     0.327 C 
HETATM    4  N1  UNL     1      18.516   3.488  50.387  1.00  0.00    -0.413 NA
HETATM    5  C6  UNL     1      19.513   4.465  50.588  1.00  0.00     0.093 C 
HETATM    6  C7  UNL     1      20.830   4.707  50.738  1.00  0.00     0.054 C 
HETATM    7  C8  UNL     1      21.339   6.005  50.924  1.00  0.00     0.098 C 
HETATM    8  N2  UNL     1      21.770   7.058  51.088  1.00  0.00    -0.192 NA
HETATM    9  C9  UNL     1      21.597   3.434  50.718  1.00  0.00     0.171 C 
HETATM   10  N3  UNL     1      22.364   3.326  51.967  1.00  0.00    -0.385 N 
HETATM   11  C10 UNL     1      22.992   2.135  52.511  1.00  0.00     0.029 C 
HETATM   12  C11 UNL     1      21.901   1.755  53.083  1.00  0.00     0.037 C 
HETATM   13  C12 UNL     1      22.374   0.470  53.676  1.00  0.00    -0.040 C 
HETATM   14  C13 UNL     1      23.457  -0.288  53.682  1.00  0.00     0.090 C 
HETATM   15  N4  UNL     1      24.750  -0.232  53.085  1.00  0.00    -0.394 N 
HETATM   16  C14 UNL     1      26.036  -0.179  52.494  1.00  0.00     0.154 C 
HETATM   17  C15 UNL     1      26.296   0.902  51.499  1.00  0.00    -0.046 A 
HETATM   18  C16 UNL     1      26.449   1.116  50.189  1.00  0.00     0.006 A 
HETATM   19  C17 UNL     1      26.691   2.538  49.970  1.00  0.00    -0.002 A 
HETATM   20  C18 UNL     1      26.682   3.163  51.150  1.00  0.00    -0.008 A 
HETATM   21  C19 UNL     1      26.443   2.223  52.216  1.00  0.00     0.026 A 
HETATM   22  C20 UNL     1      27.294   2.237  53.423  1.00  0.00     0.027 C 
HETATM   23  C21 UNL     1      26.003   2.096  54.190  1.00  0.00     0.037 C 
HETATM   24  C22 UNL     1      25.160   2.338  53.000  1.00  0.00    -0.061 C 
HETATM   25  C23 UNL     1      24.266   2.515  51.997  1.00  0.00     0.033 C 
HETATM   26  C24 UNL     1      21.180   0.078  54.507  1.00  0.00     0.051 C 
HETATM   27  C25 UNL     1      19.982  -0.210  53.684  1.00  0.00     0.052 C 
HETATM   28  C26 UNL     1      18.876  -0.706  53.048  1.00  0.00     0.041 C 
HETATM   29  H11 UNL     1      22.495   4.202  52.513  1.00  0.00     0.160 HD
HETATM   30  H14 UNL     1      25.098  -1.027  53.730  1.00  0.00     0.159 HD
ENDROOT
BRANCH   1  31
HETATM   31  O1  UNL     1      16.991  -0.918  51.679  1.00  0.00    -0.350 OA
BRANCH  31  32
HETATM   32  C2  UNL     1      15.791  -0.572  51.081  1.00  0.00     0.171 C 
HETATM   33  C1  UNL     1      15.381  -1.553  49.968  1.00  0.00     0.034 C 
ENDBRANCH  31  32
ENDBRANCH   1  31
BRANCH  28  34
HETATM   34  N5  UNL     1      18.288  -2.038  53.288  1.00  0.00    -0.400 N 
HETATM   35  H28 UNL     1      18.757  -2.805  53.845  1.00  0.00     0.156 HD
HETATM   36  H29 UNL     1      17.338  -2.272  52.891  1.00  0.00     0.156 HD
ENDBRANCH  28  34
TORSDOF 3
ENDMDL
MODEL 9
REMARK VINA RESULT:      -7.7      6.573      9.290
REMARK  3 active torsions:
REMARK  status: ('A' for Active; 'I' for Inactive)
REMARK    1  A    between atoms: C2_2  and  O1_3 
REMARK    2  A    between atoms: O1_3  and  C3_4 
REMARK    3  A    between atoms: C26_31  and  N5_32 
ROOT
HETATM    1  C3  UNL     1      29.700  11.805  47.349  1.00  0.00     0.089 C 
HETATM    2  C4  UNL     1      30.410  12.115  46.280  1.00  0.00     0.041 C 
HETATM    3  C5  UNL     1      31.633  11.927  45.492  1.00  0.00     0.327 C 
HETATM    4  N1  UNL     1      32.420  12.118  44.543  1.00  0.00    -0.413 NA
HETATM    5  C6  UNL     1      33.661  11.466  44.388  1.00  0.00     0.093 C 
HETATM    6  C7  UNL     1      34.332  10.300  44.466  1.00  0.00     0.054 C 
HETATM    7  C8  UNL     1      35.703  10.200  44.169  1.00  0.00     0.098 C 
HETATM    8  N2  UNL     1      36.826  10.104  43.941  1.00  0.00    -0.192 NA
HETATM    9  C9  UNL     1      33.432   9.215  44.935  1.00  0.00     0.171 C 
HETATM   10  N3  UNL     1      34.004   8.620  46.152  1.00  0.00    -0.385 N 
HETATM   11  C10 UNL     1      33.329   7.764  47.112  1.00  0.00     0.029 C 
HETATM   12  C11 UNL     1      32.856   8.772  47.760  1.00  0.00     0.037 C 
HETATM   13  C12 UNL     1      32.067   8.044  48.796  1.00  0.00    -0.040 C 
HETATM   14  C13 UNL     1      31.730   6.804  49.106  1.00  0.00     0.090 C 
HETATM   15  N4  UNL     1      31.969   5.510  48.559  1.00  0.00    -0.394 N 
HETATM   16  C14 UNL     1      32.205   4.223  48.017  1.00  0.00     0.154 C 
HETATM   17  C15 UNL     1      32.899   4.144  46.698  1.00  0.00    -0.046 A 
HETATM   18  C16 UNL     1      32.681   3.885  45.406  1.00  0.00     0.006 A 
HETATM   19  C17 UNL     1      33.940   4.020  44.681  1.00  0.00    -0.002 A 
HETATM   20  C18 UNL     1      34.901   4.358  45.545  1.00  0.00    -0.008 A 
HETATM   21  C19 UNL     1      34.363   4.466  46.878  1.00  0.00     0.026 A 
HETATM   22  C20 UNL     1      35.055   3.819  48.011  1.00  0.00     0.027 C 
HETATM   23  C21 UNL     1      34.800   5.111  48.749  1.00  0.00     0.037 C 
HETATM   24  C22 UNL     1      34.343   5.822  47.536  1.00  0.00    -0.061 C 
HETATM   25  C23 UNL     1      33.878   6.589  46.520  1.00  0.00     0.033 C 
HETATM   26  C24 UNL     1      31.641   9.182  49.688  1.00  0.00     0.051 C 
HETATM   27  C25 UNL     1      30.734  10.133  49.005  1.00  0.00     0.052 C 
HETATM   28  C26 UNL     1      29.735  10.964  48.574  1.00  0.00     0.041 C 
HETATM   29  H11 UNL     1      35.010   8.811  46.337  1.00  0.00     0.160 HD
HETATM   30  H14 UNL     1      31.594   5.045  49.459  1.00  0.00     0.159 HD
ENDROOT
BRANCH   1  31
HETATM   31  O1  UNL     1      28.494  12.518  47.342  1.00  0.00    -0.350 OA
BRANCH  31  32
HETATM   32  C2  UNL     1      28.123  13.501  46.439  1.00  0.00     0.171 C 
HETATM   33  C1  UNL     1      27.977  14.883  47.100  1.00  0.00     0.034 C 
ENDBRANCH  31  32
ENDBRANCH   1  31
BRANCH  28  34
HETATM   34  N5  UNL     1      28.457  11.186  49.279  1.00  0.00    -0.400 N 
HETATM   35  H28 UNL     1      27.734  10.435  49.452  1.00  0.00     0.156 HD
HETATM   36  H29 UNL     1      28.220  12.148  49.644  1.00  0.00     0.156 HD
ENDBRANCH  28  34
TORSDOF 3
ENDMDL
