MODEL 1
REMARK VINA RESULT:      -9.1      0.000      0.000
REMARK  4 active torsions:
REMARK  status: ('A' for Active; 'I' for Inactive)
REMARK    1  A    between atoms: C3_3  and  C4_4 
REMARK    2  A    between atoms: C4_4  and  C5_5 
REMARK    3  A    between atoms: C5_5  and  C6_6 
REMARK    4  A    between atoms: C15_18  and  O2_19 
ROOT
HETATM    1  C1  UNL     1      28.655  -2.737  53.084  1.00  0.00     0.091 C 
HETATM    2  C2  UNL     1      29.399  -1.663  53.258  1.00  0.00    -0.176 C 
HETATM    3  C3  UNL     1      29.959  -0.501  53.482  1.00  0.00     0.066 C 
ENDROOT
BRANCH   3   4
HETATM    4  C4  UNL     1      29.171   0.514  54.251  1.00  0.00     0.018 C 
BRANCH   4   5
HETATM    5  C5  UNL     1      28.346   1.306  53.319  1.00  0.00     0.010 C 
BRANCH   5   6
HETATM    6  C6  UNL     1      27.073   0.745  52.807  1.00  0.00     0.035 C 
HETATM    7  C7  UNL     1      26.673   1.465  51.527  1.00  0.00     0.182 C 
HETATM    8  O1  UNL     1      26.504   2.841  51.747  1.00  0.00    -0.348 OA
HETATM    9  C8  UNL     1      26.024   3.638  50.737  1.00  0.00     0.102 A 
HETATM   10  C9  UNL     1      24.713   3.599  51.258  1.00  0.00     0.057 A 
HETATM   11  C15 UNL     1      26.168   4.377  49.591  1.00  0.00     0.101 A 
HETATM   12  C10 UNL     1      23.585   4.189  50.777  1.00  0.00     0.041 A 
HETATM   13  C11 UNL     1      22.290   4.165  51.239  1.00  0.00     0.138 A 
HETATM   14  C13 UNL     1      23.822   4.907  49.629  1.00  0.00     0.075 A 
HETATM   15  N1  UNL     1      21.329   4.824  50.578  1.00  0.00    -0.224 NA
HETATM   16  N3  UNL     1      21.804   3.437  52.403  1.00  0.00    -0.364 N 
HETATM   17  C12 UNL     1      21.610   5.530  49.439  1.00  0.00     0.235 A 
HETATM   18  N2  UNL     1      22.877   5.576  48.950  1.00  0.00    -0.241 NA
HETATM   19  C16 UNL     1      21.761   1.982  52.288  1.00  0.00     0.132 C 
HETATM   20  H15 UNL     1      21.538   4.065  53.189  1.00  0.00     0.162 HD
HETATM   21  C17 UNL     1      22.456   0.842  52.478  1.00  0.00     0.003 C 
HETATM   22  C18 UNL     1      23.539  -0.129  52.828  1.00  0.00     0.037 C 
HETATM   23  C19 UNL     1      24.737   0.081  53.298  1.00  0.00     0.112 C 
HETATM   24  F1  UNL     1      25.291  -1.179  53.419  1.00  0.00    -0.209 F 
HETATM   25  C20 UNL     1      25.911   0.826  53.796  1.00  0.00     0.150 C 
HETATM   26 CL1  UNL     1      26.429   0.189  55.352  1.00  0.00    -0.117 Cl
HETATM   27  C14 UNL     1      25.055   4.995  49.066  1.00  0.00     0.072 A 
BRANCH  11  28
HETATM   28  O2  UNL     1      27.520   4.224  49.337  1.00  0.00    -0.358 OA
HETATM   29  H14 UNL     1      28.227   4.907  49.559  1.00  0.00     0.217 HD
ENDBRANCH  11  28
ENDBRANCH   5   6
ENDBRANCH   4   5
ENDBRANCH   3   4
TORSDOF 4
ENDMDL
MODEL 2
REMARK VINA RESULT:      -9.1      1.417      2.028
REMARK  4 active torsions:
REMARK  status: ('A' for Active; 'I' for Inactive)
REMARK    1  A    between atoms: C3_3  and  C4_4 
REMARK    2  A    between atoms: C4_4  and  C5_5 
REMARK    3  A    between atoms: C5_5  and  C6_6 
REMARK    4  A    between atoms: C15_18  and  O2_19 
ROOT
HETATM    1  C1  UNL     1      28.668   2.469  53.685  1.00  0.00     0.091 C 
HETATM    2  C2  UNL     1      28.817   1.170  53.843  1.00  0.00    -0.176 C 
HETATM    3  C3  UNL     1      28.765  -0.136  53.936  1.00  0.00     0.066 C 
ENDROOT
BRANCH   3   4
HETATM    4  C4  UNL     1      27.637  -0.838  53.246  1.00  0.00     0.018 C 
BRANCH   4   5
HETATM    5  C5  UNL     1      26.359  -0.456  53.877  1.00  0.00     0.010 C 
BRANCH   5   6
HETATM    6  C6  UNL     1      25.109  -0.496  53.083  1.00  0.00     0.035 C 
HETATM    7  C7  UNL     1      25.182   0.528  51.958  1.00  0.00     0.182 C 
HETATM    8  O1  UNL     1      25.356   1.826  52.461  1.00  0.00    -0.348 OA
HETATM    9  C8  UNL     1      25.323   2.899  51.604  1.00  0.00     0.102 A 
HETATM   10  C9  UNL     1      23.975   3.176  51.920  1.00  0.00     0.057 A 
HETATM   11  C15 UNL     1      25.887   3.748  50.687  1.00  0.00     0.101 A 
HETATM   12  C10 UNL     1      23.170   4.161  51.437  1.00  0.00     0.041 A 
HETATM   13  C11 UNL     1      21.853   4.457  51.701  1.00  0.00     0.138 A 
HETATM   14  C13 UNL     1      23.817   4.962  50.527  1.00  0.00     0.075 A 
HETATM   15  N1  UNL     1      21.260   5.488  51.084  1.00  0.00    -0.224 NA
HETATM   16  N3  UNL     1      20.967   3.721  52.592  1.00  0.00    -0.364 N 
HETATM   17  C12 UNL     1      21.943   6.262  50.185  1.00  0.00     0.235 A 
HETATM   18  N2  UNL     1      23.245   6.000  49.896  1.00  0.00    -0.241 NA
HETATM   19  C16 UNL     1      20.550   2.395  52.143  1.00  0.00     0.132 C 
HETATM   20  H15 UNL     1      20.734   4.250  53.457  1.00  0.00     0.162 HD
HETATM   21  C17 UNL     1      20.854   1.082  52.160  1.00  0.00     0.003 C 
HETATM   22  C18 UNL     1      21.539  -0.223  52.423  1.00  0.00     0.037 C 
HETATM   23  C19 UNL     1      22.630  -0.480  53.087  1.00  0.00     0.112 C 
HETATM   24  F1  UNL     1      22.783  -1.850  52.992  1.00  0.00    -0.209 F 
HETATM   25  C20 UNL     1      23.841  -0.236  53.897  1.00  0.00     0.150 C 
HETATM   26 CL1  UNL     1      23.847  -1.267  55.321  1.00  0.00    -0.117 Cl
HETATM   27  C14 UNL     1      25.112   4.763  50.171  1.00  0.00     0.072 A 
BRANCH  11  28
HETATM   28  O2  UNL     1      27.168   3.233  50.592  1.00  0.00    -0.358 OA
HETATM   29  H14 UNL     1      27.504   2.666  49.829  1.00  0.00     0.217 HD
ENDBRANCH  11  28
ENDBRANCH   5   6
ENDBRANCH   4   5
ENDBRANCH   3   4
TORSDOF 4
ENDMDL
MODEL 3
REMARK VINA RESULT:      -9.0      3.526      6.429
REMARK  4 active torsions:
REMARK  status: ('A' for Active; 'I' for Inactive)
REMARK    1  A    between atoms: C3_3  and  C4_4 
REMARK    2  A    between atoms: C4_4  and  C5_5 
REMARK    3  A    between atoms: C5_5  and  C6_6 
REMARK    4  A    between atoms: C15_18  and  O2_19 
ROOT
HETATM    1  C1  UNL     1      27.625   7.698  47.230  1.00  0.00     0.091 C 
HETATM    2  C2  UNL     1      27.080   6.982  48.191  1.00  0.00    -0.176 C 
HETATM    3  C3  UNL     1      26.602   6.103  49.037  1.00  0.00     0.066 C 
ENDROOT
BRANCH   3   4
HETATM    4  C4  UNL     1      27.097   4.695  48.930  1.00  0.00     0.018 C 
BRANCH   4   5
HETATM    5  C5  UNL     1      26.010   3.761  49.283  1.00  0.00     0.010 C 
BRANCH   5   6
HETATM    6  C6  UNL     1      24.993   4.165  50.282  1.00  0.00     0.035 C 
HETATM    7  C7  UNL     1      25.113   3.288  51.521  1.00  0.00     0.182 C 
HETATM    8  O1  UNL     1      24.925   1.933  51.206  1.00  0.00    -0.348 OA
HETATM    9  C8  UNL     1      24.876   1.001  52.213  1.00  0.00     0.102 A 
HETATM   10  C9  UNL     1      23.464   0.989  52.206  1.00  0.00     0.057 A 
HETATM   11  C15 UNL     1      25.455   0.162  53.131  1.00  0.00     0.101 A 
HETATM   12  C10 UNL     1      22.613   0.266  52.981  1.00  0.00     0.041 A 
HETATM   13  C11 UNL     1      21.238   0.235  53.020  1.00  0.00     0.138 A 
HETATM   14  C13 UNL     1      23.277  -0.545  53.869  1.00  0.00     0.075 A 
HETATM   15  N1  UNL     1      20.609  -0.562  53.894  1.00  0.00    -0.224 NA
HETATM   16  N3  UNL     1      20.335   1.038  52.207  1.00  0.00    -0.364 N 
HETATM   17  C12 UNL     1      21.311  -1.357  54.759  1.00  0.00     0.235 A 
HETATM   18  N2  UNL     1      22.670  -1.353  54.753  1.00  0.00    -0.241 NA
HETATM   19  C16 UNL     1      20.284   2.466  52.510  1.00  0.00     0.132 C 
HETATM   20  H15 UNL     1      19.824   0.475  51.497  1.00  0.00     0.162 HD
HETATM   21  C17 UNL     1      20.820   3.670  52.228  1.00  0.00     0.003 C 
HETATM   22  C18 UNL     1      21.665   4.755  51.637  1.00  0.00     0.037 C 
HETATM   23  C19 UNL     1      22.615   4.689  50.747  1.00  0.00     0.112 C 
HETATM   24  F1  UNL     1      23.041   5.995  50.593  1.00  0.00    -0.209 F 
HETATM   25  C20 UNL     1      23.553   4.094  49.773  1.00  0.00     0.150 C 
HETATM   26 CL1  UNL     1      23.444   4.927  48.228  1.00  0.00    -0.117 Cl
HETATM   27  C14 UNL     1      24.633  -0.593  53.938  1.00  0.00     0.072 A 
BRANCH  11  28
HETATM   28  O2  UNL     1      26.800   0.393  52.900  1.00  0.00    -0.358 OA
HETATM   29  H14 UNL     1      27.525  -0.303  52.977  1.00  0.00     0.217 HD
ENDBRANCH  11  28
ENDBRANCH   5   6
ENDBRANCH   4   5
ENDBRANCH   3   4
TORSDOF 4
ENDMDL
MODEL 4
REMARK VINA RESULT:      -8.9      3.107      5.299
REMARK  4 active torsions:
REMARK  status: ('A' for Active; 'I' for Inactive)
REMARK    1  A    between atoms: C3_3  and  C4_4 
REMARK    2  A    between atoms: C4_4  and  C5_5 
REMARK    3  A    between atoms: C5_5  and  C6_6 
REMARK    4  A    between atoms: C15_18  and  O2_19 
ROOT
HETATM    1  C1  UNL     1      29.537  -0.493  53.824  1.00  0.00     0.091 C 
HETATM    2  C2  UNL     1      28.314  -0.811  53.454  1.00  0.00    -0.176 C 
HETATM    3  C3  UNL     1      27.095  -0.940  52.990  1.00  0.00     0.066 C 
ENDROOT
BRANCH   3   4
HETATM    4  C4  UNL     1      26.669  -0.020  51.889  1.00  0.00     0.018 C 
BRANCH   4   5
HETATM    5  C5  UNL     1      26.833   1.380  52.325  1.00  0.00     0.010 C 
BRANCH   5   6
HETATM    6  C6  UNL     1      25.669   2.297  52.301  1.00  0.00     0.035 C 
HETATM    7  C7  UNL     1      24.573   1.759  53.211  1.00  0.00     0.182 C 
HETATM    8  O1  UNL     1      24.152   0.484  52.802  1.00  0.00    -0.348 OA
HETATM    9  C8  UNL     1      23.084  -0.113  53.426  1.00  0.00     0.102 A 
HETATM   10  C9  UNL     1      22.196   0.286  52.404  1.00  0.00     0.057 A 
HETATM   11  C15 UNL     1      22.509  -0.829  54.444  1.00  0.00     0.101 A 
HETATM   12  C10 UNL     1      20.859   0.058  52.298  1.00  0.00     0.041 A 
HETATM   13  C11 UNL     1      19.955   0.440  51.334  1.00  0.00     0.138 A 
HETATM   14  C13 UNL     1      20.368  -0.664  53.358  1.00  0.00     0.075 A 
HETATM   15  N1  UNL     1      18.664   0.103  51.453  1.00  0.00    -0.224 NA
HETATM   16  N3  UNL     1      20.242   1.244  50.153  1.00  0.00    -0.364 N 
HETATM   17  C12 UNL     1      18.218  -0.620  52.527  1.00  0.00     0.235 A 
HETATM   18  N2  UNL     1      19.080  -1.014  53.501  1.00  0.00    -0.241 NA
HETATM   19  C16 UNL     1      20.549   2.652  50.385  1.00  0.00     0.132 C 
HETATM   20  H15 UNL     1      20.187   0.696  49.270  1.00  0.00     0.162 HD
HETATM   21  C17 UNL     1      21.536   3.539  50.625  1.00  0.00     0.003 C 
HETATM   22  C18 UNL     1      22.881   4.148  50.869  1.00  0.00     0.037 C 
HETATM   23  C19 UNL     1      24.057   3.590  50.933  1.00  0.00     0.112 C 
HETATM   24  F1  UNL     1      24.926   4.633  51.187  1.00  0.00    -0.209 F 
HETATM   25  C20 UNL     1      25.080   2.525  50.909  1.00  0.00     0.150 C 
HETATM   26 CL1  UNL     1      26.375   2.942  49.795  1.00  0.00    -0.117 Cl
HETATM   27  C14 UNL     1      21.157  -1.087  54.380  1.00  0.00     0.072 A 
BRANCH  11  28
HETATM   28  O2  UNL     1      23.599  -1.064  55.262  1.00  0.00    -0.358 OA
HETATM   29  H14 UNL     1      24.385  -1.648  55.019  1.00  0.00     0.217 HD
ENDBRANCH  11  28
ENDBRANCH   5   6
ENDBRANCH   4   5
ENDBRANCH   3   4
TORSDOF 4
ENDMDL
MODEL 5
REMARK VINA RESULT:      -8.3      3.422      6.782
REMARK  4 active torsions:
REMARK  status: ('A' for Active; 'I' for Inactive)
REMARK    1  A    between atoms: C3_3  and  C4_4 
REMARK    2  A    between atoms: C4_4  and  C5_5 
REMARK    3  A    between atoms: C5_5  and  C6_6 
REMARK    4  A    between atoms: C15_18  and  O2_19 
ROOT
HETATM    1  C1  UNL     1      23.827   7.533  46.095  1.00  0.00     0.091 C 
HETATM    2  C2  UNL     1      24.242   7.400  47.338  1.00  0.00    -0.176 C 
HETATM    3  C3  UNL     1      24.752   7.095  48.505  1.00  0.00     0.066 C 
ENDROOT
BRANCH   3   4
HETATM    4  C4  UNL     1      25.871   6.102  48.537  1.00  0.00     0.018 C 
BRANCH   4   5
HETATM    5  C5  UNL     1      25.351   4.786  48.958  1.00  0.00     0.010 C 
BRANCH   5   6
HETATM    6  C6  UNL     1      24.341   4.709  50.039  1.00  0.00     0.035 C 
HETATM    7  C7  UNL     1      24.994   4.200  51.317  1.00  0.00     0.182 C 
HETATM    8  O1  UNL     1      25.554   2.926  51.131  1.00  0.00    -0.348 OA
HETATM    9  C8  UNL     1      26.081   2.251  52.203  1.00  0.00     0.102 A 
HETATM   10  C9  UNL     1      24.905   1.487  52.367  1.00  0.00     0.057 A 
HETATM   11  C15 UNL     1      27.077   1.977  53.105  1.00  0.00     0.101 A 
HETATM   12  C10 UNL     1      24.632   0.527  53.292  1.00  0.00     0.041 A 
HETATM   13  C11 UNL     1      23.501  -0.227  53.499  1.00  0.00     0.138 A 
HETATM   14  C13 UNL     1      25.683   0.319  54.152  1.00  0.00     0.075 A 
HETATM   15  N1  UNL     1      23.461  -1.117  54.499  1.00  0.00    -0.224 NA
HETATM   16  N3  UNL     1      22.259  -0.142  52.743  1.00  0.00    -0.364 N 
HETATM   17  C12 UNL     1      24.533  -1.294  55.332  1.00  0.00     0.235 A 
HETATM   18  N2  UNL     1      25.668  -0.566  55.161  1.00  0.00    -0.241 NA
HETATM   19  C16 UNL     1      21.458   1.063  52.941  1.00  0.00     0.132 C 
HETATM   20  H15 UNL     1      22.094  -0.977  52.144  1.00  0.00     0.162 HD
HETATM   21  C17 UNL     1      21.235   2.320  52.506  1.00  0.00     0.003 C 
HETATM   22  C18 UNL     1      21.317   3.601  51.737  1.00  0.00     0.037 C 
HETATM   23  C19 UNL     1      22.094   3.939  50.746  1.00  0.00     0.112 C 
HETATM   24  F1  UNL     1      21.731   5.237  50.445  1.00  0.00    -0.209 F 
HETATM   25  C20 UNL     1      23.143   3.816  49.714  1.00  0.00     0.150 C 
HETATM   26 CL1  UNL     1      22.506   4.255  48.135  1.00  0.00    -0.117 Cl
HETATM   27  C14 UNL     1      26.849   1.011  54.060  1.00  0.00     0.072 A 
BRANCH  11  28
HETATM   28  O2  UNL     1      28.063   2.858  52.697  1.00  0.00    -0.358 OA
HETATM   29  H14 UNL     1      28.957   2.586  52.321  1.00  0.00     0.217 HD
ENDBRANCH  11  28
ENDBRANCH   5   6
ENDBRANCH   4   5
ENDBRANCH   3   4
TORSDOF 4
ENDMDL
MODEL 6
REMARK VINA RESULT:      -8.3      4.204      6.563
REMARK  4 active torsions:
REMARK  status: ('A' for Active; 'I' for Inactive)
REMARK    1  A    between atoms: C3_3  and  C4_4 
REMARK    2  A    between atoms: C4_4  and  C5_5 
REMARK    3  A    between atoms: C5_5  and  C6_6 
REMARK    4  A    between atoms: C15_18  and  O2_19 
ROOT
HETATM    1  C1  UNL     1      26.687   3.075  49.333  1.00  0.00     0.091 C 
HETATM    2  C2  UNL     1      25.959   4.074  49.787  1.00  0.00    -0.176 C 
HETATM    3  C3  UNL     1      25.096   5.012  50.090  1.00  0.00     0.066 C 
ENDROOT
BRANCH   3   4
HETATM    4  C4  UNL     1      23.702   4.871  49.563  1.00  0.00     0.018 C 
BRANCH   4   5
HETATM    5  C5  UNL     1      22.860   4.197  50.570  1.00  0.00     0.010 C 
BRANCH   5   6
HETATM    6  C6  UNL     1      23.074   2.760  50.863  1.00  0.00     0.035 C 
HETATM    7  C7  UNL     1      21.927   1.942  50.286  1.00  0.00     0.182 C 
HETATM    8  O1  UNL     1      20.696   2.335  50.834  1.00  0.00    -0.348 OA
HETATM    9  C8  UNL     1      19.558   1.630  50.527  1.00  0.00     0.102 A 
HETATM   10  C9  UNL     1      19.627   0.894  51.730  1.00  0.00     0.057 A 
HETATM   11  C15 UNL     1      18.497   1.315  49.717  1.00  0.00     0.101 A 
HETATM   12  C10 UNL     1      18.791  -0.078  52.185  1.00  0.00     0.041 A 
HETATM   13  C11 UNL     1      18.828  -0.830  53.336  1.00  0.00     0.138 A 
HETATM   14  C13 UNL     1      17.760  -0.328  51.312  1.00  0.00     0.075 A 
HETATM   15  N1  UNL     1      17.885  -1.753  53.565  1.00  0.00    -0.224 NA
HETATM   16  N3  UNL     1      19.848  -0.767  54.374  1.00  0.00    -0.364 N 
HETATM   17  C12 UNL     1      16.872  -1.968  52.669  1.00  0.00     0.235 A 
HETATM   18  N2  UNL     1      16.802  -1.246  51.519  1.00  0.00    -0.241 NA
HETATM   19  C16 UNL     1      21.166  -1.288  54.022  1.00  0.00     0.132 C 
HETATM   20  H15 UNL     1      19.496  -0.349  55.259  1.00  0.00     0.162 HD
HETATM   21  C17 UNL     1      22.371  -0.976  53.506  1.00  0.00     0.003 C 
HETATM   22  C18 UNL     1      23.515  -0.223  52.902  1.00  0.00     0.037 C 
HETATM   23  C19 UNL     1      23.607   1.030  52.555  1.00  0.00     0.112 C 
HETATM   24  F1  UNL     1      24.886   1.160  52.050  1.00  0.00    -0.209 F 
HETATM   25  C20 UNL     1      23.205   2.437  52.351  1.00  0.00     0.150 C 
HETATM   26 CL1  UNL     1      24.381   3.524  53.078  1.00  0.00    -0.117 Cl
HETATM   27  C14 UNL     1      17.621   0.338  50.136  1.00  0.00     0.072 A 
BRANCH  11  28
HETATM   28  O2  UNL     1      18.701   2.177  48.654  1.00  0.00    -0.358 OA
HETATM   29  H14 UNL     1      18.148   2.193  47.812  1.00  0.00     0.217 HD
ENDBRANCH  11  28
ENDBRANCH   5   6
ENDBRANCH   4   5
ENDBRANCH   3   4
TORSDOF 4
ENDMDL
MODEL 7
REMARK VINA RESULT:      -8.2      4.056      8.145
REMARK  4 active torsions:
REMARK  status: ('A' for Active; 'I' for Inactive)
REMARK    1  A    between atoms: C3_3  and  C4_4 
REMARK    2  A    between atoms: C4_4  and  C5_5 
REMARK    3  A    between atoms: C5_5  and  C6_6 
REMARK    4  A    between atoms: C15_18  and  O2_19 
ROOT
HETATM    1  C1  UNL     1      21.172  11.062  48.203  1.00  0.00     0.091 C 
HETATM    2  C2  UNL     1      21.244   9.757  48.370  1.00  0.00    -0.176 C 
HETATM    3  C3  UNL     1      21.279   8.500  48.738  1.00  0.00     0.066 C 
ENDROOT
BRANCH   3   4
HETATM    4  C4  UNL     1      20.713   8.153  50.079  1.00  0.00     0.018 C 
BRANCH   4   5
HETATM    5  C5  UNL     1      21.705   7.375  50.846  1.00  0.00     0.010 C 
BRANCH   5   6
HETATM    6  C6  UNL     1      22.597   6.424  50.140  1.00  0.00     0.035 C 
HETATM    7  C7  UNL     1      22.145   4.997  50.414  1.00  0.00     0.182 C 
HETATM    8  O1  UNL     1      22.176   4.708  51.788  1.00  0.00    -0.348 OA
HETATM    9  C8  UNL     1      21.919   3.431  52.221  1.00  0.00     0.102 A 
HETATM   10  C9  UNL     1      23.295   3.137  52.336  1.00  0.00     0.057 A 
HETATM   11  C15 UNL     1      21.079   2.401  52.561  1.00  0.00     0.101 A 
HETATM   12  C10 UNL     1      23.891   1.981  52.733  1.00  0.00     0.041 A 
HETATM   13  C11 UNL     1      25.221   1.645  52.843  1.00  0.00     0.138 A 
HETATM   14  C13 UNL     1      22.977   1.007  53.054  1.00  0.00     0.075 A 
HETATM   15  N1  UNL     1      25.572   0.418  53.251  1.00  0.00    -0.224 NA
HETATM   16  N3  UNL     1      26.355   2.499  52.515  1.00  0.00    -0.364 N 
HETATM   17  C12 UNL     1      24.627  -0.521  53.563  1.00  0.00     0.235 A 
HETATM   18  N2  UNL     1      23.303  -0.229  53.465  1.00  0.00    -0.241 NA
HETATM   19  C16 UNL     1      26.570   2.776  51.098  1.00  0.00     0.132 C 
HETATM   20  H15 UNL     1      26.883   2.808  53.356  1.00  0.00     0.162 HD
HETATM   21  C17 UNL     1      26.275   3.613  50.083  1.00  0.00     0.003 C 
HETATM   22  C18 UNL     1      25.710   4.744  49.282  1.00  0.00     0.037 C 
HETATM   23  C19 UNL     1      24.919   5.715  49.642  1.00  0.00     0.112 C 
HETATM   24  F1  UNL     1      24.725   6.453  48.490  1.00  0.00    -0.209 F 
HETATM   25  C20 UNL     1      24.072   6.551  50.517  1.00  0.00     0.150 C 
HETATM   26 CL1  UNL     1      24.554   8.239  50.408  1.00  0.00    -0.117 Cl
HETATM   27  C14 UNL     1      21.636   1.210  52.972  1.00  0.00     0.072 A 
BRANCH  11  28
HETATM   28  O2  UNL     1      19.841   2.980  52.350  1.00  0.00    -0.358 OA
HETATM   29  H14 UNL     1      19.002   2.747  52.859  1.00  0.00     0.217 HD
ENDBRANCH  11  28
ENDBRANCH   5   6
ENDBRANCH   4   5
ENDBRANCH   3   4
TORSDOF 4
ENDMDL
MODEL 8
REMARK VINA RESULT:      -8.1      3.647      6.844
REMARK  4 active torsions:
REMARK  status: ('A' for Active; 'I' for Inactive)
REMARK    1  A    between atoms: C3_3  and  C4_4 
REMARK    2  A    between atoms: C4_4  and  C5_5 
REMARK    3  A    between atoms: C5_5  and  C6_6 
REMARK    4  A    between atoms: C15_18  and  O2_19 
ROOT
HETATM    1  C1  UNL     1      24.538   7.243  47.232  1.00  0.00     0.091 C 
HETATM    2  C2  UNL     1      23.415   6.673  47.619  1.00  0.00    -0.176 C 
HETATM    3  C3  UNL     1      22.331   5.974  47.845  1.00  0.00     0.066 C 
ENDROOT
BRANCH   3   4
HETATM    4  C4  UNL     1      22.226   4.626  47.202  1.00  0.00     0.018 C 
BRANCH   4   5
HETATM    5  C5  UNL     1      22.766   3.601  48.115  1.00  0.00     0.010 C 
BRANCH   5   6
HETATM    6  C6  UNL     1      22.279   3.534  49.514  1.00  0.00     0.035 C 
HETATM    7  C7  UNL     1      23.458   3.621  50.473  1.00  0.00     0.182 C 
HETATM    8  O1  UNL     1      24.365   2.571  50.261  1.00  0.00    -0.348 OA
HETATM    9  C8  UNL     1      25.432   2.411  51.111  1.00  0.00     0.102 A 
HETATM   10  C9  UNL     1      24.761   1.411  51.848  1.00  0.00     0.057 A 
HETATM   11  C15 UNL     1      26.694   2.708  51.557  1.00  0.00     0.101 A 
HETATM   12  C10 UNL     1      25.195   0.714  52.932  1.00  0.00     0.041 A 
HETATM   13  C11 UNL     1      24.574  -0.252  53.689  1.00  0.00     0.138 A 
HETATM   14  C13 UNL     1      26.466   1.075  53.309  1.00  0.00     0.075 A 
HETATM   15  N1  UNL     1      25.208  -0.796  54.736  1.00  0.00    -0.224 NA
HETATM   16  N3  UNL     1      23.219  -0.754  53.501  1.00  0.00    -0.364 N 
HETATM   17  C12 UNL     1      26.476  -0.408  55.075  1.00  0.00     0.235 A 
HETATM   18  N2  UNL     1      27.123   0.545  54.353  1.00  0.00    -0.241 NA
HETATM   19  C16 UNL     1      22.134   0.165  53.832  1.00  0.00     0.132 C 
HETATM   20  H15 UNL     1      23.198  -1.733  53.149  1.00  0.00     0.162 HD
HETATM   21  C17 UNL     1      21.319   1.125  53.349  1.00  0.00     0.003 C 
HETATM   22  C18 UNL     1      20.648   2.104  52.437  1.00  0.00     0.037 C 
HETATM   23  C19 UNL     1      20.864   2.364  51.178  1.00  0.00     0.112 C 
HETATM   24  F1  UNL     1      19.957   3.358  50.867  1.00  0.00    -0.209 F 
HETATM   25  C20 UNL     1      21.477   2.274  49.838  1.00  0.00     0.150 C 
HETATM   26 CL1  UNL     1      20.239   2.044  48.610  1.00  0.00    -0.117 Cl
HETATM   27  C14 UNL     1      27.179   2.026  52.651  1.00  0.00     0.072 A 
BRANCH  11  28
HETATM   28  O2  UNL     1      27.075   3.690  50.661  1.00  0.00    -0.358 OA
HETATM   29  H14 UNL     1      27.009   4.681  50.830  1.00  0.00     0.217 HD
ENDBRANCH  11  28
ENDBRANCH   5   6
ENDBRANCH   4   5
ENDBRANCH   3   4
TORSDOF 4
ENDMDL
MODEL 9
REMARK VINA RESULT:      -8.0      3.958      7.863
REMARK  4 active torsions:
REMARK  status: ('A' for Active; 'I' for Inactive)
REMARK    1  A    between atoms: C3_3  and  C4_4 
REMARK    2  A    between atoms: C4_4  and  C5_5 
REMARK    3  A    between atoms: C5_5  and  C6_6 
REMARK    4  A    between atoms: C15_18  and  O2_19 
ROOT
HETATM    1  C1  UNL     1      15.806   3.644  51.291  1.00  0.00     0.091 C 
HETATM    2  C2  UNL     1      16.971   3.160  50.914  1.00  0.00    -0.176 C 
HETATM    3  C3  UNL     1      18.194   2.727  50.734  1.00  0.00     0.066 C 
ENDROOT
BRANCH   3   4
HETATM    4  C4  UNL     1      19.032   2.483  51.950  1.00  0.00     0.018 C 
BRANCH   4   5
HETATM    5  C5  UNL     1      20.209   3.373  51.924  1.00  0.00     0.010 C 
BRANCH   5   6
HETATM    6  C6  UNL     1      21.319   3.092  50.983  1.00  0.00     0.035 C 
HETATM    7  C7  UNL     1      21.989   1.777  51.356  1.00  0.00     0.182 C 
HETATM    8  O1  UNL     1      22.504   1.820  52.662  1.00  0.00    -0.348 OA
HETATM    9  C8  UNL     1      23.251   0.769  53.134  1.00  0.00     0.102 A 
HETATM   10  C9  UNL     1      24.463   1.435  52.852  1.00  0.00     0.057 A 
HETATM   11  C15 UNL     1      23.393  -0.479  53.685  1.00  0.00     0.101 A 
HETATM   12  C10 UNL     1      25.738   1.007  53.050  1.00  0.00     0.041 A 
HETATM   13  C11 UNL     1      26.944   1.612  52.776  1.00  0.00     0.138 A 
HETATM   14  C13 UNL     1      25.786  -0.249  53.604  1.00  0.00     0.075 A 
HETATM   15  N1  UNL     1      28.091   0.978  53.053  1.00  0.00    -0.224 NA
HETATM   16  N3  UNL     1      27.131   2.914  52.152  1.00  0.00    -0.364 N 
HETATM   17  C12 UNL     1      28.092  -0.273  53.608  1.00  0.00     0.235 A 
HETATM   18  N2  UNL     1      26.922  -0.905  53.891  1.00  0.00    -0.241 NA
HETATM   19  C16 UNL     1      26.792   3.011  50.735  1.00  0.00     0.132 C 
HETATM   20  H15 UNL     1      27.497   3.629  52.814  1.00  0.00     0.162 HD
HETATM   21  C17 UNL     1      25.806   3.278  49.855  1.00  0.00     0.003 C 
HETATM   22  C18 UNL     1      24.480   3.636  49.261  1.00  0.00     0.037 C 
HETATM   23  C19 UNL     1      23.352   3.933  49.841  1.00  0.00     0.112 C 
HETATM   24  F1  UNL     1      22.474   4.166  48.800  1.00  0.00    -0.209 F 
HETATM   25  C20 UNL     1      22.386   4.185  50.930  1.00  0.00     0.150 C 
HETATM   26 CL1  UNL     1      21.605   5.746  50.710  1.00  0.00    -0.117 Cl
HETATM   27  C14 UNL     1      24.666  -0.956  53.907  1.00  0.00     0.072 A 
BRANCH  11  28
HETATM   28  O2  UNL     1      22.072  -0.860  53.839  1.00  0.00    -0.358 OA
HETATM   29  H14 UNL     1      21.686  -1.273  54.674  1.00  0.00     0.217 HD
ENDBRANCH  11  28
ENDBRANCH   5   6
ENDBRANCH   4   5
ENDBRANCH   3   4
TORSDOF 4
ENDMDL
