MODEL 1
REMARK VINA RESULT:      -8.5      0.000      0.000
REMARK  4 active torsions:
REMARK  status: ('A' for Active; 'I' for Inactive)
REMARK    1  A    between atoms: C2_2  and  C3_4 
REMARK    2  A    between atoms: C4_6  and  C5_7 
REMARK    3  A    between atoms: C5_7  and  N1_8 
REMARK    4  A    between atoms: N1_8  and  C6_9 
ROOT
HETATM    1  C6  UNL     1      25.496   4.192  49.719  1.00  0.00     0.132 A 
HETATM    2  N2  UNL     1      24.687   5.076  49.079  1.00  0.00    -0.225 NA
HETATM    3  C7  UNL     1      23.388   5.028  49.419  1.00  0.00     0.235 A 
HETATM    4  N3  UNL     1      22.910   4.183  50.314  1.00  0.00    -0.243 NA
HETATM    5  C8  UNL     1      23.629   3.285  50.988  1.00  0.00     0.076 A 
HETATM    6  C9  UNL     1      24.963   3.332  50.643  1.00  0.00     0.037 A 
HETATM    7  C10 UNL     1      25.923   2.463  51.272  1.00  0.00     0.034 C 
HETATM    8  C11 UNL     1      26.779   1.600  51.805  1.00  0.00     0.084 C 
HETATM    9  N4  UNL     1      27.120   0.194  51.679  1.00  0.00    -0.395 N 
HETATM   10  C12 UNL     1      26.827  -0.549  52.913  1.00  0.00     0.076 C 
HETATM   11  C13 UNL     1      27.755   0.023  53.960  1.00  0.00     0.032 C 
HETATM   12  C14 UNL     1      25.376  -0.152  53.216  1.00  0.00     0.026 C 
HETATM   13  C15 UNL     1      24.826  -0.801  54.442  1.00  0.00     0.032 C 
HETATM   14  C16 UNL     1      23.422  -0.267  54.646  1.00  0.00     0.275 C 
HETATM   15  N5  UNL     1      22.529  -0.509  53.563  1.00  0.00     0.114 N 
HETATM   16  C17 UNL     1      21.732  -1.682  53.716  1.00  0.00     0.301 C 
HETATM   17  C18 UNL     1      20.292  -1.469  54.023  1.00  0.00     0.198 C 
HETATM   18  O1  UNL     1      19.754  -0.318  53.525  1.00  0.00    -0.386 OA
HETATM   19  C19 UNL     1      20.488   0.217  52.496  1.00  0.00     0.223 C 
HETATM   20  C20 UNL     1      21.832   0.649  53.097  1.00  0.00     0.332 C 
HETATM   21  N6  UNL     1      22.556   1.225  51.973  1.00  0.00    -0.406 NA
HETATM   22  C21 UNL     1      22.925   2.433  51.917  1.00  0.00     0.352 C 
HETATM   23  H8  UNL     1      27.415   0.439  50.730  1.00  0.00     0.159 HD
ENDROOT
BRANCH   1  24
HETATM   24  N1  UNL     1      26.894   3.987  49.567  1.00  0.00    -0.371 NA
BRANCH  24  25
HETATM   25  C5  UNL     1      27.660   4.691  48.861  1.00  0.00     0.289 C 
BRANCH  25  26
HETATM   26  C4  UNL     1      28.520   5.601  48.174  1.00  0.00     0.062 C 
HETATM   27  C3  UNL     1      29.633   6.106  47.753  1.00  0.00     0.134 C 
HETATM   28  F1  UNL     1      29.474   7.216  47.000  1.00  0.00    -0.205 F 
BRANCH  27  29
HETATM   29  C2  UNL     1      30.894   5.488  48.100  1.00  0.00     0.040 C 
HETATM   30  C1  UNL     1      31.431   4.495  47.404  1.00  0.00     0.035 C 
HETATM   31 BR1  UNL     1      31.848   6.107  49.638  1.00  0.00    -0.049 Br
ENDBRANCH  27  29
ENDBRANCH  25  26
ENDBRANCH  24  25
ENDBRANCH   1  24
TORSDOF 4
ENDMDL
MODEL 2
REMARK VINA RESULT:      -8.4      3.937      6.241
REMARK  4 active torsions:
REMARK  status: ('A' for Active; 'I' for Inactive)
REMARK    1  A    between atoms: C2_2  and  C3_4 
REMARK    2  A    between atoms: C4_6  and  C5_7 
REMARK    3  A    between atoms: C5_7  and  N1_8 
REMARK    4  A    between atoms: N1_8  and  C6_9 
ROOT
HETATM    1  C6  UNL     1      23.965   4.986  49.221  1.00  0.00     0.132 A 
HETATM    2  N2  UNL     1      24.827   5.843  48.615  1.00  0.00    -0.225 NA
HETATM    3  C7  UNL     1      26.132   5.606  48.828  1.00  0.00     0.235 A 
HETATM    4  N3  UNL     1      26.568   4.608  49.576  1.00  0.00    -0.243 NA
HETATM    5  C8  UNL     1      25.796   3.722  50.205  1.00  0.00     0.076 A 
HETATM    6  C9  UNL     1      24.456   3.962  49.988  1.00  0.00     0.037 A 
HETATM    7  C10 UNL     1      23.447   3.105  50.556  1.00  0.00     0.034 C 
HETATM    8  C11 UNL     1      22.532   2.353  51.152  1.00  0.00     0.084 C 
HETATM    9  N4  UNL     1      21.963   2.184  52.478  1.00  0.00    -0.395 N 
HETATM   10  C12 UNL     1      22.271   0.860  53.036  1.00  0.00     0.076 C 
HETATM   11  C13 UNL     1      21.564  -0.133  52.140  1.00  0.00     0.032 C 
HETATM   12  C14 UNL     1      23.791   0.753  52.850  1.00  0.00     0.026 C 
HETATM   13  C15 UNL     1      24.365  -0.525  53.363  1.00  0.00     0.032 C 
HETATM   14  C16 UNL     1      25.849  -0.512  53.054  1.00  0.00     0.275 C 
HETATM   15  N5  UNL     1      26.568   0.574  53.630  1.00  0.00     0.114 N 
HETATM   16  C17 UNL     1      27.184   0.267  54.880  1.00  0.00     0.301 C 
HETATM   17  C18 UNL     1      28.664   0.121  54.870  1.00  0.00     0.198 C 
HETATM   18  O1  UNL     1      29.318   0.869  53.933  1.00  0.00    -0.386 OA
HETATM   19  C19 UNL     1      28.568   1.918  53.464  1.00  0.00     0.223 C 
HETATM   20  C20 UNL     1      27.381   1.304  52.709  1.00  0.00     0.332 C 
HETATM   21  N6  UNL     1      26.637   2.455  52.219  1.00  0.00    -0.406 NA
HETATM   22  C21 UNL     1      26.456   2.708  50.993  1.00  0.00     0.352 C 
HETATM   23  H8  UNL     1      21.608   3.135  52.352  1.00  0.00     0.159 HD
ENDROOT
BRANCH   1  24
HETATM   24  N1  UNL     1      22.544   4.984  49.203  1.00  0.00    -0.371 NA
BRANCH  24  25
HETATM   25  C5  UNL     1      21.812   5.975  49.452  1.00  0.00     0.289 C 
BRANCH  25  26
HETATM   26  C4  UNL     1      21.117   7.186  49.752  1.00  0.00     0.062 C 
HETATM   27  C3  UNL     1      20.854   8.452  49.724  1.00  0.00     0.134 C 
HETATM   28  F1  UNL     1      19.776   8.799  50.460  1.00  0.00    -0.205 F 
BRANCH  27  29
HETATM   29  C2  UNL     1      21.685   9.354  48.956  1.00  0.00     0.040 C 
HETATM   30  C1  UNL     1      22.904   9.039  48.538  1.00  0.00     0.035 C 
HETATM   31 BR1  UNL     1      21.022  11.094  48.520  1.00  0.00    -0.049 Br
ENDBRANCH  27  29
ENDBRANCH  25  26
ENDBRANCH  24  25
ENDBRANCH   1  24
TORSDOF 4
ENDMDL
MODEL 3
REMARK VINA RESULT:      -8.4      1.945      2.285
REMARK  4 active torsions:
REMARK  status: ('A' for Active; 'I' for Inactive)
REMARK    1  A    between atoms: C2_2  and  C3_4 
REMARK    2  A    between atoms: C4_6  and  C5_7 
REMARK    3  A    between atoms: C5_7  and  N1_8 
REMARK    4  A    between atoms: N1_8  and  C6_9 
ROOT
HETATM    1  C6  UNL     1      24.408   3.602  49.714  1.00  0.00     0.132 A 
HETATM    2  N2  UNL     1      23.727   4.404  48.854  1.00  0.00    -0.225 NA
HETATM    3  C7  UNL     1      22.389   4.384  48.974  1.00  0.00     0.235 A 
HETATM    4  N3  UNL     1      21.758   3.638  49.864  1.00  0.00    -0.243 NA
HETATM    5  C8  UNL     1      22.345   2.827  50.743  1.00  0.00     0.076 A 
HETATM    6  C9  UNL     1      23.718   2.845  50.624  1.00  0.00     0.037 A 
HETATM    7  C10 UNL     1      24.550   2.058  51.498  1.00  0.00     0.034 C 
HETATM    8  C11 UNL     1      25.294   1.267  52.258  1.00  0.00     0.084 C 
HETATM    9  N4  UNL     1      25.637  -0.142  52.347  1.00  0.00    -0.395 N 
HETATM   10  C12 UNL     1      25.133  -0.746  53.588  1.00  0.00     0.076 C 
HETATM   11  C13 UNL     1      25.879  -0.056  54.707  1.00  0.00     0.032 C 
HETATM   12  C14 UNL     1      23.656  -0.330  53.598  1.00  0.00     0.026 C 
HETATM   13  C15 UNL     1      22.901  -0.844  54.778  1.00  0.00     0.032 C 
HETATM   14  C16 UNL     1      21.488  -0.302  54.684  1.00  0.00     0.275 C 
HETATM   15  N5  UNL     1      20.787  -0.669  53.499  1.00  0.00     0.114 N 
HETATM   16  C17 UNL     1      19.964  -1.824  53.645  1.00  0.00     0.301 C 
HETATM   17  C18 UNL     1      18.495  -1.590  53.681  1.00  0.00     0.198 C 
HETATM   18  O1  UNL     1      18.060  -0.505  52.976  1.00  0.00    -0.386 OA
HETATM   19  C19 UNL     1      18.962  -0.081  52.032  1.00  0.00     0.223 C 
HETATM   20  C20 UNL     1      20.191   0.425  52.799  1.00  0.00     0.332 C 
HETATM   21  N6  UNL     1      21.099   0.879  51.756  1.00  0.00    -0.406 NA
HETATM   22  C21 UNL     1      21.486   2.077  51.630  1.00  0.00     0.352 C 
HETATM   23  H8  UNL     1      26.089  -0.001  51.440  1.00  0.00     0.159 HD
ENDROOT
BRANCH   1  24
HETATM   24  N1  UNL     1      25.809   3.393  49.822  1.00  0.00    -0.371 NA
BRANCH  24  25
HETATM   25  C5  UNL     1      26.696   4.155  49.361  1.00  0.00     0.289 C 
BRANCH  25  26
HETATM   26  C4  UNL     1      27.638   4.995  48.692  1.00  0.00     0.062 C 
HETATM   27  C3  UNL     1      28.144   6.091  48.228  1.00  0.00     0.134 C 
HETATM   28  F1  UNL     1      29.319   5.917  47.587  1.00  0.00    -0.205 F 
BRANCH  27  29
HETATM   29  C2  UNL     1      27.455   7.350  48.415  1.00  0.00     0.040 C 
HETATM   30  C1  UNL     1      27.872   8.287  49.255  1.00  0.00     0.035 C 
HETATM   31 BR1  UNL     1      25.859   7.698  47.420  1.00  0.00    -0.049 Br
ENDBRANCH  27  29
ENDBRANCH  25  26
ENDBRANCH  24  25
ENDBRANCH   1  24
TORSDOF 4
ENDMDL
MODEL 4
REMARK VINA RESULT:      -8.3      4.840      9.385
REMARK  4 active torsions:
REMARK  status: ('A' for Active; 'I' for Inactive)
REMARK    1  A    between atoms: C2_2  and  C3_4 
REMARK    2  A    between atoms: C4_6  and  C5_7 
REMARK    3  A    between atoms: C5_7  and  N1_8 
REMARK    4  A    between atoms: N1_8  and  C6_9 
ROOT
HETATM    1  C6  UNL     1      25.726   4.388  49.452  1.00  0.00     0.132 A 
HETATM    2  N2  UNL     1      24.399   4.294  49.726  1.00  0.00    -0.225 NA
HETATM    3  C7  UNL     1      23.661   5.371  49.405  1.00  0.00     0.235 A 
HETATM    4  N3  UNL     1      24.175   6.457  48.857  1.00  0.00    -0.243 NA
HETATM    5  C8  UNL     1      25.460   6.633  48.555  1.00  0.00     0.076 A 
HETATM    6  C9  UNL     1      26.221   5.532  48.882  1.00  0.00     0.037 A 
HETATM    7  C10 UNL     1      27.636   5.500  48.614  1.00  0.00     0.034 C 
HETATM    8  C11 UNL     1      28.950   5.521  48.433  1.00  0.00     0.084 C 
HETATM    9  N4  UNL     1      30.120   6.120  49.053  1.00  0.00    -0.395 N 
HETATM   10  C12 UNL     1      30.778   7.080  48.156  1.00  0.00     0.076 C 
HETATM   11  C13 UNL     1      31.284   6.263  46.988  1.00  0.00     0.032 C 
HETATM   12  C14 UNL     1      29.619   7.982  47.709  1.00  0.00     0.026 C 
HETATM   13  C15 UNL     1      30.039   9.074  46.782  1.00  0.00     0.032 C 
HETATM   14  C16 UNL     1      28.790   9.833  46.381  1.00  0.00     0.275 C 
HETATM   15  N5  UNL     1      28.068  10.409  47.466  1.00  0.00     0.114 N 
HETATM   16  C17 UNL     1      28.395  11.773  47.724  1.00  0.00     0.301 C 
HETATM   17  C18 UNL     1      27.373  12.783  47.339  1.00  0.00     0.198 C 
HETATM   18  O1  UNL     1      26.079  12.352  47.391  1.00  0.00    -0.386 OA
HETATM   19  C19 UNL     1      25.914  11.239  48.176  1.00  0.00     0.223 C 
HETATM   20  C20 UNL     1      26.673  10.099  47.483  1.00  0.00     0.332 C 
HETATM   21  N6  UNL     1      26.447   8.947  48.342  1.00  0.00    -0.406 NA
HETATM   22  C21 UNL     1      25.838   7.901  47.975  1.00  0.00     0.352 C 
HETATM   23  H8  UNL     1      29.886   5.533  49.858  1.00  0.00     0.159 HD
ENDROOT
BRANCH   1  24
HETATM   24  N1  UNL     1      26.757   3.439  49.688  1.00  0.00    -0.371 NA
BRANCH  24  25
HETATM   25  C5  UNL     1      26.744   2.559  50.586  1.00  0.00     0.289 C 
BRANCH  25  26
HETATM   26  C4  UNL     1      26.605   1.640  51.670  1.00  0.00     0.062 C 
HETATM   27  C3  UNL     1      26.939   0.991  52.738  1.00  0.00     0.134 C 
HETATM   28  F1  UNL     1      25.992   0.131  53.169  1.00  0.00    -0.205 F 
BRANCH  27  29
HETATM   29  C2  UNL     1      28.228   1.216  53.355  1.00  0.00     0.040 C 
HETATM   30  C1  UNL     1      28.674   2.420  53.687  1.00  0.00     0.035 C 
HETATM   31 BR1  UNL     1      29.367  -0.279  53.712  1.00  0.00    -0.049 Br
ENDBRANCH  27  29
ENDBRANCH  25  26
ENDBRANCH  24  25
ENDBRANCH   1  24
TORSDOF 4
ENDMDL
MODEL 5
REMARK VINA RESULT:      -8.3      4.141      7.007
REMARK  4 active torsions:
REMARK  status: ('A' for Active; 'I' for Inactive)
REMARK    1  A    between atoms: C2_2  and  C3_4 
REMARK    2  A    between atoms: C4_6  and  C5_7 
REMARK    3  A    between atoms: C5_7  and  N1_8 
REMARK    4  A    between atoms: N1_8  and  C6_9 
ROOT
HETATM    1  C6  UNL     1      22.878  -0.282  53.644  1.00  0.00     0.132 A 
HETATM    2  N2  UNL     1      22.388  -1.223  54.494  1.00  0.00    -0.225 NA
HETATM    3  C7  UNL     1      21.067  -1.455  54.409  1.00  0.00     0.235 A 
HETATM    4  N3  UNL     1      20.279  -0.818  53.561  1.00  0.00    -0.243 NA
HETATM    5  C8  UNL     1      20.673   0.115  52.695  1.00  0.00     0.076 A 
HETATM    6  C9  UNL     1      22.028   0.355  52.778  1.00  0.00     0.037 A 
HETATM    7  C10 UNL     1      22.668   1.310  51.911  1.00  0.00     0.034 C 
HETATM    8  C11 UNL     1      23.224   2.250  51.158  1.00  0.00     0.084 C 
HETATM    9  N4  UNL     1      23.291   3.701  51.109  1.00  0.00    -0.395 N 
HETATM   10  C12 UNL     1      22.642   4.233  49.902  1.00  0.00     0.076 C 
HETATM   11  C13 UNL     1      23.470   3.729  48.741  1.00  0.00     0.032 C 
HETATM   12  C14 UNL     1      21.272   3.543  49.916  1.00  0.00     0.026 C 
HETATM   13  C15 UNL     1      20.396   3.937  48.774  1.00  0.00     0.032 C 
HETATM   14  C16 UNL     1      19.115   3.134  48.886  1.00  0.00     0.275 C 
HETATM   15  N5  UNL     1      18.395   3.327  50.100  1.00  0.00     0.114 N 
HETATM   16  C17 UNL     1      17.364   4.308  50.015  1.00  0.00     0.301 C 
HETATM   17  C18 UNL     1      15.965   3.799  50.008  1.00  0.00     0.198 C 
HETATM   18  O1  UNL     1      15.766   2.632  50.688  1.00  0.00    -0.386 OA
HETATM   19  C19 UNL     1      16.761   2.361  51.593  1.00  0.00     0.223 C 
HETATM   20  C20 UNL     1      18.039   2.120  50.778  1.00  0.00     0.332 C 
HETATM   21  N6  UNL     1      19.049   1.818  51.781  1.00  0.00    -0.406 NA
HETATM   22  C21 UNL     1      19.660   0.712  51.857  1.00  0.00     0.352 C 
HETATM   23  H8  UNL     1      23.790   3.622  51.999  1.00  0.00     0.159 HD
ENDROOT
BRANCH   1  24
HETATM   24  N1  UNL     1      24.209   0.193  53.507  1.00  0.00    -0.371 NA
BRANCH  24  25
HETATM   25  C5  UNL     1      25.231  -0.530  53.389  1.00  0.00     0.289 C 
BRANCH  25  26
HETATM   26  C4  UNL     1      26.399  -1.300  53.101  1.00  0.00     0.062 C 
HETATM   27  C3  UNL     1      27.660  -1.565  52.997  1.00  0.00     0.134 C 
HETATM   28  F1  UNL     1      27.918  -2.808  52.538  1.00  0.00    -0.205 F 
BRANCH  27  29
HETATM   29  C2  UNL     1      28.648  -0.569  53.352  1.00  0.00     0.040 C 
HETATM   30  C1  UNL     1      29.889  -0.871  53.706  1.00  0.00     0.035 C 
HETATM   31 BR1  UNL     1      28.160   1.281  53.328  1.00  0.00    -0.049 Br
ENDBRANCH  27  29
ENDBRANCH  25  26
ENDBRANCH  24  25
ENDBRANCH   1  24
TORSDOF 4
ENDMDL
MODEL 6
REMARK VINA RESULT:      -8.3      3.246      5.194
REMARK  4 active torsions:
REMARK  status: ('A' for Active; 'I' for Inactive)
REMARK    1  A    between atoms: C2_2  and  C3_4 
REMARK    2  A    between atoms: C4_6  and  C5_7 
REMARK    3  A    between atoms: C5_7  and  N1_8 
REMARK    4  A    between atoms: N1_8  and  C6_9 
ROOT
HETATM    1  C6  UNL     1      26.485   6.628  48.769  1.00  0.00     0.132 A 
HETATM    2  N2  UNL     1      27.703   6.633  48.166  1.00  0.00    -0.225 NA
HETATM    3  C7  UNL     1      28.397   5.485  48.243  1.00  0.00     0.235 A 
HETATM    4  N3  UNL     1      27.941   4.410  48.861  1.00  0.00    -0.243 NA
HETATM    5  C8  UNL     1      26.762   4.316  49.475  1.00  0.00     0.076 A 
HETATM    6  C9  UNL     1      26.047   5.491  49.398  1.00  0.00     0.037 A 
HETATM    7  C10 UNL     1      24.732   5.600  49.975  1.00  0.00     0.034 C 
HETATM    8  C11 UNL     1      23.556   5.705  50.581  1.00  0.00     0.084 C 
HETATM    9  N4  UNL     1      23.043   5.850  51.932  1.00  0.00    -0.395 N 
HETATM   10  C12 UNL     1      22.260   4.676  52.344  1.00  0.00     0.076 C 
HETATM   11  C13 UNL     1      21.055   4.652  51.431  1.00  0.00     0.032 C 
HETATM   12  C14 UNL     1      23.197   3.506  52.018  1.00  0.00     0.026 C 
HETATM   13  C15 UNL     1      22.627   2.172  52.366  1.00  0.00     0.032 C 
HETATM   14  C16 UNL     1      23.629   1.122  51.930  1.00  0.00     0.275 C 
HETATM   15  N5  UNL     1      24.915   1.239  52.534  1.00  0.00     0.114 N 
HETATM   16  C17 UNL     1      25.090   0.427  53.693  1.00  0.00     0.301 C 
HETATM   17  C18 UNL     1      25.970  -0.763  53.542  1.00  0.00     0.198 C 
HETATM   18  O1  UNL     1      26.969  -0.635  52.620  1.00  0.00    -0.386 OA
HETATM   19  C19 UNL     1      27.251   0.672  52.311  1.00  0.00     0.223 C 
HETATM   20  C20 UNL     1      26.006   1.235  51.612  1.00  0.00     0.332 C 
HETATM   21  N6  UNL     1      26.369   2.607  51.290  1.00  0.00    -0.406 NA
HETATM   22  C21 UNL     1      26.444   3.060  50.111  1.00  0.00     0.352 C 
HETATM   23  H8  UNL     1      23.514   6.758  51.921  1.00  0.00     0.159 HD
ENDROOT
BRANCH   1  24
HETATM   24  N1  UNL     1      25.535   7.678  48.875  1.00  0.00    -0.371 NA
BRANCH  24  25
HETATM   25  C5  UNL     1      25.791   8.904  48.769  1.00  0.00     0.289 C 
BRANCH  25  26
HETATM   26  C4  UNL     1      26.234  10.254  48.616  1.00  0.00     0.062 C 
HETATM   27  C3  UNL     1      27.056  11.221  48.370  1.00  0.00     0.134 C 
HETATM   28  F1  UNL     1      26.503  12.447  48.494  1.00  0.00    -0.205 F 
BRANCH  27  29
HETATM   29  C2  UNL     1      28.427  10.940  48.005  1.00  0.00     0.040 C 
HETATM   30  C1  UNL     1      29.001  11.426  46.913  1.00  0.00     0.035 C 
HETATM   31 BR1  UNL     1      29.481   9.808  49.131  1.00  0.00    -0.049 Br
ENDBRANCH  27  29
ENDBRANCH  25  26
ENDBRANCH  24  25
ENDBRANCH   1  24
TORSDOF 4
ENDMDL
MODEL 7
REMARK VINA RESULT:      -8.3      4.117      6.532
REMARK  4 active torsions:
REMARK  status: ('A' for Active; 'I' for Inactive)
REMARK    1  A    between atoms: C2_2  and  C3_4 
REMARK    2  A    between atoms: C4_6  and  C5_7 
REMARK    3  A    between atoms: C5_7  and  N1_8 
REMARK    4  A    between atoms: N1_8  and  C6_9 
ROOT
HETATM    1  C6  UNL     1      24.646   5.104  48.960  1.00  0.00     0.132 A 
HETATM    2  N2  UNL     1      25.619   5.867  48.398  1.00  0.00    -0.225 NA
HETATM    3  C7  UNL     1      26.881   5.517  48.699  1.00  0.00     0.235 A 
HETATM    4  N3  UNL     1      27.176   4.499  49.488  1.00  0.00    -0.243 NA
HETATM    5  C8  UNL     1      26.288   3.700  50.079  1.00  0.00     0.076 A 
HETATM    6  C9  UNL     1      24.992   4.055  49.773  1.00  0.00     0.037 A 
HETATM    7  C10 UNL     1      23.875   3.305  50.286  1.00  0.00     0.034 C 
HETATM    8  C11 UNL     1      22.859   2.651  50.833  1.00  0.00     0.084 C 
HETATM    9  N4  UNL     1      22.195   2.562  52.122  1.00  0.00    -0.395 N 
HETATM   10  C12 UNL     1      22.345   1.227  52.718  1.00  0.00     0.076 C 
HETATM   11  C13 UNL     1      21.608   0.285  51.793  1.00  0.00     0.032 C 
HETATM   12  C14 UNL     1      23.857   0.980  52.633  1.00  0.00     0.026 C 
HETATM   13  C15 UNL     1      24.278  -0.334  53.201  1.00  0.00     0.032 C 
HETATM   14  C16 UNL     1      25.774  -0.462  52.988  1.00  0.00     0.275 C 
HETATM   15  N5  UNL     1      26.552   0.567  53.593  1.00  0.00     0.114 N 
HETATM   16  C17 UNL     1      27.056   0.231  54.884  1.00  0.00     0.301 C 
HETATM   17  C18 UNL     1      28.515  -0.049  54.972  1.00  0.00     0.198 C 
HETATM   18  O1  UNL     1      29.292   0.618  54.068  1.00  0.00    -0.386 OA
HETATM   19  C19 UNL     1      28.672   1.720  53.537  1.00  0.00     0.223 C 
HETATM   20  C20 UNL     1      27.484   1.200  52.716  1.00  0.00     0.332 C 
HETATM   21  N6  UNL     1      26.881   2.403  52.161  1.00  0.00    -0.406 NA
HETATM   22  C21 UNL     1      26.802   2.647  50.922  1.00  0.00     0.352 C 
HETATM   23  H8  UNL     1      21.937   3.539  51.960  1.00  0.00     0.159 HD
ENDROOT
BRANCH   1  24
HETATM   24  N1  UNL     1      23.235   5.230  48.851  1.00  0.00    -0.371 NA
BRANCH  24  25
HETATM   25  C5  UNL     1      22.559   4.971  47.824  1.00  0.00     0.289 C 
BRANCH  25  26
HETATM   26  C4  UNL     1      21.736   4.547  46.736  1.00  0.00     0.062 C 
HETATM   27  C3  UNL     1      20.734   3.982  46.144  1.00  0.00     0.134 C 
HETATM   28  F1  UNL     1      20.770   4.087  44.799  1.00  0.00    -0.205 F 
BRANCH  27  29
HETATM   29  C2  UNL     1      19.710   3.315  46.918  1.00  0.00     0.040 C 
HETATM   30  C1  UNL     1      19.953   2.705  48.071  1.00  0.00     0.035 C 
HETATM   31 BR1  UNL     1      17.912   3.288  46.265  1.00  0.00    -0.049 Br
ENDBRANCH  27  29
ENDBRANCH  25  26
ENDBRANCH  24  25
ENDBRANCH   1  24
TORSDOF 4
ENDMDL
MODEL 8
REMARK VINA RESULT:      -8.3      5.504      8.577
REMARK  4 active torsions:
REMARK  status: ('A' for Active; 'I' for Inactive)
REMARK    1  A    between atoms: C2_2  and  C3_4 
REMARK    2  A    between atoms: C4_6  and  C5_7 
REMARK    3  A    between atoms: C5_7  and  N1_8 
REMARK    4  A    between atoms: N1_8  and  C6_9 
ROOT
HETATM    1  C6  UNL     1      20.621   3.725  51.648  1.00  0.00     0.132 A 
HETATM    2  N2  UNL     1      20.801   4.863  50.929  1.00  0.00    -0.225 NA
HETATM    3  C7  UNL     1      22.066   5.123  50.555  1.00  0.00     0.235 A 
HETATM    4  N3  UNL     1      23.081   4.334  50.858  1.00  0.00    -0.243 NA
HETATM    5  C8  UNL     1      22.995   3.202  51.557  1.00  0.00     0.076 A 
HETATM    6  C9  UNL     1      21.700   2.932  51.941  1.00  0.00     0.037 A 
HETATM    7  C10 UNL     1      21.379   1.741  52.685  1.00  0.00     0.034 C 
HETATM    8  C11 UNL     1      21.116   0.680  53.436  1.00  0.00     0.084 C 
HETATM    9  N4  UNL     1      21.278   0.264  54.819  1.00  0.00    -0.395 N 
HETATM   10  C12 UNL     1      22.207  -0.868  54.939  1.00  0.00     0.076 C 
HETATM   11  C13 UNL     1      21.537  -2.020  54.224  1.00  0.00     0.032 C 
HETATM   12  C14 UNL     1      23.433  -0.393  54.148  1.00  0.00     0.026 C 
HETATM   13  C15 UNL     1      24.550  -1.382  54.131  1.00  0.00     0.032 C 
HETATM   14  C16 UNL     1      25.654  -0.805  53.266  1.00  0.00     0.275 C 
HETATM   15  N5  UNL     1      26.163   0.450  53.708  1.00  0.00     0.114 N 
HETATM   16  C17 UNL     1      27.328   0.350  54.524  1.00  0.00     0.301 C 
HETATM   17  C18 UNL     1      28.612   0.768  53.898  1.00  0.00     0.198 C 
HETATM   18  O1  UNL     1      28.506   1.739  52.944  1.00  0.00    -0.386 OA
HETATM   19  C19 UNL     1      27.335   2.448  53.026  1.00  0.00     0.223 C 
HETATM   20  C20 UNL     1      26.204   1.463  52.701  1.00  0.00     0.332 C 
HETATM   21  N6  UNL     1      24.995   2.269  52.781  1.00  0.00    -0.406 NA
HETATM   22  C21 UNL     1      24.221   2.480  51.803  1.00  0.00     0.352 C 
HETATM   23  H8  UNL     1      20.620   1.018  55.033  1.00  0.00     0.159 HD
ENDROOT
BRANCH   1  24
HETATM   24  N1  UNL     1      19.423   3.194  52.197  1.00  0.00    -0.371 NA
BRANCH  24  25
HETATM   25  C5  UNL     1      18.262   3.442  51.784  1.00  0.00     0.289 C 
BRANCH  25  26
HETATM   26  C4  UNL     1      16.978   3.880  51.337  1.00  0.00     0.062 C 
HETATM   27  C3  UNL     1      15.700   4.072  51.378  1.00  0.00     0.134 C 
HETATM   28  F1  UNL     1      15.210   4.696  50.284  1.00  0.00    -0.205 F 
BRANCH  27  29
HETATM   29  C2  UNL     1      14.930   3.629  52.520  1.00  0.00     0.040 C 
HETATM   30  C1  UNL     1      14.676   4.402  53.567  1.00  0.00     0.035 C 
HETATM   31 BR1  UNL     1      14.242   1.844  52.549  1.00  0.00    -0.049 Br
ENDBRANCH  27  29
ENDBRANCH  25  26
ENDBRANCH  24  25
ENDBRANCH   1  24
TORSDOF 4
ENDMDL
MODEL 9
REMARK VINA RESULT:      -7.9      4.181      8.095
REMARK  4 active torsions:
REMARK  status: ('A' for Active; 'I' for Inactive)
REMARK    1  A    between atoms: C2_2  and  C3_4 
REMARK    2  A    between atoms: C4_6  and  C5_7 
REMARK    3  A    between atoms: C5_7  and  N1_8 
REMARK    4  A    between atoms: N1_8  and  C6_9 
ROOT
HETATM    1  C6  UNL     1      24.615   2.653  50.646  1.00  0.00     0.132 A 
HETATM    2  N2  UNL     1      23.628   1.772  50.953  1.00  0.00    -0.225 NA
HETATM    3  C7  UNL     1      22.461   1.959  50.313  1.00  0.00     0.235 A 
HETATM    4  N3  UNL     1      22.268   2.930  49.438  1.00  0.00    -0.243 NA
HETATM    5  C8  UNL     1      23.178   3.835  49.079  1.00  0.00     0.076 A 
HETATM    6  C9  UNL     1      24.377   3.647  49.732  1.00  0.00     0.037 A 
HETATM    7  C10 UNL     1      25.507   4.500  49.471  1.00  0.00     0.034 C 
HETATM    8  C11 UNL     1      26.511   5.344  49.275  1.00  0.00     0.084 C 
HETATM    9  N4  UNL     1      26.878   6.698  49.654  1.00  0.00    -0.395 N 
HETATM   10  C12 UNL     1      26.945   7.589  48.487  1.00  0.00     0.076 C 
HETATM   11  C13 UNL     1      28.079   7.062  47.638  1.00  0.00     0.032 C 
HETATM   12  C14 UNL     1      25.600   7.342  47.790  1.00  0.00     0.026 C 
HETATM   13  C15 UNL     1      25.412   8.160  46.556  1.00  0.00     0.032 C 
HETATM   14  C16 UNL     1      24.081   7.763  45.948  1.00  0.00     0.275 C 
HETATM   15  N5  UNL     1      22.955   7.957  46.800  1.00  0.00     0.114 N 
HETATM   16  C17 UNL     1      22.283   9.199  46.602  1.00  0.00     0.301 C 
HETATM   17  C18 UNL     1      20.959   9.134  45.925  1.00  0.00     0.198 C 
HETATM   18  O1  UNL     1      20.255   7.982  46.130  1.00  0.00    -0.386 OA
HETATM   19  C19 UNL     1      20.677   7.284  47.233  1.00  0.00     0.223 C 
HETATM   20  C20 UNL     1      22.107   6.815  46.934  1.00  0.00     0.332 C 
HETATM   21  N6  UNL     1      22.493   6.067  48.121  1.00  0.00    -0.406 NA
HETATM   22  C21 UNL     1      22.776   4.834  48.117  1.00  0.00     0.352 C 
HETATM   23  H8  UNL     1      26.911   6.330  50.609  1.00  0.00     0.159 HD
ENDROOT
BRANCH   1  24
HETATM   24  N1  UNL     1      25.937   2.730  51.161  1.00  0.00    -0.371 NA
BRANCH  24  25
HETATM   25  C5  UNL     1      26.362   2.112  52.170  1.00  0.00     0.289 C 
BRANCH  25  26
HETATM   26  C4  UNL     1      26.704   1.330  53.315  1.00  0.00     0.062 C 
HETATM   27  C3  UNL     1      27.155   0.315  53.978  1.00  0.00     0.134 C 
HETATM   28  F1  UNL     1      27.074   0.464  55.318  1.00  0.00    -0.205 F 
BRANCH  27  29
HETATM   29  C2  UNL     1      27.678  -0.839  53.281  1.00  0.00     0.040 C 
HETATM   30  C1  UNL     1      26.922  -1.654  52.558  1.00  0.00     0.035 C 
HETATM   31 BR1  UNL     1      29.545  -1.238  53.401  1.00  0.00    -0.049 Br
ENDBRANCH  27  29
ENDBRANCH  25  26
ENDBRANCH  24  25
ENDBRANCH   1  24
TORSDOF 4
ENDMDL
