MODEL 1
REMARK VINA RESULT:      -7.8      0.000      0.000
REMARK  4 active torsions:
REMARK  status: ('A' for Active; 'I' for Inactive)
REMARK    1  A    between atoms: C2_2  and  C3_3 
REMARK    2  A    between atoms: C11_13  and  O1_14 
REMARK    3  A    between atoms: C13_16  and  O2_17 
REMARK    4  A    between atoms: C15_19  and  O3_20 
ROOT
HETATM    1  C3  UNL     1      25.533   0.365  54.019  1.00  0.00    -0.061 A 
HETATM    2  C4  UNL     1      24.481  -0.430  53.798  1.00  0.00    -0.007 A 
HETATM    3  C5  UNL     1      23.516   0.336  52.929  1.00  0.00     0.066 A 
HETATM    4  C6  UNL     1      22.263   0.403  53.678  1.00  0.00     0.006 C 
HETATM    5  C7  UNL     1      21.051   0.236  53.177  1.00  0.00     0.115 C 
HETATM    6  N1  UNL     1      20.774  -0.037  51.810  1.00  0.00    -0.256 NA
HETATM    7  C8  UNL     1      21.456   0.625  50.943  1.00  0.00     0.207 C 
HETATM    8  N2  UNL     1      22.281   1.428  50.156  1.00  0.00    -0.350 N 
HETATM    9  C9  UNL     1      22.970   2.572  50.640  1.00  0.00     0.046 C 
HETATM   10  C10 UNL     1      22.870   3.456  49.655  1.00  0.00     0.069 C 
HETATM   11  C11 UNL     1      23.421   4.831  49.644  1.00  0.00     0.102 C 
HETATM   12  C13 UNL     1      23.661   5.570  50.742  1.00  0.00     0.111 C 
HETATM   13  C15 UNL     1      23.458   5.250  52.159  1.00  0.00     0.201 C 
HETATM   14  C16 UNL     1      23.827   3.885  52.549  1.00  0.00     0.025 C 
HETATM   15  C17 UNL     1      23.633   2.732  51.924  1.00  0.00    -0.003 C 
HETATM   16  C18 UNL     1      24.184   1.638  52.714  1.00  0.00    -0.034 A 
HETATM   17  C19 UNL     1      25.366   1.647  53.355  1.00  0.00     0.015 A 
HETATM   18  H11 UNL     1      22.362   1.124  49.162  1.00  0.00     0.166 HD
ENDROOT
BRANCH   1  19
HETATM   19  C2  UNL     1      26.729   0.000  54.837  1.00  0.00     0.034 C 
HETATM   20  C1  UNL     1      28.000   0.259  54.077  1.00  0.00     0.010 C 
ENDBRANCH   1  19
BRANCH  13  21
HETATM   21  O3  UNL     1      24.249   6.138  52.888  1.00  0.00    -0.385 OA
HETATM   22  H20 UNL     1      24.905   5.583  53.413  1.00  0.00     0.210 HD
ENDBRANCH  13  21
BRANCH  11  23
HETATM   23  O1  UNL     1      23.710   5.390  48.389  1.00  0.00    -0.353 OA
HETATM   24  C12 UNL     1      22.775   5.554  47.364  1.00  0.00     0.210 C 
ENDBRANCH  11  23
BRANCH  12  25
HETATM   25  O2  UNL     1      24.181   6.822  50.381  1.00  0.00    -0.354 OA
HETATM   26  C14 UNL     1      23.238   7.897  50.377  1.00  0.00     0.209 C 
ENDBRANCH  12  25
TORSDOF 4
ENDMDL
MODEL 2
REMARK VINA RESULT:      -7.7      2.039      4.143
REMARK  4 active torsions:
REMARK  status: ('A' for Active; 'I' for Inactive)
REMARK    1  A    between atoms: C2_2  and  C3_3 
REMARK    2  A    between atoms: C11_13  and  O1_14 
REMARK    3  A    between atoms: C13_16  and  O2_17 
REMARK    4  A    between atoms: C15_19  and  O3_20 
ROOT
HETATM    1  C3  UNL     1      21.749  -0.867  53.873  1.00  0.00    -0.061 A 
HETATM    2  C4  UNL     1      22.961  -0.953  54.433  1.00  0.00    -0.007 A 
HETATM    3  C5  UNL     1      23.818   0.120  53.811  1.00  0.00     0.066 A 
HETATM    4  C6  UNL     1      24.956  -0.570  53.207  1.00  0.00     0.006 C 
HETATM    5  C7  UNL     1      26.216  -0.174  53.253  1.00  0.00     0.115 C 
HETATM    6  N1  UNL     1      26.667   1.005  53.905  1.00  0.00    -0.256 NA
HETATM    7  C8  UNL     1      25.943   2.058  53.755  1.00  0.00     0.207 C 
HETATM    8  N2  UNL     1      25.042   3.086  53.481  1.00  0.00    -0.350 N 
HETATM    9  C9  UNL     1      24.087   3.046  52.430  1.00  0.00     0.046 C 
HETATM   10  C10 UNL     1      24.088   4.279  51.938  1.00  0.00     0.069 C 
HETATM   11  C11 UNL     1      23.263   4.781  50.815  1.00  0.00     0.102 C 
HETATM   12  C13 UNL     1      22.775   4.018  49.820  1.00  0.00     0.111 C 
HETATM   13  C15 UNL     1      22.910   2.577  49.582  1.00  0.00     0.201 C 
HETATM   14  C16 UNL     1      22.803   1.734  50.777  1.00  0.00     0.025 C 
HETATM   15  C17 UNL     1      23.292   1.909  51.997  1.00  0.00    -0.003 C 
HETATM   16  C18 UNL     1      22.913   0.790  52.850  1.00  0.00    -0.034 A 
HETATM   17  C19 UNL     1      21.703   0.205  52.893  1.00  0.00     0.015 A 
HETATM   18  H11 UNL     1      25.118   3.910  54.116  1.00  0.00     0.166 HD
ENDROOT
BRANCH   1  19
HETATM   19  C2  UNL     1      20.587  -1.748  54.200  1.00  0.00     0.034 C 
HETATM   20  C1  UNL     1      19.327  -1.236  53.562  1.00  0.00     0.010 C 
ENDBRANCH   1  19
BRANCH  13  21
HETATM   21  O3  UNL     1      21.887   2.218  48.704  1.00  0.00    -0.385 OA
HETATM   22  H20 UNL     1      21.807   1.216  48.743  1.00  0.00     0.210 HD
ENDBRANCH  13  21
BRANCH  11  23
HETATM   23  O1  UNL     1      22.978   6.156  50.801  1.00  0.00    -0.353 OA
HETATM   24  C12 UNL     1      23.943   7.163  50.894  1.00  0.00     0.210 C 
ENDBRANCH  11  23
BRANCH  12  25
HETATM   25  O2  UNL     1      22.038   4.804  48.922  1.00  0.00    -0.354 OA
HETATM   26  C14 UNL     1      22.737   5.195  47.738  1.00  0.00     0.209 C 
ENDBRANCH  12  25
TORSDOF 4
ENDMDL
MODEL 3
REMARK VINA RESULT:      -7.4      8.576     10.634
REMARK  4 active torsions:
REMARK  status: ('A' for Active; 'I' for Inactive)
REMARK    1  A    between atoms: C2_2  and  C3_3 
REMARK    2  A    between atoms: C11_13  and  O1_14 
REMARK    3  A    between atoms: C13_16  and  O2_17 
REMARK    4  A    between atoms: C15_19  and  O3_20 
ROOT
HETATM    1  C3  UNL     1      27.289   6.134  48.644  1.00  0.00    -0.061 A 
HETATM    2  C4  UNL     1      27.391   7.467  48.615  1.00  0.00    -0.007 A 
HETATM    3  C5  UNL     1      28.775   7.798  48.115  1.00  0.00     0.066 A 
HETATM    4  C6  UNL     1      29.403   8.598  49.165  1.00  0.00     0.006 C 
HETATM    5  C7  UNL     1      30.145   9.676  48.978  1.00  0.00     0.115 C 
HETATM    6  N1  UNL     1      30.454  10.233  47.708  1.00  0.00    -0.256 NA
HETATM    7  C8  UNL     1      30.752   9.400  46.773  1.00  0.00     0.207 C 
HETATM    8  N2  UNL     1      31.047   8.358  45.895  1.00  0.00    -0.350 N 
HETATM    9  C9  UNL     1      31.363   7.036  46.309  1.00  0.00     0.046 C 
HETATM   10  C10 UNL     1      32.335   6.658  45.487  1.00  0.00     0.069 C 
HETATM   11  C11 UNL     1      33.031   5.352  45.488  1.00  0.00     0.102 C 
HETATM   12  C13 UNL     1      33.163   4.552  46.562  1.00  0.00     0.111 C 
HETATM   13  C15 UNL     1      32.690   4.735  47.938  1.00  0.00     0.201 C 
HETATM   14  C16 UNL     1      31.343   5.300  48.065  1.00  0.00     0.025 C 
HETATM   15  C17 UNL     1      30.754   6.275  47.387  1.00  0.00    -0.003 C 
HETATM   16  C18 UNL     1      29.398   6.477  47.881  1.00  0.00    -0.034 A 
HETATM   17  C19 UNL     1      28.520   5.506  48.193  1.00  0.00     0.015 A 
HETATM   18  H11 UNL     1      31.020   8.620  44.886  1.00  0.00     0.166 HD
ENDROOT
BRANCH   1  19
HETATM   19  C2  UNL     1      26.078   5.374  49.079  1.00  0.00     0.034 C 
HETATM   20  C1  UNL     1      26.424   3.949  49.404  1.00  0.00     0.010 C 
ENDBRANCH   1  19
BRANCH  13  21
HETATM   21  O3  UNL     1      32.689   3.473  48.533  1.00  0.00    -0.385 OA
HETATM   22  H20 UNL     1      31.805   3.371  49.003  1.00  0.00     0.210 HD
ENDBRANCH  13  21
BRANCH  11  23
HETATM   23  O1  UNL     1      33.589   4.928  44.271  1.00  0.00    -0.353 OA
HETATM   24  C12 UNL     1      33.089   5.271  43.012  1.00  0.00     0.210 C 
ENDBRANCH  11  23
BRANCH  12  25
HETATM   25  O2  UNL     1      33.875   3.392  46.221  1.00  0.00    -0.354 OA
HETATM   26  C14 UNL     1      35.269   3.416  46.538  1.00  0.00     0.209 C 
ENDBRANCH  12  25
TORSDOF 4
ENDMDL
MODEL 4
REMARK VINA RESULT:      -7.2      3.229      5.155
REMARK  4 active torsions:
REMARK  status: ('A' for Active; 'I' for Inactive)
REMARK    1  A    between atoms: C2_2  and  C3_3 
REMARK    2  A    between atoms: C11_13  and  O1_14 
REMARK    3  A    between atoms: C13_16  and  O2_17 
REMARK    4  A    between atoms: C15_19  and  O3_20 
ROOT
HETATM    1  C3  UNL     1      26.132   2.899  50.362  1.00  0.00    -0.061 A 
HETATM    2  C4  UNL     1      26.758   2.126  51.256  1.00  0.00    -0.007 A 
HETATM    3  C5  UNL     1      25.698   1.509  52.133  1.00  0.00     0.066 A 
HETATM    4  C6  UNL     1      26.013   1.921  53.499  1.00  0.00     0.006 C 
HETATM    5  C7  UNL     1      25.955   1.153  54.573  1.00  0.00     0.115 C 
HETATM    6  N1  UNL     1      25.570  -0.215  54.567  1.00  0.00    -0.256 NA
HETATM    7  C8  UNL     1      24.567  -0.525  53.823  1.00  0.00     0.207 C 
HETATM    8  N2  UNL     1      23.474  -0.673  52.971  1.00  0.00    -0.350 N 
HETATM    9  C9  UNL     1      22.668   0.407  52.520  1.00  0.00     0.046 C 
HETATM   10  C10 UNL     1      21.431  -0.074  52.545  1.00  0.00     0.069 C 
HETATM   11  C11 UNL     1      20.196   0.651  52.166  1.00  0.00     0.102 C 
HETATM   12  C13 UNL     1      20.043   1.986  52.217  1.00  0.00     0.111 C 
HETATM   13  C15 UNL     1      20.987   3.030  52.630  1.00  0.00     0.201 C 
HETATM   14  C16 UNL     1      22.369   2.835  52.179  1.00  0.00     0.025 C 
HETATM   15  C17 UNL     1      23.106   1.735  52.121  1.00  0.00    -0.003 C 
HETATM   16  C18 UNL     1      24.429   2.048  51.595  1.00  0.00    -0.034 A 
HETATM   17  C19 UNL     1      24.692   2.861  50.557  1.00  0.00     0.015 A 
HETATM   18  H11 UNL     1      23.281  -1.654  52.677  1.00  0.00     0.166 HD
ENDROOT
BRANCH   1  19
HETATM   19  C2  UNL     1      26.807   3.701  49.297  1.00  0.00     0.034 C 
HETATM   20  C1  UNL     1      26.244   5.092  49.232  1.00  0.00     0.010 C 
ENDBRANCH   1  19
BRANCH  13  21
HETATM   21  O3  UNL     1      20.520   4.229  52.093  1.00  0.00    -0.385 OA
HETATM   22  H20 UNL     1      20.953   4.334  51.191  1.00  0.00     0.210 HD
ENDBRANCH  13  21
BRANCH  11  23
HETATM   23  O1  UNL     1      19.113  -0.127  51.724  1.00  0.00    -0.353 OA
HETATM   24  C12 UNL     1      18.279  -0.868  52.566  1.00  0.00     0.210 C 
ENDBRANCH  11  23
BRANCH  12  25
HETATM   25  O2  UNL     1      18.756   2.345  51.791  1.00  0.00    -0.354 OA
HETATM   26  C14 UNL     1      18.617   2.565  50.385  1.00  0.00     0.209 C 
ENDBRANCH  12  25
TORSDOF 4
ENDMDL
MODEL 5
REMARK VINA RESULT:      -7.1      2.504      6.208
REMARK  4 active torsions:
REMARK  status: ('A' for Active; 'I' for Inactive)
REMARK    1  A    between atoms: C2_2  and  C3_3 
REMARK    2  A    between atoms: C11_13  and  O1_14 
REMARK    3  A    between atoms: C13_16  and  O2_17 
REMARK    4  A    between atoms: C15_19  and  O3_20 
ROOT
HETATM    1  C3  UNL     1      23.246   5.861  50.511  1.00  0.00    -0.061 A 
HETATM    2  C4  UNL     1      22.352   5.235  49.738  1.00  0.00    -0.007 A 
HETATM    3  C5  UNL     1      22.560   3.753  49.923  1.00  0.00     0.066 A 
HETATM    4  C6  UNL     1      22.853   3.217  48.596  1.00  0.00     0.006 C 
HETATM    5  C7  UNL     1      22.378   2.091  48.093  1.00  0.00     0.115 C 
HETATM    6  N1  UNL     1      21.495   1.211  48.776  1.00  0.00    -0.256 NA
HETATM    7  C8  UNL     1      21.748   0.995  50.019  1.00  0.00     0.207 C 
HETATM    8  N2  UNL     1      22.175   0.882  51.342  1.00  0.00    -0.350 N 
HETATM    9  C9  UNL     1      23.467   1.260  51.794  1.00  0.00     0.046 C 
HETATM   10  C10 UNL     1      23.799   0.315  52.666  1.00  0.00     0.069 C 
HETATM   11  C11 UNL     1      25.061   0.231  53.436  1.00  0.00     0.102 C 
HETATM   12  C13 UNL     1      26.234   0.764  53.050  1.00  0.00     0.111 C 
HETATM   13  C15 UNL     1      26.572   1.525  51.843  1.00  0.00     0.201 C 
HETATM   14  C16 UNL     1      25.567   2.506  51.421  1.00  0.00     0.025 C 
HETATM   15  C17 UNL     1      24.244   2.420  51.391  1.00  0.00    -0.003 C 
HETATM   16  C18 UNL     1      23.675   3.666  50.892  1.00  0.00    -0.034 A 
HETATM   17  C19 UNL     1      24.072   4.905  51.232  1.00  0.00     0.015 A 
HETATM   18  H11 UNL     1      21.463   0.490  51.995  1.00  0.00     0.166 HD
ENDROOT
BRANCH   1  19
HETATM   19  C2  UNL     1      23.391   7.343  50.631  1.00  0.00     0.034 C 
HETATM   20  C1  UNL     1      22.163   8.047  50.128  1.00  0.00     0.010 C 
ENDBRANCH   1  19
BRANCH  13  21
HETATM   21  O3  UNL     1      27.756   2.209  52.119  1.00  0.00    -0.385 OA
HETATM   22  H20 UNL     1      27.500   3.151  52.364  1.00  0.00     0.210 HD
ENDBRANCH  13  21
BRANCH  11  23
HETATM   23  O1  UNL     1      25.014  -0.460  54.659  1.00  0.00    -0.353 OA
HETATM   24  C12 UNL     1      23.908  -1.180  55.116  1.00  0.00     0.210 C 
ENDBRANCH  11  23
BRANCH  12  25
HETATM   25  O2  UNL     1      27.226   0.503  54.006  1.00  0.00    -0.354 OA
HETATM   26  C14 UNL     1      28.149  -0.533  53.661  1.00  0.00     0.209 C 
ENDBRANCH  12  25
TORSDOF 4
ENDMDL
MODEL 6
REMARK VINA RESULT:      -6.7      7.065      8.827
REMARK  4 active torsions:
REMARK  status: ('A' for Active; 'I' for Inactive)
REMARK    1  A    between atoms: C2_2  and  C3_3 
REMARK    2  A    between atoms: C11_13  and  O1_14 
REMARK    3  A    between atoms: C13_16  and  O2_17 
REMARK    4  A    between atoms: C15_19  and  O3_20 
ROOT
HETATM    1  C3  UNL     1      26.645   4.312  49.224  1.00  0.00    -0.061 A 
HETATM    2  C4  UNL     1      25.771   5.324  49.245  1.00  0.00    -0.007 A 
HETATM    3  C5  UNL     1      26.468   6.529  48.667  1.00  0.00     0.066 A 
HETATM    4  C6  UNL     1      26.425   7.557  49.705  1.00  0.00     0.006 C 
HETATM    5  C7  UNL     1      26.168   8.840  49.514  1.00  0.00     0.115 C 
HETATM    6  N1  UNL     1      25.891   9.428  48.250  1.00  0.00    -0.256 NA
HETATM    7  C8  UNL     1      26.617   9.035  47.263  1.00  0.00     0.207 C 
HETATM    8  N2  UNL     1      27.493   8.494  46.323  1.00  0.00    -0.350 N 
HETATM    9  C9  UNL     1      28.683   7.794  46.658  1.00  0.00     0.046 C 
HETATM   10  C10 UNL     1      29.568   8.201  45.757  1.00  0.00     0.069 C 
HETATM   11  C11 UNL     1      30.983   7.774  45.655  1.00  0.00     0.102 C 
HETATM   12  C13 UNL     1      31.725   7.325  46.682  1.00  0.00     0.111 C 
HETATM   13  C15 UNL     1      31.372   7.143  48.094  1.00  0.00     0.201 C 
HETATM   14  C16 UNL     1      30.036   6.588  48.336  1.00  0.00     0.025 C 
HETATM   15  C17 UNL     1      28.879   6.845  47.742  1.00  0.00    -0.003 C 
HETATM   16  C18 UNL     1      27.823   6.035  48.335  1.00  0.00    -0.034 A 
HETATM   17  C19 UNL     1      27.919   4.734  48.664  1.00  0.00     0.015 A 
HETATM   18  H11 UNL     1      27.210   8.641  45.330  1.00  0.00     0.166 HD
ENDROOT
BRANCH   1  19
HETATM   19  C2  UNL     1      26.367   2.926  49.708  1.00  0.00     0.034 C 
HETATM   20  C1  UNL     1      25.384   2.938  50.844  1.00  0.00     0.010 C 
ENDBRANCH   1  19
BRANCH  13  21
HETATM   21  O3  UNL     1      32.311   6.263  48.633  1.00  0.00    -0.385 OA
HETATM   22  H20 UNL     1      32.506   5.574  47.925  1.00  0.00     0.210 HD
ENDBRANCH  13  21
BRANCH  11  23
HETATM   23  O1  UNL     1      31.579   7.850  44.385  1.00  0.00    -0.353 OA
HETATM   24  C12 UNL     1      31.649   9.013  43.614  1.00  0.00     0.210 C 
ENDBRANCH  11  23
BRANCH  12  25
HETATM   25  O2  UNL     1      33.019   7.005  46.244  1.00  0.00    -0.354 OA
HETATM   26  C14 UNL     1      34.019   7.986  46.531  1.00  0.00     0.209 C 
ENDBRANCH  12  25
TORSDOF 4
ENDMDL
MODEL 7
REMARK VINA RESULT:      -6.6      5.168      7.099
REMARK  4 active torsions:
REMARK  status: ('A' for Active; 'I' for Inactive)
REMARK    1  A    between atoms: C2_2  and  C3_3 
REMARK    2  A    between atoms: C11_13  and  O1_14 
REMARK    3  A    between atoms: C13_16  and  O2_17 
REMARK    4  A    between atoms: C15_19  and  O3_20 
ROOT
HETATM    1  C3  UNL     1      22.220   0.068  52.880  1.00  0.00    -0.061 A 
HETATM    2  C4  UNL     1      22.608   0.791  51.825  1.00  0.00    -0.007 A 
HETATM    3  C5  UNL     1      21.359   1.259  51.120  1.00  0.00     0.066 A 
HETATM    4  C6  UNL     1      21.447   0.743  49.756  1.00  0.00     0.006 C 
HETATM    5  C7  UNL     1      21.132   1.404  48.656  1.00  0.00     0.115 C 
HETATM    6  N1  UNL     1      20.651   2.741  48.628  1.00  0.00    -0.256 NA
HETATM    7  C8  UNL     1      19.782   3.057  49.523  1.00  0.00     0.207 C 
HETATM    8  N2  UNL     1      18.857   3.215  50.554  1.00  0.00    -0.350 N 
HETATM    9  C9  UNL     1      18.235   2.134  51.234  1.00  0.00     0.046 C 
HETATM   10  C10 UNL     1      16.981   2.534  51.408  1.00  0.00     0.069 C 
HETATM   11  C11 UNL     1      15.897   1.773  52.072  1.00  0.00     0.102 C 
HETATM   12  C13 UNL     1      15.841   0.432  52.157  1.00  0.00     0.111 C 
HETATM   13  C15 UNL     1      16.771  -0.586  51.654  1.00  0.00     0.201 C 
HETATM   14  C16 UNL     1      18.193  -0.266  51.816  1.00  0.00     0.025 C 
HETATM   15  C17 UNL     1      18.840   0.878  51.645  1.00  0.00    -0.003 C 
HETATM   16  C18 UNL     1      20.258   0.696  51.932  1.00  0.00    -0.034 A 
HETATM   17  C19 UNL     1      20.770  -0.001  52.961  1.00  0.00     0.015 A 
HETATM   18  H11 UNL     1      18.646   4.206  50.800  1.00  0.00     0.166 HD
ENDROOT
BRANCH   1  19
HETATM   19  C2  UNL     1      23.141  -0.590  53.856  1.00  0.00     0.034 C 
HETATM   20  C1  UNL     1      22.371  -1.215  54.985  1.00  0.00     0.010 C 
ENDBRANCH   1  19
BRANCH  13  21
HETATM   21  O3  UNL     1      16.505  -1.757  52.363  1.00  0.00    -0.385 OA
HETATM   22  H20 UNL     1      16.172  -2.433  51.697  1.00  0.00     0.210 HD
ENDBRANCH  13  21
BRANCH  11  23
HETATM   23  O1  UNL     1      14.858   2.521  52.649  1.00  0.00    -0.353 OA
HETATM   24  C12 UNL     1      14.980   3.849  53.067  1.00  0.00     0.210 C 
ENDBRANCH  11  23
BRANCH  12  25
HETATM   25  O2  UNL     1      14.686   0.036  52.848  1.00  0.00    -0.354 OA
HETATM   26  C14 UNL     1      13.595  -0.379  52.023  1.00  0.00     0.209 C 
ENDBRANCH  12  25
TORSDOF 4
ENDMDL
MODEL 8
REMARK VINA RESULT:      -6.3      5.441      7.569
REMARK  4 active torsions:
REMARK  status: ('A' for Active; 'I' for Inactive)
REMARK    1  A    between atoms: C2_2  and  C3_3 
REMARK    2  A    between atoms: C11_13  and  O1_14 
REMARK    3  A    between atoms: C13_16  and  O2_17 
REMARK    4  A    between atoms: C15_19  and  O3_20 
ROOT
HETATM    1  C3  UNL     1      26.031   4.449  49.295  1.00  0.00    -0.061 A 
HETATM    2  C4  UNL     1      24.790   4.934  49.409  1.00  0.00    -0.007 A 
HETATM    3  C5  UNL     1      24.863   6.417  49.147  1.00  0.00     0.066 A 
HETATM    4  C6  UNL     1      24.340   7.066  50.347  1.00  0.00     0.006 C 
HETATM    5  C7  UNL     1      23.525   8.106  50.372  1.00  0.00     0.115 C 
HETATM    6  N1  UNL     1      23.025   8.768  49.218  1.00  0.00    -0.256 NA
HETATM    7  C8  UNL     1      23.862   8.964  48.261  1.00  0.00     0.207 C 
HETATM    8  N2  UNL     1      24.900   9.088  47.339  1.00  0.00    -0.350 N 
HETATM    9  C9  UNL     1      26.274   8.938  47.666  1.00  0.00     0.046 C 
HETATM   10  C10 UNL     1      26.885   9.882  46.960  1.00  0.00     0.069 C 
HETATM   11  C11 UNL     1      28.338  10.164  46.937  1.00  0.00     0.102 C 
HETATM   12  C13 UNL     1      29.192   9.882  47.937  1.00  0.00     0.111 C 
HETATM   13  C15 UNL     1      28.944   9.260  49.242  1.00  0.00     0.201 C 
HETATM   14  C16 UNL     1      28.009   8.130  49.228  1.00  0.00     0.025 C 
HETATM   15  C17 UNL     1      26.871   7.967  48.568  1.00  0.00    -0.003 C 
HETATM   16  C18 UNL     1      26.297   6.664  48.879  1.00  0.00    -0.034 A 
HETATM   17  C19 UNL     1      26.975   5.506  48.968  1.00  0.00     0.015 A 
HETATM   18  H11 UNL     1      24.593   9.305  46.366  1.00  0.00     0.166 HD
ENDROOT
BRANCH   1  19
HETATM   19  C2  UNL     1      26.415   3.017  49.478  1.00  0.00     0.034 C 
HETATM   20  C1  UNL     1      26.448   2.649  50.934  1.00  0.00     0.010 C 
ENDBRANCH   1  19
BRANCH  13  21
HETATM   21  O3  UNL     1      30.175   8.799  49.707  1.00  0.00    -0.385 OA
HETATM   22  H20 UNL     1      30.649   9.589  50.113  1.00  0.00     0.210 HD
ENDBRANCH  13  21
BRANCH  11  23
HETATM   23  O1  UNL     1      28.849  10.771  45.777  1.00  0.00    -0.353 OA
HETATM   24  C12 UNL     1      28.181  11.752  45.041  1.00  0.00     0.210 C 
ENDBRANCH  11  23
BRANCH  12  25
HETATM   25  O2  UNL     1      30.493  10.277  47.593  1.00  0.00    -0.354 OA
HETATM   26  C14 UNL     1      30.924  11.517  48.158  1.00  0.00     0.209 C 
ENDBRANCH  12  25
TORSDOF 4
ENDMDL
MODEL 9
REMARK VINA RESULT:      -6.3      2.870      4.358
REMARK  4 active torsions:
REMARK  status: ('A' for Active; 'I' for Inactive)
REMARK    1  A    between atoms: C2_2  and  C3_3 
REMARK    2  A    between atoms: C11_13  and  O1_14 
REMARK    3  A    between atoms: C13_16  and  O2_17 
REMARK    4  A    between atoms: C15_19  and  O3_20 
ROOT
HETATM    1  C3  UNL     1      26.662   4.395  49.173  1.00  0.00    -0.061 A 
HETATM    2  C4  UNL     1      26.595   3.187  49.742  1.00  0.00    -0.007 A 
HETATM    3  C5  UNL     1      25.180   3.001  50.231  1.00  0.00     0.066 A 
HETATM    4  C6  UNL     1      25.278   2.762  51.669  1.00  0.00     0.006 C 
HETATM    5  C7  UNL     1      24.588   1.867  52.354  1.00  0.00     0.115 C 
HETATM    6  N1  UNL     1      23.627   0.984  51.790  1.00  0.00    -0.256 NA
HETATM    7  C8  UNL     1      22.832   1.487  50.913  1.00  0.00     0.207 C 
HETATM    8  N2  UNL     1      22.065   2.200  49.992  1.00  0.00    -0.350 N 
HETATM    9  C9  UNL     1      22.006   3.618  49.937  1.00  0.00     0.046 C 
HETATM   10  C10 UNL     1      20.731   3.884  49.682  1.00  0.00     0.069 C 
HETATM   11  C11 UNL     1      20.125   5.227  49.524  1.00  0.00     0.102 C 
HETATM   12  C13 UNL     1      20.605   6.355  50.077  1.00  0.00     0.111 C 
HETATM   13  C15 UNL     1      21.780   6.564  50.930  1.00  0.00     0.201 C 
HETATM   14  C16 UNL     1      22.975   5.808  50.542  1.00  0.00     0.025 C 
HETATM   15  C17 UNL     1      23.100   4.559  50.117  1.00  0.00    -0.003 C 
HETATM   16  C18 UNL     1      24.502   4.260  49.852  1.00  0.00    -0.034 A 
HETATM   17  C19 UNL     1      25.377   5.072  49.233  1.00  0.00     0.015 A 
HETATM   18  H11 UNL     1      21.521   1.607  49.328  1.00  0.00     0.166 HD
ENDROOT
BRANCH   1  19
HETATM   19  C2  UNL     1      27.887   4.987  48.555  1.00  0.00     0.034 C 
HETATM   20  C1  UNL     1      27.693   6.449  48.268  1.00  0.00     0.010 C 
ENDBRANCH   1  19
BRANCH  13  21
HETATM   21  O3  UNL     1      22.086   7.923  50.867  1.00  0.00    -0.385 OA
HETATM   22  H20 UNL     1      21.477   8.328  50.175  1.00  0.00     0.210 HD
ENDBRANCH  13  21
BRANCH  11  23
HETATM   23  O1  UNL     1      18.965   5.312  48.738  1.00  0.00    -0.353 OA
HETATM   24  C12 UNL     1      18.758   4.592  47.558  1.00  0.00     0.210 C 
ENDBRANCH  11  23
BRANCH  12  25
HETATM   25  O2  UNL     1      19.797   7.449  49.730  1.00  0.00    -0.354 OA
HETATM   26  C14 UNL     1      20.157   8.113  48.516  1.00  0.00     0.209 C 
ENDBRANCH  12  25
TORSDOF 4
ENDMDL
