MODEL 1
REMARK VINA RESULT:      -8.3      0.000      0.000
REMARK  1 active torsions:
REMARK  status: ('A' for Active; 'I' for Inactive)
REMARK    1  A    between atoms: O1_1  and  C1_2 
ROOT
HETATM    1  C1  UNL     1      23.847   1.532  52.875  1.00  0.00     0.060 C 
HETATM    2  C2  UNL     1      25.028   2.037  52.645  1.00  0.00     0.083 C 
HETATM    3  C3  UNL     1      26.467   1.914  52.621  1.00  0.00     0.136 C 
HETATM    4  C4  UNL     1      26.912   2.847  51.501  1.00  0.00     0.016 C 
HETATM    5  C5  UNL     1      26.150   3.196  50.439  1.00  0.00    -0.005 A 
HETATM    6 BR1  UNL     1      26.871   4.389  49.090  1.00  0.00    -0.118 Br
HETATM    7  C6  UNL     1      25.068   3.413  49.457  1.00  0.00     0.114 A 
HETATM    8  C7  UNL     1      23.774   3.137  49.324  1.00  0.00    -0.005 C 
HETATM    9  C8  UNL     1      22.375   2.671  49.507  1.00  0.00     0.021 C 
HETATM   10  C9  UNL     1      21.924   2.013  50.539  1.00  0.00     0.135 C 
HETATM   11  O2  UNL     1      21.410   1.354  51.541  1.00  0.00    -0.358 OA
HETATM   12  C10 UNL     1      21.403   1.178  52.894  1.00  0.00     0.216 C 
HETATM   13  C11 UNL     1      22.784   0.631  53.267  1.00  0.00     0.007 C 
HETATM   14  C12 UNL     1      22.958  -0.581  53.841  1.00  0.00     0.091 C 
HETATM   15  N1  UNL     1      24.317  -0.851  54.015  1.00  0.00    -0.215 NA
HETATM   16  N2  UNL     1      25.537  -1.034  54.676  1.00  0.00    -0.310 N 
HETATM   17  C13 UNL     1      26.318   0.184  54.956  1.00  0.00     0.240 C 
HETATM   18  N3  UNL     1      26.928   1.270  54.852  1.00  0.00    -0.173 NA
HETATM   19  N4  UNL     1      27.179   2.143  53.828  1.00  0.00    -0.304 N 
HETATM   20  H12 UNL     1      24.012  -0.687  55.030  1.00  0.00     0.152 HD
HETATM   21  H13 UNL     1      25.972  -1.901  55.009  1.00  0.00     0.181 HD
HETATM   22  H15 UNL     1      27.899   2.813  54.225  1.00  0.00     0.183 HD
ENDROOT
BRANCH   1  23
HETATM   23  O1  UNL     1      23.497   2.825  52.431  1.00  0.00    -0.364 OA
HETATM   24  H1  UNL     1      24.113   3.383  51.846  1.00  0.00     0.217 HD
ENDBRANCH   1  23
TORSDOF 1
ENDMDL
MODEL 2
REMARK VINA RESULT:      -8.0      3.179      4.601
REMARK  1 active torsions:
REMARK  status: ('A' for Active; 'I' for Inactive)
REMARK    1  A    between atoms: O1_1  and  C1_2 
ROOT
HETATM    1  C1  UNL     1      23.070   2.739  51.706  1.00  0.00     0.060 C 
HETATM    2  C2  UNL     1      24.317   2.433  51.473  1.00  0.00     0.083 C 
HETATM    3  C3  UNL     1      25.715   2.794  51.433  1.00  0.00     0.136 C 
HETATM    4  C4  UNL     1      26.454   1.490  51.711  1.00  0.00     0.016 C 
HETATM    5  C5  UNL     1      25.946   0.448  52.407  1.00  0.00    -0.005 A 
HETATM    6 BR1  UNL     1      27.022  -1.142  52.681  1.00  0.00    -0.118 Br
HETATM    7  C6  UNL     1      25.096  -0.504  53.150  1.00  0.00     0.114 A 
HETATM    8  C7  UNL     1      23.830  -0.614  53.542  1.00  0.00    -0.005 C 
HETATM    9  C8  UNL     1      22.383  -0.409  53.810  1.00  0.00     0.021 C 
HETATM   10  C9  UNL     1      21.681   0.626  53.436  1.00  0.00     0.135 C 
HETATM   11  O2  UNL     1      20.925   1.631  53.092  1.00  0.00    -0.358 OA
HETATM   12  C10 UNL     1      20.644   2.559  52.132  1.00  0.00     0.216 C 
HETATM   13  C11 UNL     1      21.868   3.474  52.041  1.00  0.00     0.007 C 
HETATM   14  C12 UNL     1      21.811   4.798  52.308  1.00  0.00     0.091 C 
HETATM   15  N1  UNL     1      23.080   5.374  52.209  1.00  0.00    -0.215 NA
HETATM   16  N2  UNL     1      24.127   6.140  51.686  1.00  0.00    -0.310 N 
HETATM   17  C13 UNL     1      24.958   5.494  50.654  1.00  0.00     0.240 C 
HETATM   18  N3  UNL     1      25.679   4.694  50.021  1.00  0.00    -0.173 NA
HETATM   19  N4  UNL     1      26.205   3.455  50.276  1.00  0.00    -0.304 N 
HETATM   20  H12 UNL     1      22.605   5.779  51.336  1.00  0.00     0.152 HD
HETATM   21  H13 UNL     1      24.405   7.102  51.909  1.00  0.00     0.181 HD
HETATM   22  H15 UNL     1      26.898   3.297  49.490  1.00  0.00     0.183 HD
ENDROOT
BRANCH   1  23
HETATM   23  O1  UNL     1      22.939   1.393  51.305  1.00  0.00    -0.364 OA
HETATM   24  H1  UNL     1      22.788   0.640  51.972  1.00  0.00     0.217 HD
ENDBRANCH   1  23
TORSDOF 1
ENDMDL
MODEL 3
REMARK VINA RESULT:      -7.8      2.701      4.261
REMARK  1 active torsions:
REMARK  status: ('A' for Active; 'I' for Inactive)
REMARK    1  A    between atoms: O1_1  and  C1_2 
ROOT
HETATM    1  C1  UNL     1      22.953   1.864  52.663  1.00  0.00     0.060 C 
HETATM    2  C2  UNL     1      23.544   0.858  53.247  1.00  0.00     0.083 C 
HETATM    3  C3  UNL     1      23.570  -0.533  53.636  1.00  0.00     0.136 C 
HETATM    4  C4  UNL     1      25.051  -0.892  53.665  1.00  0.00     0.016 C 
HETATM    5  C5  UNL     1      26.010  -0.277  52.937  1.00  0.00    -0.005 A 
HETATM    6 BR1  UNL     1      27.853  -0.863  53.083  1.00  0.00    -0.118 Br
HETATM    7  C6  UNL     1      26.799   0.617  52.065  1.00  0.00     0.114 A 
HETATM    8  C7  UNL     1      26.621   1.727  51.355  1.00  0.00    -0.005 C 
HETATM    9  C8  UNL     1      26.077   2.940  50.691  1.00  0.00     0.021 C 
HETATM   10  C9  UNL     1      24.848   3.369  50.784  1.00  0.00     0.135 C 
HETATM   11  O2  UNL     1      23.637   3.850  50.835  1.00  0.00    -0.358 OA
HETATM   12  C10 UNL     1      22.535   4.060  51.613  1.00  0.00     0.216 C 
HETATM   13  C11 UNL     1      21.980   2.677  51.963  1.00  0.00     0.007 C 
HETATM   14  C12 UNL     1      20.744   2.272  51.593  1.00  0.00     0.091 C 
HETATM   15  N1  UNL     1      20.522   0.950  51.987  1.00  0.00    -0.215 NA
HETATM   16  N2  UNL     1      19.998  -0.123  52.716  1.00  0.00    -0.310 N 
HETATM   17  C13 UNL     1      20.682  -0.453  53.979  1.00  0.00     0.240 C 
HETATM   18  N3  UNL     1      21.542  -0.731  54.841  1.00  0.00    -0.173 NA
HETATM   19  N4  UNL     1      22.900  -0.908  54.829  1.00  0.00    -0.304 N 
HETATM   20  H12 UNL     1      19.879   1.475  52.668  1.00  0.00     0.152 HD
HETATM   21  H13 UNL     1      19.190  -0.719  52.505  1.00  0.00     0.181 HD
HETATM   22  H15 UNL     1      23.120  -1.316  55.783  1.00  0.00     0.183 HD
ENDROOT
BRANCH   1  23
HETATM   23  O1  UNL     1      24.138   2.483  53.113  1.00  0.00    -0.364 OA
HETATM   24  H1  UNL     1      24.742   2.055  53.811  1.00  0.00     0.217 HD
ENDBRANCH   1  23
TORSDOF 1
ENDMDL
MODEL 4
REMARK VINA RESULT:      -7.7      1.336      1.657
REMARK  1 active torsions:
REMARK  status: ('A' for Active; 'I' for Inactive)
REMARK    1  A    between atoms: O1_1  and  C1_2 
ROOT
HETATM    1  C1  UNL     1      24.742   0.928  53.213  1.00  0.00     0.060 C 
HETATM    2  C2  UNL     1      25.502   1.828  52.652  1.00  0.00     0.083 C 
HETATM    3  C3  UNL     1      26.782   2.246  52.131  1.00  0.00     0.136 C 
HETATM    4  C4  UNL     1      26.439   3.244  51.031  1.00  0.00     0.016 C 
HETATM    5  C5  UNL     1      25.282   3.254  50.332  1.00  0.00    -0.005 A 
HETATM    6 BR1  UNL     1      25.003   4.590  48.953  1.00  0.00    -0.118 Br
HETATM    7  C6  UNL     1      23.922   3.026  49.803  1.00  0.00     0.114 A 
HETATM    8  C7  UNL     1      22.854   2.286  50.086  1.00  0.00    -0.005 C 
HETATM    9  C8  UNL     1      21.874   1.340  50.681  1.00  0.00     0.021 C 
HETATM   10  C9  UNL     1      22.083   0.592  51.729  1.00  0.00     0.135 C 
HETATM   11  O2  UNL     1      22.226  -0.180  52.771  1.00  0.00    -0.358 OA
HETATM   12  C10 UNL     1      22.761  -0.307  54.020  1.00  0.00     0.216 C 
HETATM   13  C11 UNL     1      24.282  -0.292  53.845  1.00  0.00     0.007 C 
HETATM   14  C12 UNL     1      25.067  -1.335  54.194  1.00  0.00     0.091 C 
HETATM   15  N1  UNL     1      26.401  -1.077  53.869  1.00  0.00    -0.215 NA
HETATM   16  N2  UNL     1      27.754  -0.775  54.056  1.00  0.00    -0.310 N 
HETATM   17  C13 UNL     1      28.095   0.653  54.182  1.00  0.00     0.240 C 
HETATM   18  N3  UNL     1      28.198   1.884  53.993  1.00  0.00    -0.173 NA
HETATM   19  N4  UNL     1      27.743   2.758  53.042  1.00  0.00    -0.304 N 
HETATM   20  H12 UNL     1      26.437  -1.008  54.940  1.00  0.00     0.152 HD
HETATM   21  H13 UNL     1      28.558  -1.409  54.129  1.00  0.00     0.181 HD
HETATM   22  H15 UNL     1      28.267   3.658  53.241  1.00  0.00     0.183 HD
ENDROOT
BRANCH   1  23
HETATM   23  O1  UNL     1      23.821   1.984  53.053  1.00  0.00    -0.364 OA
HETATM   24  H1  UNL     1      23.773   2.765  53.703  1.00  0.00     0.217 HD
ENDBRANCH   1  23
TORSDOF 1
ENDMDL
MODEL 5
REMARK VINA RESULT:      -7.7      1.736      2.487
REMARK  1 active torsions:
REMARK  status: ('A' for Active; 'I' for Inactive)
REMARK    1  A    between atoms: O1_1  and  C1_2 
ROOT
HETATM    1  C1  UNL     1      24.387   0.891  52.731  1.00  0.00     0.060 C 
HETATM    2  C2  UNL     1      24.814   1.825  51.927  1.00  0.00     0.083 C 
HETATM    3  C3  UNL     1      25.831   2.371  51.058  1.00  0.00     0.136 C 
HETATM    4  C4  UNL     1      25.056   3.172  50.018  1.00  0.00     0.016 C 
HETATM    5  C5  UNL     1      23.779   2.926  49.650  1.00  0.00    -0.005 A 
HETATM    6 BR1  UNL     1      22.937   4.036  48.300  1.00  0.00    -0.118 Br
HETATM    7  C6  UNL     1      22.392   2.434  49.514  1.00  0.00     0.114 A 
HETATM    8  C7  UNL     1      21.575   1.579  50.121  1.00  0.00    -0.005 C 
HETATM    9  C8  UNL     1      20.956   0.569  51.019  1.00  0.00     0.021 C 
HETATM   10  C9  UNL     1      21.545  -0.013  52.026  1.00  0.00     0.135 C 
HETATM   11  O2  UNL     1      22.076  -0.630  53.046  1.00  0.00    -0.358 OA
HETATM   12  C10 UNL     1      22.916  -0.529  54.117  1.00  0.00     0.216 C 
HETATM   13  C11 UNL     1      24.320  -0.303  53.547  1.00  0.00     0.007 C 
HETATM   14  C12 UNL     1      25.338  -1.169  53.752  1.00  0.00     0.091 C 
HETATM   15  N1  UNL     1      26.483  -0.749  53.070  1.00  0.00    -0.215 NA
HETATM   16  N2  UNL     1      27.765  -0.227  52.872  1.00  0.00    -0.310 N 
HETATM   17  C13 UNL     1      27.870   1.242  52.801  1.00  0.00     0.240 C 
HETATM   18  N3  UNL     1      27.704   2.444  52.504  1.00  0.00    -0.173 NA
HETATM   19  N4  UNL     1      26.881   3.124  51.646  1.00  0.00    -0.304 N 
HETATM   20  H12 UNL     1      26.770  -0.553  54.085  1.00  0.00     0.152 HD
HETATM   21  H13 UNL     1      28.661  -0.718  52.776  1.00  0.00     0.181 HD
HETATM   22  H15 UNL     1      27.270   4.110  51.635  1.00  0.00     0.183 HD
ENDROOT
BRANCH   1  23
HETATM   23  O1  UNL     1      23.283   1.770  52.743  1.00  0.00    -0.364 OA
HETATM   24  H1  UNL     1      22.559   1.741  52.029  1.00  0.00     0.217 HD
ENDBRANCH   1  23
TORSDOF 1
ENDMDL
MODEL 6
REMARK VINA RESULT:      -7.6      3.114      4.893
REMARK  1 active torsions:
REMARK  status: ('A' for Active; 'I' for Inactive)
REMARK    1  A    between atoms: O1_1  and  C1_2 
ROOT
HETATM    1  C1  UNL     1      22.727   0.148  53.220  1.00  0.00     0.060 C 
HETATM    2  C2  UNL     1      23.577   0.936  52.622  1.00  0.00     0.083 C 
HETATM    3  C3  UNL     1      23.914   2.216  52.043  1.00  0.00     0.136 C 
HETATM    4  C4  UNL     1      25.417   2.347  52.254  1.00  0.00     0.016 C 
HETATM    5  C5  UNL     1      26.114   1.740  53.241  1.00  0.00    -0.005 A 
HETATM    6 BR1  UNL     1      28.029   2.017  53.378  1.00  0.00    -0.118 Br
HETATM    7  C6  UNL     1      26.573   0.912  54.376  1.00  0.00     0.114 A 
HETATM    8  C7  UNL     1      26.084  -0.015  55.194  1.00  0.00    -0.005 C 
HETATM    9  C8  UNL     1      25.230  -0.998  55.909  1.00  0.00     0.021 C 
HETATM   10  C9  UNL     1      23.979  -1.254  55.641  1.00  0.00     0.135 C 
HETATM   11  O2  UNL     1      22.729  -1.556  55.423  1.00  0.00    -0.358 OA
HETATM   12  C10 UNL     1      21.757  -1.741  54.483  1.00  0.00     0.216 C 
HETATM   13  C11 UNL     1      21.522  -0.377  53.828  1.00  0.00     0.007 C 
HETATM   14  C12 UNL     1      20.332   0.263  53.882  1.00  0.00     0.091 C 
HETATM   15  N1  UNL     1      20.416   1.510  53.258  1.00  0.00    -0.215 NA
HETATM   16  N2  UNL     1      20.220   2.499  52.289  1.00  0.00    -0.310 N 
HETATM   17  C13 UNL     1      21.158   2.495  51.151  1.00  0.00     0.240 C 
HETATM   18  N3  UNL     1      22.188   2.487  50.445  1.00  0.00    -0.173 NA
HETATM   19  N4  UNL     1      23.534   2.465  50.698  1.00  0.00    -0.304 N 
HETATM   20  H12 UNL     1      19.817   0.970  52.550  1.00  0.00     0.152 HD
HETATM   21  H13 UNL     1      19.506   3.234  52.244  1.00  0.00     0.181 HD
HETATM   22  H15 UNL     1      23.981   2.659  49.757  1.00  0.00     0.183 HD
ENDROOT
BRANCH   1  23
HETATM   23  O1  UNL     1      23.845  -0.706  53.111  1.00  0.00    -0.364 OA
HETATM   24  H1  UNL     1      24.758  -0.370  52.813  1.00  0.00     0.217 HD
ENDBRANCH   1  23
TORSDOF 1
ENDMDL
MODEL 7
REMARK VINA RESULT:      -7.4      3.853      6.013
REMARK  1 active torsions:
REMARK  status: ('A' for Active; 'I' for Inactive)
REMARK    1  A    between atoms: O1_1  and  C1_2 
ROOT
HETATM    1  C1  UNL     1      24.279   2.765  51.572  1.00  0.00     0.060 C 
HETATM    2  C2  UNL     1      23.133   2.500  52.135  1.00  0.00     0.083 C 
HETATM    3  C3  UNL     1      21.693   2.399  52.073  1.00  0.00     0.136 C 
HETATM    4  C4  UNL     1      21.344   1.303  53.074  1.00  0.00     0.016 C 
HETATM    5  C5  UNL     1      22.173   0.299  53.440  1.00  0.00    -0.005 A 
HETATM    6 BR1  UNL     1      21.571  -1.025  54.723  1.00  0.00    -0.118 Br
HETATM    7  C6  UNL     1      23.312  -0.615  53.657  1.00  0.00     0.114 A 
HETATM    8  C7  UNL     1      24.600  -0.696  53.335  1.00  0.00    -0.005 C 
HETATM    9  C8  UNL     1      25.968  -0.466  52.803  1.00  0.00     0.021 C 
HETATM   10  C9  UNL     1      26.339   0.554  52.080  1.00  0.00     0.135 C 
HETATM   11  O2  UNL     1      26.774   1.548  51.355  1.00  0.00    -0.358 OA
HETATM   12  C10 UNL     1      26.704   2.890  51.116  1.00  0.00     0.216 C 
HETATM   13  C11 UNL     1      25.285   3.166  50.610  1.00  0.00     0.007 C 
HETATM   14  C12 UNL     1      25.034   3.671  49.381  1.00  0.00     0.091 C 
HETATM   15  N1  UNL     1      23.658   3.763  49.160  1.00  0.00    -0.215 NA
HETATM   16  N2  UNL     1      22.400   4.352  48.997  1.00  0.00    -0.310 N 
HETATM   17  C13 UNL     1      21.652   4.652  50.231  1.00  0.00     0.240 C 
HETATM   18  N3  UNL     1      21.092   4.569  51.345  1.00  0.00    -0.173 NA
HETATM   19  N4  UNL     1      20.929   3.577  52.275  1.00  0.00    -0.304 N 
HETATM   20  H12 UNL     1      23.916   4.800  49.264  1.00  0.00     0.152 HD
HETATM   21  H13 UNL     1      21.914   4.621  48.134  1.00  0.00     0.181 HD
HETATM   22  H15 UNL     1      20.216   3.970  52.954  1.00  0.00     0.183 HD
ENDROOT
BRANCH   1  23
HETATM   23  O1  UNL     1      24.703   2.402  52.868  1.00  0.00    -0.364 OA
HETATM   24  H1  UNL     1      25.284   1.585  53.040  1.00  0.00     0.217 HD
ENDBRANCH   1  23
TORSDOF 1
ENDMDL
MODEL 8
REMARK VINA RESULT:      -7.4      3.120      5.199
REMARK  1 active torsions:
REMARK  status: ('A' for Active; 'I' for Inactive)
REMARK    1  A    between atoms: O1_1  and  C1_2 
ROOT
HETATM    1  C1  UNL     1      24.710   2.439  52.278  1.00  0.00     0.060 C 
HETATM    2  C2  UNL     1      23.725   2.831  51.517  1.00  0.00     0.083 C 
HETATM    3  C3  UNL     1      23.235   3.354  50.263  1.00  0.00     0.136 C 
HETATM    4  C4  UNL     1      21.834   2.769  50.126  1.00  0.00     0.016 C 
HETATM    5  C5  UNL     1      21.422   1.613  50.693  1.00  0.00    -0.005 A 
HETATM    6 BR1  UNL     1      19.603   1.000  50.413  1.00  0.00    -0.118 Br
HETATM    7  C6  UNL     1      21.281   0.366  51.472  1.00  0.00     0.114 A 
HETATM    8  C7  UNL     1      21.974  -0.335  52.364  1.00  0.00    -0.005 C 
HETATM    9  C8  UNL     1      22.996  -0.846  53.314  1.00  0.00     0.021 C 
HETATM   10  C9  UNL     1      24.139  -0.275  53.579  1.00  0.00     0.135 C 
HETATM   11  O2  UNL     1      25.295   0.244  53.887  1.00  0.00    -0.358 OA
HETATM   12  C10 UNL     1      25.995   1.394  54.110  1.00  0.00     0.216 C 
HETATM   13  C11 UNL     1      26.038   2.141  52.774  1.00  0.00     0.007 C 
HETATM   14  C12 UNL     1      27.193   2.421  52.131  1.00  0.00     0.091 C 
HETATM   15  N1  UNL     1      26.936   3.052  50.911  1.00  0.00    -0.215 NA
HETATM   16  N2  UNL     1      26.864   4.078  49.963  1.00  0.00    -0.310 N 
HETATM   17  C13 UNL     1      25.666   4.935  50.016  1.00  0.00     0.240 C 
HETATM   18  N3  UNL     1      24.488   5.352  50.056  1.00  0.00    -0.173 NA
HETATM   19  N4  UNL     1      23.253   4.760  50.070  1.00  0.00    -0.304 N 
HETATM   20  H12 UNL     1      27.340   3.868  51.479  1.00  0.00     0.152 HD
HETATM   21  H13 UNL     1      27.533   4.334  49.229  1.00  0.00     0.181 HD
HETATM   22  H15 UNL     1      22.577   5.562  49.917  1.00  0.00     0.183 HD
ENDROOT
BRANCH   1  23
HETATM   23  O1  UNL     1      23.613   2.223  53.138  1.00  0.00    -0.364 OA
HETATM   24  H1  UNL     1      23.064   1.366  53.113  1.00  0.00     0.217 HD
ENDBRANCH   1  23
TORSDOF 1
ENDMDL
MODEL 9
REMARK VINA RESULT:      -7.4      2.472      4.377
REMARK  1 active torsions:
REMARK  status: ('A' for Active; 'I' for Inactive)
REMARK    1  A    between atoms: O1_1  and  C1_2 
ROOT
HETATM    1  C1  UNL     1      24.397   0.219  52.984  1.00  0.00     0.060 C 
HETATM    2  C2  UNL     1      23.108   0.278  53.180  1.00  0.00     0.083 C 
HETATM    3  C3  UNL     1      21.964   0.208  54.059  1.00  0.00     0.136 C 
HETATM    4  C4  UNL     1      20.938   1.139  53.425  1.00  0.00     0.016 C 
HETATM    5  C5  UNL     1      21.237   2.192  52.632  1.00  0.00    -0.005 A 
HETATM    6 BR1  UNL     1      19.808   3.287  51.909  1.00  0.00    -0.118 Br
HETATM    7  C6  UNL     1      21.886   3.211  51.783  1.00  0.00     0.114 A 
HETATM    8  C7  UNL     1      23.095   3.485  51.302  1.00  0.00    -0.005 C 
HETATM    9  C8  UNL     1      24.539   3.483  50.952  1.00  0.00     0.021 C 
HETATM   10  C9  UNL     1      25.414   2.599  51.345  1.00  0.00     0.135 C 
HETATM   11  O2  UNL     1      26.337   1.750  51.703  1.00  0.00    -0.358 OA
HETATM   12  C10 UNL     1      26.633   0.443  51.961  1.00  0.00     0.216 C 
HETATM   13  C11 UNL     1      25.819   0.049  53.196  1.00  0.00     0.007 C 
HETATM   14  C12 UNL     1      26.395  -0.348  54.353  1.00  0.00     0.091 C 
HETATM   15  N1  UNL     1      25.424  -0.585  55.329  1.00  0.00    -0.215 NA
HETATM   16  N2  UNL     1      24.595  -1.305  56.197  1.00  0.00    -0.310 N 
HETATM   17  C13 UNL     1      23.340  -1.824  55.624  1.00  0.00     0.240 C 
HETATM   18  N3  UNL     1      22.243  -1.930  55.036  1.00  0.00    -0.173 NA
HETATM   19  N4  UNL     1      21.423  -1.071  54.354  1.00  0.00    -0.304 N 
HETATM   20  H12 UNL     1      25.741  -1.587  55.112  1.00  0.00     0.152 HD
HETATM   21  H13 UNL     1      24.735  -1.537  57.186  1.00  0.00     0.181 HD
HETATM   22  H15 UNL     1      20.526  -1.618  54.216  1.00  0.00     0.183 HD
ENDROOT
BRANCH   1  23
HETATM   23  O1  UNL     1      23.946   0.490  51.675  1.00  0.00    -0.364 OA
HETATM   24  H1  UNL     1      24.564   0.851  50.952  1.00  0.00     0.217 HD
ENDBRANCH   1  23
TORSDOF 1
ENDMDL
