MODEL 1
REMARK VINA RESULT:      -8.8      0.000      0.000
REMARK  8 active torsions:
REMARK  status: ('A' for Active; 'I' for Inactive)
REMARK    1  A    between atoms: C4_4  and  N1_5 
REMARK    2  A    between atoms: N1_5  and  C5_6 
REMARK    3  A    between atoms: C9_13  and  N5_14 
REMARK       I    between atoms: N5_14  and  C10_15 
REMARK    4  A    between atoms: C10_15  and  C11_17 
REMARK    5  A    between atoms: C12_18  and  C13_19 
REMARK    6  A    between atoms: C13_19  and  N6_20 
REMARK    7  A    between atoms: N6_20  and  C14_21 
REMARK    8  A    between atoms: N6_20  and  C17_24 
ROOT
HETATM    1  C5  UNL     1      24.579   1.313  53.077  1.00  0.00     0.142 A 
HETATM    2  N2  UNL     1      23.650   0.406  53.288  1.00  0.00    -0.224 NA
HETATM    3  C6  UNL     1      22.551   0.199  52.564  1.00  0.00     0.236 A 
HETATM    4  N3  UNL     1      22.320   0.985  51.479  1.00  0.00    -0.240 NA
HETATM    5  C7  UNL     1      23.222   1.948  51.182  1.00  0.00     0.089 A 
HETATM    6  C8  UNL     1      22.907   2.691  50.077  1.00  0.00     0.151 A 
HETATM    7  N4  UNL     1      23.776   3.682  49.722  1.00  0.00    -0.241 NA
HETATM    8  C9  UNL     1      24.893   3.914  50.433  1.00  0.00     0.131 A 
HETATM    9  C20 UNL     1      25.148   3.125  51.537  1.00  0.00     0.068 A 
HETATM   10  C21 UNL     1      24.323   2.096  51.975  1.00  0.00     0.044 A 
ENDROOT
BRANCH   8  11
HETATM   11  N5  UNL     1      25.833   4.957  50.089  1.00  0.00    -0.301 N 
HETATM   12  C10 UNL     1      26.813   4.313  49.260  1.00  0.00     0.302 C 
HETATM   13  O1  UNL     1      26.613   3.068  49.056  1.00  0.00    -0.258 OA
HETATM   14  H8  UNL     1      26.043   5.968  50.235  1.00  0.00     0.171 HD
BRANCH  12  15
HETATM   15  C11 UNL     1      27.952   5.021  48.689  1.00  0.00    -0.004 C 
HETATM   16  C12 UNL     1      28.892   5.593  48.203  1.00  0.00    -0.066 C 
BRANCH  16  17
HETATM   17  C13 UNL     1      30.044   6.267  47.601  1.00  0.00     0.367 C 
BRANCH  17  18
HETATM   18  N6  UNL     1      31.039   6.503  48.672  1.00  0.00     0.107 N 
BRANCH  18  19
HETATM   19  C14 UNL     1      32.038   5.461  48.544  1.00  0.00     0.216 C 
HETATM   20  C15 UNL     1      31.993   4.700  47.266  1.00  0.00     0.042 C 
HETATM   21  C16 UNL     1      33.392   5.956  48.956  1.00  0.00     0.042 C 
ENDBRANCH  18  19
BRANCH  18  22
HETATM   22  C17 UNL     1      31.559   7.843  48.514  1.00  0.00     0.216 C 
HETATM   23  C18 UNL     1      30.932   8.860  49.408  1.00  0.00     0.042 C 
HETATM   24  C19 UNL     1      31.210   8.267  47.080  1.00  0.00     0.042 C 
ENDBRANCH  18  22
ENDBRANCH  17  18
ENDBRANCH  16  17
ENDBRANCH  12  15
ENDBRANCH   8  11
BRANCH   1  25
HETATM   25  N1  UNL     1      25.740   1.549  53.835  1.00  0.00    -0.340 N 
HETATM   26  H5  UNL     1      25.798   2.294  54.554  1.00  0.00     0.167 HD
BRANCH  25  27
HETATM   27  C4  UNL     1      26.969   0.851  53.758  1.00  0.00     0.034 A 
HETATM   28  C3  UNL     1      27.080  -0.467  53.381  1.00  0.00     0.039 A 
HETATM   29  C2  UNL     1      28.265  -1.171  53.306  1.00  0.00    -0.021 A 
HETATM   30  C1  UNL     1      28.328  -2.588  52.896  1.00  0.00     0.051 C 
HETATM   31  C24 UNL     1      29.436  -0.544  53.626  1.00  0.00     0.122 A 
HETATM   32  C23 UNL     1      29.408   0.777  54.014  1.00  0.00     0.045 A 
HETATM   33  F1  UNL     1      30.643  -1.158  53.581  1.00  0.00    -0.206 F 
HETATM   34  C22 UNL     1      28.191   1.409  54.063  1.00  0.00     0.032 A 
ENDBRANCH  25  27
ENDBRANCH   1  25
TORSDOF 8
ENDMDL
MODEL 2
REMARK VINA RESULT:      -8.7      1.427      2.178
REMARK  8 active torsions:
REMARK  status: ('A' for Active; 'I' for Inactive)
REMARK    1  A    between atoms: C4_4  and  N1_5 
REMARK    2  A    between atoms: N1_5  and  C5_6 
REMARK    3  A    between atoms: C9_13  and  N5_14 
REMARK       I    between atoms: N5_14  and  C10_15 
REMARK    4  A    between atoms: C10_15  and  C11_17 
REMARK    5  A    between atoms: C12_18  and  C13_19 
REMARK    6  A    between atoms: C13_19  and  N6_20 
REMARK    7  A    between atoms: N6_20  and  C14_21 
REMARK    8  A    between atoms: N6_20  and  C17_24 
ROOT
HETATM    1  C5  UNL     1      24.797   2.715  51.908  1.00  0.00     0.142 A 
HETATM    2  N2  UNL     1      23.688   2.018  52.030  1.00  0.00    -0.224 NA
HETATM    3  C6  UNL     1      22.614   2.075  51.243  1.00  0.00     0.236 A 
HETATM    4  N3  UNL     1      22.617   2.931  50.187  1.00  0.00    -0.240 NA
HETATM    5  C7  UNL     1      23.716   3.691  49.980  1.00  0.00     0.089 A 
HETATM    6  C8  UNL     1      23.628   4.524  48.898  1.00  0.00     0.151 A 
HETATM    7  N4  UNL     1      24.705   5.320  48.634  1.00  0.00    -0.241 NA
HETATM    8  C9  UNL     1      25.802   5.284  49.409  1.00  0.00     0.131 A 
HETATM    9  C20 UNL     1      25.822   4.420  50.486  1.00  0.00     0.068 A 
HETATM   10  C21 UNL     1      24.775   3.573  50.833  1.00  0.00     0.044 A 
ENDROOT
BRANCH   8  11
HETATM   11  N5  UNL     1      26.958   6.117  49.162  1.00  0.00    -0.301 N 
HETATM   12  C10 UNL     1      27.964   5.216  48.673  1.00  0.00     0.302 C 
HETATM   13  O1  UNL     1      27.601   3.994  48.590  1.00  0.00    -0.258 OA
HETATM   14  H8  UNL     1      27.304   7.099  49.222  1.00  0.00     0.171 HD
BRANCH  12  15
HETATM   15  C11 UNL     1      29.303   5.656  48.297  1.00  0.00    -0.004 C 
HETATM   16  C12 UNL     1      30.406   6.032  48.002  1.00  0.00    -0.066 C 
BRANCH  16  17
HETATM   17  C13 UNL     1      31.743   6.512  47.650  1.00  0.00     0.367 C 
BRANCH  17  18
HETATM   18  N6  UNL     1      32.658   5.349  47.657  1.00  0.00     0.107 N 
BRANCH  18  19
HETATM   19  C14 UNL     1      32.318   4.549  46.498  1.00  0.00     0.216 C 
HETATM   20  C15 UNL     1      32.992   4.953  45.234  1.00  0.00     0.042 C 
HETATM   21  C16 UNL     1      32.366   3.085  46.818  1.00  0.00     0.042 C 
ENDBRANCH  18  19
BRANCH  18  22
HETATM   22  C17 UNL     1      34.017   5.846  47.654  1.00  0.00     0.216 C 
HETATM   23  C18 UNL     1      34.940   5.129  48.581  1.00  0.00     0.042 C 
HETATM   24  C19 UNL     1      33.939   7.292  48.167  1.00  0.00     0.042 C 
ENDBRANCH  18  22
ENDBRANCH  17  18
ENDBRANCH  16  17
ENDBRANCH  12  15
ENDBRANCH   8  11
BRANCH   1  25
HETATM   25  N1  UNL     1      25.936   2.672  52.732  1.00  0.00    -0.340 N 
HETATM   26  H5  UNL     1      26.241   3.478  53.309  1.00  0.00     0.167 HD
BRANCH  25  27
HETATM   27  C4  UNL     1      26.820   1.582  52.914  1.00  0.00     0.034 A 
HETATM   28  C3  UNL     1      26.513   0.282  52.588  1.00  0.00     0.039 A 
HETATM   29  C2  UNL     1      27.354  -0.798  52.764  1.00  0.00    -0.021 A 
HETATM   30  C1  UNL     1      26.973  -2.176  52.398  1.00  0.00     0.051 C 
HETATM   31  C24 UNL     1      28.595  -0.598  53.300  1.00  0.00     0.122 A 
HETATM   32  C23 UNL     1      28.978   0.677  53.653  1.00  0.00     0.045 A 
HETATM   33  F1  UNL     1      29.484  -1.599  53.508  1.00  0.00    -0.206 F 
HETATM   34  C22 UNL     1      28.085   1.699  53.447  1.00  0.00     0.032 A 
ENDBRANCH  25  27
ENDBRANCH   1  25
TORSDOF 8
ENDMDL
MODEL 3
REMARK VINA RESULT:      -8.6      1.183      1.920
REMARK  8 active torsions:
REMARK  status: ('A' for Active; 'I' for Inactive)
REMARK    1  A    between atoms: C4_4  and  N1_5 
REMARK    2  A    between atoms: N1_5  and  C5_6 
REMARK    3  A    between atoms: C9_13  and  N5_14 
REMARK       I    between atoms: N5_14  and  C10_15 
REMARK    4  A    between atoms: C10_15  and  C11_17 
REMARK    5  A    between atoms: C12_18  and  C13_19 
REMARK    6  A    between atoms: C13_19  and  N6_20 
REMARK    7  A    between atoms: N6_20  and  C14_21 
REMARK    8  A    between atoms: N6_20  and  C17_24 
ROOT
HETATM    1  C5  UNL     1      23.964   1.064  53.126  1.00  0.00     0.142 A 
HETATM    2  N2  UNL     1      22.935   0.270  53.330  1.00  0.00    -0.224 NA
HETATM    3  C6  UNL     1      21.744   0.332  52.736  1.00  0.00     0.236 A 
HETATM    4  N3  UNL     1      21.519   1.304  51.813  1.00  0.00    -0.240 NA
HETATM    5  C7  UNL     1      22.520   2.169  51.535  1.00  0.00     0.089 A 
HETATM    6  C8  UNL     1      22.202   3.114  50.597  1.00  0.00     0.151 A 
HETATM    7  N4  UNL     1      23.170   4.020  50.272  1.00  0.00    -0.241 NA
HETATM    8  C9  UNL     1      24.381   3.983  50.853  1.00  0.00     0.131 A 
HETATM    9  C20 UNL     1      24.632   3.002  51.792  1.00  0.00     0.068 A 
HETATM   10  C21 UNL     1      23.712   2.039  52.188  1.00  0.00     0.044 A 
ENDROOT
BRANCH   8  11
HETATM   11  N5  UNL     1      25.427   4.930  50.537  1.00  0.00    -0.301 N 
HETATM   12  C10 UNL     1      26.216   4.284  49.526  1.00  0.00     0.302 C 
HETATM   13  O1  UNL     1      25.816   3.118  49.192  1.00  0.00    -0.258 OA
HETATM   14  H8  UNL     1      25.797   5.873  50.783  1.00  0.00     0.171 HD
BRANCH  12  15
HETATM   15  C11 UNL     1      27.387   4.907  48.921  1.00  0.00    -0.004 C 
HETATM   16  C12 UNL     1      28.349   5.438  48.432  1.00  0.00    -0.066 C 
BRANCH  16  17
HETATM   17  C13 UNL     1      29.509   6.106  47.838  1.00  0.00     0.367 C 
BRANCH  17  18
HETATM   18  N6  UNL     1      29.755   7.349  48.602  1.00  0.00     0.107 N 
BRANCH  18  19
HETATM   19  C14 UNL     1      31.128   7.730  48.341  1.00  0.00     0.216 C 
HETATM   20  C15 UNL     1      31.935   8.045  49.551  1.00  0.00     0.042 C 
HETATM   21  C16 UNL     1      31.771   6.798  47.358  1.00  0.00     0.042 C 
ENDBRANCH  18  19
BRANCH  18  22
HETATM   22  C17 UNL     1      28.780   8.333  48.186  1.00  0.00     0.216 C 
HETATM   23  C18 UNL     1      29.295   9.347  47.221  1.00  0.00     0.042 C 
HETATM   24  C19 UNL     1      28.396   9.111  49.454  1.00  0.00     0.042 C 
ENDBRANCH  18  22
ENDBRANCH  17  18
ENDBRANCH  16  17
ENDBRANCH  12  15
ENDBRANCH   8  11
BRANCH   1  25
HETATM   25  N1  UNL     1      25.225   1.018  53.748  1.00  0.00    -0.340 N 
HETATM   26  H5  UNL     1      25.512   1.688  54.484  1.00  0.00     0.167 HD
BRANCH  25  27
HETATM   27  C4  UNL     1      26.270   0.097  53.495  1.00  0.00     0.034 A 
HETATM   28  C3  UNL     1      27.602   0.376  53.693  1.00  0.00     0.039 A 
HETATM   29  C2  UNL     1      28.639  -0.500  53.447  1.00  0.00    -0.021 A 
HETATM   30  C1  UNL     1      30.055  -0.149  53.675  1.00  0.00     0.051 C 
HETATM   31  C24 UNL     1      28.359  -1.750  52.969  1.00  0.00     0.122 A 
HETATM   32  C23 UNL     1      27.048  -2.105  52.744  1.00  0.00     0.045 A 
HETATM   33  F1  UNL     1      29.313  -2.672  52.699  1.00  0.00    -0.206 F 
HETATM   34  C22 UNL     1      26.073  -1.178  53.014  1.00  0.00     0.032 A 
ENDBRANCH  25  27
ENDBRANCH   1  25
TORSDOF 8
ENDMDL
MODEL 4
REMARK VINA RESULT:      -8.5      2.408      3.389
REMARK  8 active torsions:
REMARK  status: ('A' for Active; 'I' for Inactive)
REMARK    1  A    between atoms: C4_4  and  N1_5 
REMARK    2  A    between atoms: N1_5  and  C5_6 
REMARK    3  A    between atoms: C9_13  and  N5_14 
REMARK       I    between atoms: N5_14  and  C10_15 
REMARK    4  A    between atoms: C10_15  and  C11_17 
REMARK    5  A    between atoms: C12_18  and  C13_19 
REMARK    6  A    between atoms: C13_19  and  N6_20 
REMARK    7  A    between atoms: N6_20  and  C14_21 
REMARK    8  A    between atoms: N6_20  and  C17_24 
ROOT
HETATM    1  C5  UNL     1      23.696  -0.369  53.349  1.00  0.00     0.142 A 
HETATM    2  N2  UNL     1      23.144  -0.977  54.378  1.00  0.00    -0.224 NA
HETATM    3  C6  UNL     1      21.935  -0.750  54.890  1.00  0.00     0.236 A 
HETATM    4  N3  UNL     1      21.148   0.202  54.323  1.00  0.00    -0.240 NA
HETATM    5  C7  UNL     1      21.630   0.882  53.258  1.00  0.00     0.089 A 
HETATM    6  C8  UNL     1      20.771   1.822  52.756  1.00  0.00     0.151 A 
HETATM    7  N4  UNL     1      21.198   2.545  51.680  1.00  0.00    -0.241 NA
HETATM    8  C9  UNL     1      22.412   2.339  51.140  1.00  0.00     0.131 A 
HETATM    9  C20 UNL     1      23.227   1.374  51.699  1.00  0.00     0.068 A 
HETATM   10  C21 UNL     1      22.880   0.590  52.793  1.00  0.00     0.044 A 
ENDROOT
BRANCH   8  11
HETATM   11  N5  UNL     1      22.898   3.090  50.005  1.00  0.00    -0.301 N 
HETATM   12  C10 UNL     1      23.601   4.206  50.574  1.00  0.00     0.302 C 
HETATM   13  O1  UNL     1      23.611   4.243  51.851  1.00  0.00    -0.258 OA
HETATM   14  H8  UNL     1      22.908   3.108  48.962  1.00  0.00     0.171 HD
BRANCH  12  15
HETATM   15  C11 UNL     1      24.256   5.224  49.762  1.00  0.00    -0.004 C 
HETATM   16  C12 UNL     1      24.782   6.060  49.077  1.00  0.00    -0.066 C 
BRANCH  16  17
HETATM   17  C13 UNL     1      25.419   7.065  48.223  1.00  0.00     0.367 C 
BRANCH  17  18
HETATM   18  N6  UNL     1      26.782   7.305  48.747  1.00  0.00     0.107 N 
BRANCH  18  19
HETATM   19  C14 UNL     1      27.697   6.653  47.833  1.00  0.00     0.216 C 
HETATM   20  C15 UNL     1      28.595   7.571  47.079  1.00  0.00     0.042 C 
HETATM   21  C16 UNL     1      28.368   5.480  48.482  1.00  0.00     0.042 C 
ENDBRANCH  18  19
BRANCH  18  22
HETATM   22  C17 UNL     1      26.976   8.734  48.858  1.00  0.00     0.216 C 
HETATM   23  C18 UNL     1      27.399   9.198  50.211  1.00  0.00     0.042 C 
HETATM   24  C19 UNL     1      25.600   9.368  48.603  1.00  0.00     0.042 C 
ENDBRANCH  18  22
ENDBRANCH  17  18
ENDBRANCH  16  17
ENDBRANCH  12  15
ENDBRANCH   8  11
BRANCH   1  25
HETATM   25  N1  UNL     1      24.971  -0.590  52.801  1.00  0.00    -0.340 N 
HETATM   26  H5  UNL     1      25.135  -1.234  52.005  1.00  0.00     0.167 HD
BRANCH  25  27
HETATM   27  C4  UNL     1      26.193  -0.004  53.211  1.00  0.00     0.034 A 
HETATM   28  C3  UNL     1      27.398  -0.668  53.217  1.00  0.00     0.039 A 
HETATM   29  C2  UNL     1      28.600  -0.122  53.620  1.00  0.00    -0.021 A 
HETATM   30  C1  UNL     1      29.866  -0.880  53.608  1.00  0.00     0.051 C 
HETATM   31  C24 UNL     1      28.633   1.173  54.054  1.00  0.00     0.122 A 
HETATM   32  C23 UNL     1      27.467   1.905  54.079  1.00  0.00     0.045 A 
HETATM   33  F1  UNL     1      29.767   1.788  54.469  1.00  0.00    -0.206 F 
HETATM   34  C22 UNL     1      26.312   1.292  53.661  1.00  0.00     0.032 A 
ENDBRANCH  25  27
ENDBRANCH   1  25
TORSDOF 8
ENDMDL
MODEL 5
REMARK VINA RESULT:      -8.3      3.923     10.042
REMARK  8 active torsions:
REMARK  status: ('A' for Active; 'I' for Inactive)
REMARK    1  A    between atoms: C4_4  and  N1_5 
REMARK    2  A    between atoms: N1_5  and  C5_6 
REMARK    3  A    between atoms: C9_13  and  N5_14 
REMARK       I    between atoms: N5_14  and  C10_15 
REMARK    4  A    between atoms: C10_15  and  C11_17 
REMARK    5  A    between atoms: C12_18  and  C13_19 
REMARK    6  A    between atoms: C13_19  and  N6_20 
REMARK    7  A    between atoms: N6_20  and  C14_21 
REMARK    8  A    between atoms: N6_20  and  C17_24 
ROOT
HETATM    1  C5  UNL     1      26.773   2.017  51.879  1.00  0.00     0.142 A 
HETATM    2  N2  UNL     1      27.903   2.527  52.321  1.00  0.00    -0.224 NA
HETATM    3  C6  UNL     1      28.479   2.297  53.501  1.00  0.00     0.236 A 
HETATM    4  N3  UNL     1      27.873   1.451  54.375  1.00  0.00    -0.240 NA
HETATM    5  C7  UNL     1      26.705   0.876  54.007  1.00  0.00     0.089 A 
HETATM    6  C8  UNL     1      26.167   0.044  54.951  1.00  0.00     0.151 A 
HETATM    7  N4  UNL     1      24.986  -0.568  54.643  1.00  0.00    -0.241 NA
HETATM    8  C9  UNL     1      24.382  -0.356  53.461  1.00  0.00     0.131 A 
HETATM    9  C20 UNL     1      24.981   0.498  52.557  1.00  0.00     0.068 A 
HETATM   10  C21 UNL     1      26.180   1.165  52.781  1.00  0.00     0.044 A 
ENDROOT
BRANCH   8  11
HETATM   11  N5  UNL     1      23.128  -0.982  53.104  1.00  0.00    -0.301 N 
HETATM   12  C10 UNL     1      22.158   0.075  53.164  1.00  0.00     0.302 C 
HETATM   13  O1  UNL     1      22.623   1.217  53.497  1.00  0.00    -0.258 OA
HETATM   14  H8  UNL     1      22.700  -1.896  52.840  1.00  0.00     0.171 HD
BRANCH  12  15
HETATM   15  C11 UNL     1      20.745  -0.132  52.869  1.00  0.00    -0.004 C 
HETATM   16  C12 UNL     1      19.580  -0.318  52.639  1.00  0.00    -0.066 C 
BRANCH  16  17
HETATM   17  C13 UNL     1      18.164  -0.568  52.362  1.00  0.00     0.367 C 
BRANCH  17  18
HETATM   18  N6  UNL     1      17.834   0.078  51.072  1.00  0.00     0.107 N 
BRANCH  18  19
HETATM   19  C14 UNL     1      16.476  -0.309  50.750  1.00  0.00     0.216 C 
HETATM   20  C15 UNL     1      16.243  -0.664  49.323  1.00  0.00     0.042 C 
HETATM   21  C16 UNL     1      15.938  -1.282  51.756  1.00  0.00     0.042 C 
ENDBRANCH  18  19
BRANCH  18  22
HETATM   22  C17 UNL     1      18.023   1.504  51.222  1.00  0.00     0.216 C 
HETATM   23  C18 UNL     1      16.762   2.279  51.411  1.00  0.00     0.042 C 
HETATM   24  C19 UNL     1      18.626   1.993  49.897  1.00  0.00     0.042 C 
ENDBRANCH  18  22
ENDBRANCH  17  18
ENDBRANCH  16  17
ENDBRANCH  12  15
ENDBRANCH   8  11
BRANCH   1  25
HETATM   25  N1  UNL     1      26.148   2.254  50.642  1.00  0.00    -0.340 N 
HETATM   26  H5  UNL     1      25.701   1.501  50.086  1.00  0.00     0.167 HD
BRANCH  25  27
HETATM   27  C4  UNL     1      26.021   3.494  49.970  1.00  0.00     0.034 A 
HETATM   28  C3  UNL     1      27.076   4.171  49.404  1.00  0.00     0.039 A 
HETATM   29  C2  UNL     1      26.979   5.383  48.752  1.00  0.00    -0.021 A 
HETATM   30  C1  UNL     1      28.145   6.070  48.163  1.00  0.00     0.051 C 
HETATM   31  C24 UNL     1      25.758   5.987  48.642  1.00  0.00     0.122 A 
HETATM   32  C23 UNL     1      24.652   5.371  49.183  1.00  0.00     0.045 A 
HETATM   33  F1  UNL     1      25.571   7.176  48.020  1.00  0.00    -0.206 F 
HETATM   34  C22 UNL     1      24.829   4.166  49.816  1.00  0.00     0.032 A 
ENDBRANCH  25  27
ENDBRANCH   1  25
TORSDOF 8
ENDMDL
MODEL 6
REMARK VINA RESULT:      -8.3      2.265      3.518
REMARK  8 active torsions:
REMARK  status: ('A' for Active; 'I' for Inactive)
REMARK    1  A    between atoms: C4_4  and  N1_5 
REMARK    2  A    between atoms: N1_5  and  C5_6 
REMARK    3  A    between atoms: C9_13  and  N5_14 
REMARK       I    between atoms: N5_14  and  C10_15 
REMARK    4  A    between atoms: C10_15  and  C11_17 
REMARK    5  A    between atoms: C12_18  and  C13_19 
REMARK    6  A    between atoms: C13_19  and  N6_20 
REMARK    7  A    between atoms: N6_20  and  C14_21 
REMARK    8  A    between atoms: N6_20  and  C17_24 
ROOT
HETATM    1  C5  UNL     1      24.054   3.874  51.228  1.00  0.00     0.142 A 
HETATM    2  N2  UNL     1      22.785   3.528  51.184  1.00  0.00    -0.224 NA
HETATM    3  C6  UNL     1      21.865   3.962  50.323  1.00  0.00     0.236 A 
HETATM    4  N3  UNL     1      22.228   4.859  49.369  1.00  0.00    -0.240 NA
HETATM    5  C7  UNL     1      23.514   5.275  49.335  1.00  0.00     0.089 A 
HETATM    6  C8  UNL     1      23.787   6.180  48.345  1.00  0.00     0.151 A 
HETATM    7  N4  UNL     1      25.068   6.641  48.257  1.00  0.00    -0.241 NA
HETATM    8  C9  UNL     1      26.018   6.222  49.110  1.00  0.00     0.131 A 
HETATM    9  C20 UNL     1      25.672   5.308  50.085  1.00  0.00     0.068 A 
HETATM   10  C21 UNL     1      24.396   4.783  50.253  1.00  0.00     0.044 A 
ENDROOT
BRANCH   8  11
HETATM   11  N5  UNL     1      27.384   6.693  49.049  1.00  0.00    -0.301 N 
HETATM   12  C10 UNL     1      28.142   5.568  48.579  1.00  0.00     0.302 C 
HETATM   13  O1  UNL     1      27.459   4.512  48.354  1.00  0.00    -0.258 OA
HETATM   14  H8  UNL     1      27.985   7.526  49.229  1.00  0.00     0.171 HD
BRANCH  12  15
HETATM   15  C11 UNL     1      29.584   5.619  48.372  1.00  0.00    -0.004 C 
HETATM   16  C12 UNL     1      30.772   5.645  48.189  1.00  0.00    -0.066 C 
BRANCH  16  17
HETATM   17  C13 UNL     1      32.219   5.652  47.965  1.00  0.00     0.367 C 
BRANCH  17  18
HETATM   18  N6  UNL     1      32.522   4.631  46.937  1.00  0.00     0.107 N 
BRANCH  18  19
HETATM   19  C14 UNL     1      33.521   5.210  46.061  1.00  0.00     0.216 C 
HETATM   20  C15 UNL     1      33.262   5.028  44.606  1.00  0.00     0.042 C 
HETATM   21  C16 UNL     1      33.874   6.603  46.487  1.00  0.00     0.042 C 
ENDBRANCH  18  19
BRANCH  18  22
HETATM   22  C17 UNL     1      32.955   3.428  47.613  1.00  0.00     0.216 C 
HETATM   23  C18 UNL     1      34.433   3.225  47.630  1.00  0.00     0.042 C 
HETATM   24  C19 UNL     1      32.376   2.257  46.804  1.00  0.00     0.042 C 
ENDBRANCH  18  22
ENDBRANCH  17  18
ENDBRANCH  16  17
ENDBRANCH  12  15
ENDBRANCH   8  11
BRANCH   1  25
HETATM   25  N1  UNL     1      25.036   3.433  52.133  1.00  0.00    -0.340 N 
HETATM   26  H5  UNL     1      25.578   4.082  52.733  1.00  0.00     0.167 HD
BRANCH  25  27
HETATM   27  C4  UNL     1      25.438   2.097  52.375  1.00  0.00     0.034 A 
HETATM   28  C3  UNL     1      24.870   1.286  53.330  1.00  0.00     0.039 A 
HETATM   29  C2  UNL     1      25.250  -0.015  53.590  1.00  0.00    -0.021 A 
HETATM   30  C1  UNL     1      24.607  -0.843  54.629  1.00  0.00     0.051 C 
HETATM   31  C24 UNL     1      26.265  -0.573  52.865  1.00  0.00     0.122 A 
HETATM   32  C23 UNL     1      26.885   0.176  51.889  1.00  0.00     0.045 A 
HETATM   33  F1  UNL     1      26.703  -1.840  53.053  1.00  0.00    -0.206 F 
HETATM   34  C22 UNL     1      26.450   1.463  51.690  1.00  0.00     0.032 A 
ENDBRANCH  25  27
ENDBRANCH   1  25
TORSDOF 8
ENDMDL
MODEL 7
REMARK VINA RESULT:      -8.3      1.348      1.445
REMARK  8 active torsions:
REMARK  status: ('A' for Active; 'I' for Inactive)
REMARK    1  A    between atoms: C4_4  and  N1_5 
REMARK    2  A    between atoms: N1_5  and  C5_6 
REMARK    3  A    between atoms: C9_13  and  N5_14 
REMARK       I    between atoms: N5_14  and  C10_15 
REMARK    4  A    between atoms: C10_15  and  C11_17 
REMARK    5  A    between atoms: C12_18  and  C13_19 
REMARK    6  A    between atoms: C13_19  and  N6_20 
REMARK    7  A    between atoms: N6_20  and  C14_21 
REMARK    8  A    between atoms: N6_20  and  C17_24 
ROOT
HETATM    1  C5  UNL     1      24.888   2.336  52.807  1.00  0.00     0.142 A 
HETATM    2  N2  UNL     1      23.701   1.985  53.256  1.00  0.00    -0.224 NA
HETATM    3  C6  UNL     1      22.548   2.023  52.589  1.00  0.00     0.236 A 
HETATM    4  N3  UNL     1      22.546   2.463  51.303  1.00  0.00    -0.240 NA
HETATM    5  C7  UNL     1      23.721   2.845  50.753  1.00  0.00     0.089 A 
HETATM    6  C8  UNL     1      23.623   3.276  49.458  1.00  0.00     0.151 A 
HETATM    7  N4  UNL     1      24.774   3.678  48.845  1.00  0.00    -0.241 NA
HETATM    8  C9  UNL     1      25.952   3.651  49.491  1.00  0.00     0.131 A 
HETATM    9  C20 UNL     1      25.977   3.205  50.798  1.00  0.00     0.068 A 
HETATM   10  C21 UNL     1      24.859   2.777  51.504  1.00  0.00     0.044 A 
ENDROOT
BRANCH   8  11
HETATM   11  N5  UNL     1      27.189   4.074  48.875  1.00  0.00    -0.301 N 
HETATM   12  C10 UNL     1      27.084   5.504  48.781  1.00  0.00     0.302 C 
HETATM   13  O1  UNL     1      25.996   5.996  49.235  1.00  0.00    -0.258 OA
HETATM   14  H8  UNL     1      28.088   3.719  48.483  1.00  0.00     0.171 HD
BRANCH  12  15
HETATM   15  C11 UNL     1      28.136   6.337  48.211  1.00  0.00    -0.004 C 
HETATM   16  C12 UNL     1      29.016   7.009  47.743  1.00  0.00    -0.066 C 
BRANCH  16  17
HETATM   17  C13 UNL     1      30.105   7.815  47.187  1.00  0.00     0.367 C 
BRANCH  17  18
HETATM   18  N6  UNL     1      31.091   8.048  48.265  1.00  0.00     0.107 N 
BRANCH  18  19
HETATM   19  C14 UNL     1      32.266   7.272  47.927  1.00  0.00     0.216 C 
HETATM   20  C15 UNL     1      32.349   6.846  46.503  1.00  0.00     0.042 C 
HETATM   21  C16 UNL     1      33.508   7.895  48.490  1.00  0.00     0.042 C 
ENDBRANCH  18  19
BRANCH  18  22
HETATM   22  C17 UNL     1      31.329   9.472  48.356  1.00  0.00     0.216 C 
HETATM   23  C18 UNL     1      30.611  10.150  49.474  1.00  0.00     0.042 C 
HETATM   24  C19 UNL     1      30.767  10.078  47.061  1.00  0.00     0.042 C 
ENDBRANCH  18  22
ENDBRANCH  17  18
ENDBRANCH  16  17
ENDBRANCH  12  15
ENDBRANCH   8  11
BRANCH   1  25
HETATM   25  N1  UNL     1      26.112   2.309  53.498  1.00  0.00    -0.340 N 
HETATM   26  H5  UNL     1      26.422   3.080  54.118  1.00  0.00     0.167 HD
BRANCH  25  27
HETATM   27  C4  UNL     1      27.087   1.282  53.475  1.00  0.00     0.034 A 
HETATM   28  C3  UNL     1      26.828  -0.011  53.086  1.00  0.00     0.039 A 
HETATM   29  C2  UNL     1      27.758  -1.031  53.063  1.00  0.00    -0.021 A 
HETATM   30  C1  UNL     1      27.428  -2.405  52.638  1.00  0.00     0.051 C 
HETATM   31  C24 UNL     1      29.043  -0.772  53.450  1.00  0.00     0.122 A 
HETATM   32  C23 UNL     1      29.381   0.501  53.854  1.00  0.00     0.045 A 
HETATM   33  F1  UNL     1      30.019  -1.711  53.459  1.00  0.00    -0.206 F 
HETATM   34  C22 UNL     1      28.400   1.461  53.849  1.00  0.00     0.032 A 
ENDBRANCH  25  27
ENDBRANCH   1  25
TORSDOF 8
ENDMDL
MODEL 8
REMARK VINA RESULT:      -8.2      2.258      3.151
REMARK  8 active torsions:
REMARK  status: ('A' for Active; 'I' for Inactive)
REMARK    1  A    between atoms: C4_4  and  N1_5 
REMARK    2  A    between atoms: N1_5  and  C5_6 
REMARK    3  A    between atoms: C9_13  and  N5_14 
REMARK       I    between atoms: N5_14  and  C10_15 
REMARK    4  A    between atoms: C10_15  and  C11_17 
REMARK    5  A    between atoms: C12_18  and  C13_19 
REMARK    6  A    between atoms: C13_19  and  N6_20 
REMARK    7  A    between atoms: N6_20  and  C14_21 
REMARK    8  A    between atoms: N6_20  and  C17_24 
ROOT
HETATM    1  C5  UNL     1      22.589   1.963  51.877  1.00  0.00     0.142 A 
HETATM    2  N2  UNL     1      21.572   1.511  52.578  1.00  0.00    -0.224 NA
HETATM    3  C6  UNL     1      20.426   2.144  52.830  1.00  0.00     0.236 A 
HETATM    4  N3  UNL     1      20.241   3.394  52.329  1.00  0.00    -0.240 NA
HETATM    5  C7  UNL     1      21.234   3.943  51.592  1.00  0.00     0.089 A 
HETATM    6  C8  UNL     1      20.961   5.203  51.133  1.00  0.00     0.151 A 
HETATM    7  N4  UNL     1      21.924   5.816  50.383  1.00  0.00    -0.241 NA
HETATM    8  C9  UNL     1      23.088   5.203  50.112  1.00  0.00     0.131 A 
HETATM    9  C20 UNL     1      23.296   3.931  50.609  1.00  0.00     0.068 A 
HETATM   10  C21 UNL     1      22.378   3.229  51.381  1.00  0.00     0.044 A 
ENDROOT
BRANCH   8  11
HETATM   11  N5  UNL     1      24.131   5.823  49.326  1.00  0.00    -0.301 N 
HETATM   12  C10 UNL     1      24.867   6.628  50.261  1.00  0.00     0.302 C 
HETATM   13  O1  UNL     1      24.437   6.590  51.463  1.00  0.00    -0.258 OA
HETATM   14  H8  UNL     1      24.513   5.895  48.358  1.00  0.00     0.171 HD
BRANCH  12  15
HETATM   15  C11 UNL     1      26.021   7.431  49.874  1.00  0.00    -0.004 C 
HETATM   16  C12 UNL     1      26.961   8.110  49.557  1.00  0.00    -0.066 C 
BRANCH  16  17
HETATM   17  C13 UNL     1      28.091   8.951  49.157  1.00  0.00     0.367 C 
BRANCH  17  18
HETATM   18  N6  UNL     1      29.250   8.064  48.909  1.00  0.00     0.107 N 
BRANCH  18  19
HETATM   19  C14 UNL     1      28.880   7.199  47.807  1.00  0.00     0.216 C 
HETATM   20  C15 UNL     1      29.146   7.757  46.453  1.00  0.00     0.042 C 
HETATM   21  C16 UNL     1      29.356   5.796  48.036  1.00  0.00     0.042 C 
ENDBRANCH  18  19
BRANCH  18  22
HETATM   22  C17 UNL     1      30.404   8.896  48.645  1.00  0.00     0.216 C 
HETATM   23  C18 UNL     1      31.652   8.460  49.336  1.00  0.00     0.042 C 
HETATM   24  C19 UNL     1      30.066  10.281  49.216  1.00  0.00     0.042 C 
ENDBRANCH  18  22
ENDBRANCH  17  18
ENDBRANCH  16  17
ENDBRANCH  12  15
ENDBRANCH   8  11
BRANCH   1  25
HETATM   25  N1  UNL     1      23.806   1.313  51.608  1.00  0.00    -0.340 N 
HETATM   26  H5  UNL     1      24.058   0.963  50.665  1.00  0.00     0.167 HD
BRANCH  25  27
HETATM   27  C4  UNL     1      24.849   1.035  52.524  1.00  0.00     0.034 A 
HETATM   28  C3  UNL     1      26.014   1.762  52.604  1.00  0.00     0.039 A 
HETATM   29  C2  UNL     1      27.048   1.505  53.481  1.00  0.00    -0.021 A 
HETATM   30  C1  UNL     1      28.280   2.317  53.525  1.00  0.00     0.051 C 
HETATM   31  C24 UNL     1      26.941   0.457  54.352  1.00  0.00     0.122 A 
HETATM   32  C23 UNL     1      25.803  -0.319  54.334  1.00  0.00     0.045 A 
HETATM   33  F1  UNL     1      27.906   0.134  55.246  1.00  0.00    -0.206 F 
HETATM   34  C22 UNL     1      24.819  -0.000  53.432  1.00  0.00     0.032 A 
ENDBRANCH  25  27
ENDBRANCH   1  25
TORSDOF 8
ENDMDL
MODEL 9
REMARK VINA RESULT:      -8.1      2.396      3.430
REMARK  8 active torsions:
REMARK  status: ('A' for Active; 'I' for Inactive)
REMARK    1  A    between atoms: C4_4  and  N1_5 
REMARK    2  A    between atoms: N1_5  and  C5_6 
REMARK    3  A    between atoms: C9_13  and  N5_14 
REMARK       I    between atoms: N5_14  and  C10_15 
REMARK    4  A    between atoms: C10_15  and  C11_17 
REMARK    5  A    between atoms: C12_18  and  C13_19 
REMARK    6  A    between atoms: C13_19  and  N6_20 
REMARK    7  A    between atoms: N6_20  and  C14_21 
REMARK    8  A    between atoms: N6_20  and  C17_24 
ROOT
HETATM    1  C5  UNL     1      22.002   2.840  50.913  1.00  0.00     0.142 A 
HETATM    2  N2  UNL     1      20.695   2.733  51.020  1.00  0.00    -0.224 NA
HETATM    3  C6  UNL     1      19.810   3.727  51.076  1.00  0.00     0.236 A 
HETATM    4  N3  UNL     1      20.257   5.010  51.019  1.00  0.00    -0.240 NA
HETATM    5  C7  UNL     1      21.589   5.220  50.907  1.00  0.00     0.089 A 
HETATM    6  C8  UNL     1      21.947   6.541  50.860  1.00  0.00     0.151 A 
HETATM    7  N4  UNL     1      23.277   6.822  50.749  1.00  0.00    -0.241 NA
HETATM    8  C9  UNL     1      24.193   5.841  50.689  1.00  0.00     0.131 A 
HETATM    9  C20 UNL     1      23.761   4.530  50.743  1.00  0.00     0.068 A 
HETATM   10  C21 UNL     1      22.430   4.146  50.857  1.00  0.00     0.044 A 
ENDROOT
BRANCH   8  11
HETATM   11  N5  UNL     1      25.611   6.103  50.577  1.00  0.00    -0.301 N 
HETATM   12  C10 UNL     1      25.880   6.074  49.167  1.00  0.00     0.302 C 
HETATM   13  O1  UNL     1      24.866   5.839  48.428  1.00  0.00    -0.258 OA
HETATM   14  H8  UNL     1      26.470   6.288  51.139  1.00  0.00     0.171 HD
BRANCH  12  15
HETATM   15  C11 UNL     1      27.210   6.297  48.613  1.00  0.00    -0.004 C 
HETATM   16  C12 UNL     1      28.303   6.467  48.141  1.00  0.00    -0.066 C 
BRANCH  16  17
HETATM   17  C13 UNL     1      29.635   6.651  47.561  1.00  0.00     0.367 C 
BRANCH  17  18
HETATM   18  N6  UNL     1      30.590   6.846  48.675  1.00  0.00     0.107 N 
BRANCH  18  19
HETATM   19  C14 UNL     1      31.466   5.692  48.677  1.00  0.00     0.216 C 
HETATM   20  C15 UNL     1      31.330   4.798  47.494  1.00  0.00     0.042 C 
HETATM   21  C16 UNL     1      32.869   6.077  49.041  1.00  0.00     0.042 C 
ENDBRANCH  18  19
BRANCH  18  22
HETATM   22  C17 UNL     1      31.272   8.105  48.467  1.00  0.00     0.216 C 
HETATM   23  C18 UNL     1      30.757   9.232  49.298  1.00  0.00     0.042 C 
HETATM   24  C19 UNL     1      31.000   8.496  47.007  1.00  0.00     0.042 C 
ENDBRANCH  18  22
ENDBRANCH  17  18
ENDBRANCH  16  17
ENDBRANCH  12  15
ENDBRANCH   8  11
BRANCH   1  25
HETATM   25  N1  UNL     1      22.950   1.802  50.859  1.00  0.00    -0.340 N 
HETATM   26  H5  UNL     1      23.409   1.508  49.978  1.00  0.00     0.167 HD
BRANCH  25  27
HETATM   27  C4  UNL     1      23.422   1.018  51.939  1.00  0.00     0.034 A 
HETATM   28  C3  UNL     1      22.606   0.282  52.766  1.00  0.00     0.039 A 
HETATM   29  C2  UNL     1      23.041  -0.483  53.830  1.00  0.00    -0.021 A 
HETATM   30  C1  UNL     1      22.122  -1.255  54.689  1.00  0.00     0.051 C 
HETATM   31  C24 UNL     1      24.377  -0.537  54.112  1.00  0.00     0.122 A 
HETATM   32  C23 UNL     1      25.260   0.174  53.329  1.00  0.00     0.045 A 
HETATM   33  F1  UNL     1      24.892  -1.260  55.135  1.00  0.00    -0.206 F 
HETATM   34  C22 UNL     1      24.749   0.911  52.289  1.00  0.00     0.032 A 
ENDBRANCH  25  27
ENDBRANCH   1  25
TORSDOF 8
ENDMDL
