MODEL 1
REMARK VINA RESULT:      -7.2      0.000      0.000
REMARK  2 active torsions:
REMARK  status: ('A' for Active; 'I' for Inactive)
REMARK    1  A    between atoms: O1_2  and  C2_3 
REMARK    2  A    between atoms: N1_9  and  C7_10 
ROOT
HETATM    1  C7  UNL     1      23.496   2.534  52.584  1.00  0.00     0.141 A 
HETATM    2  N2  UNL     1      22.945   3.749  52.369  1.00  0.00    -0.224 NA
HETATM    3  C8  UNL     1      21.588   3.898  52.318  1.00  0.00     0.236 A 
HETATM    4  N3  UNL     1      20.708   2.867  52.473  1.00  0.00    -0.241 NA
HETATM    5  C9  UNL     1      21.235   1.646  52.689  1.00  0.00     0.071 A 
HETATM    6  C10 UNL     1      22.607   1.492  52.741  1.00  0.00     0.038 A 
HETATM    7  C11 UNL     1      23.360   0.258  52.954  1.00  0.00     0.014 C 
HETATM    8  C12 UNL     1      22.884  -0.827  53.591  1.00  0.00    -0.022 C 
HETATM    9  C13 UNL     1      21.590  -1.097  54.212  1.00  0.00     0.054 C 
HETATM   10  C14 UNL     1      20.419  -0.532  53.501  1.00  0.00    -0.021 C 
HETATM   11  C15 UNL     1      20.203   0.606  52.846  1.00  0.00     0.029 C 
ENDROOT
BRANCH   1  12
HETATM   12  N1  UNL     1      24.908   2.457  52.636  1.00  0.00    -0.334 N 
HETATM   13  C2  UNL     1      25.576   2.654  51.356  1.00  0.00     0.247 C 
HETATM   14  C3  UNL     1      26.374   1.438  51.087  1.00  0.00     0.023 C 
HETATM   15  C4  UNL     1      27.058   1.013  52.155  1.00  0.00    -0.009 C 
HETATM   16  C5  UNL     1      27.075   1.630  53.496  1.00  0.00     0.098 C 
HETATM   17 BR1  UNL     1      27.535   0.322  54.832  1.00  0.00    -0.085 Br
HETATM   18  C6  UNL     1      25.737   2.213  53.801  1.00  0.00     0.147 C 
BRANCH  13  19
HETATM   19  O1  UNL     1      24.751   3.040  50.337  1.00  0.00    -0.368 OA
HETATM   20  C1  UNL     1      25.267   4.080  49.569  1.00  0.00     0.204 C 
ENDBRANCH  13  19
ENDBRANCH   1  12
TORSDOF 2
ENDMDL
MODEL 2
REMARK VINA RESULT:      -7.1      2.725      4.741
REMARK  2 active torsions:
REMARK  status: ('A' for Active; 'I' for Inactive)
REMARK    1  A    between atoms: O1_2  and  C2_3 
REMARK    2  A    between atoms: N1_9  and  C7_10 
ROOT
HETATM    1  C7  UNL     1      23.295   1.835  52.111  1.00  0.00     0.141 A 
HETATM    2  N2  UNL     1      22.295   1.239  52.796  1.00  0.00    -0.224 NA
HETATM    3  C8  UNL     1      22.544   0.148  53.580  1.00  0.00     0.236 A 
HETATM    4  N3  UNL     1      23.781  -0.410  53.729  1.00  0.00    -0.241 NA
HETATM    5  C9  UNL     1      24.793   0.169  53.054  1.00  0.00     0.071 A 
HETATM    6  C10 UNL     1      24.545   1.272  52.261  1.00  0.00     0.038 A 
HETATM    7  C11 UNL     1      25.501   2.025  51.453  1.00  0.00     0.014 C 
HETATM    8  C12 UNL     1      26.823   2.086  51.693  1.00  0.00    -0.022 C 
HETATM    9  C13 UNL     1      27.648   1.478  52.734  1.00  0.00     0.054 C 
HETATM   10  C14 UNL     1      27.254   0.106  53.130  1.00  0.00    -0.021 C 
HETATM   11  C15 UNL     1      26.083  -0.505  53.285  1.00  0.00     0.029 C 
ENDROOT
BRANCH   1  12
HETATM   12  N1  UNL     1      22.965   2.968  51.328  1.00  0.00    -0.334 N 
HETATM   13  C2  UNL     1      22.463   2.662  49.995  1.00  0.00     0.247 C 
HETATM   14  C3  UNL     1      23.366   3.319  49.025  1.00  0.00     0.023 C 
HETATM   15  C4  UNL     1      23.675   4.575  49.365  1.00  0.00    -0.009 C 
HETATM   16  C5  UNL     1      23.210   5.307  50.561  1.00  0.00     0.098 C 
HETATM   17 BR1  UNL     1      24.450   6.707  51.017  1.00  0.00    -0.085 Br
HETATM   18  C6  UNL     1      23.070   4.364  51.707  1.00  0.00     0.147 C 
BRANCH  13  19
HETATM   19  O1  UNL     1      22.236   1.334  49.764  1.00  0.00    -0.368 OA
HETATM   20  C1  UNL     1      21.430   1.093  48.655  1.00  0.00     0.204 C 
ENDBRANCH  13  19
ENDBRANCH   1  12
TORSDOF 2
ENDMDL
MODEL 3
REMARK VINA RESULT:      -7.0      2.580      4.041
REMARK  2 active torsions:
REMARK  status: ('A' for Active; 'I' for Inactive)
REMARK    1  A    between atoms: O1_2  and  C2_3 
REMARK    2  A    between atoms: N1_9  and  C7_10 
ROOT
HETATM    1  C7  UNL     1      23.620   1.856  51.974  1.00  0.00     0.141 A 
HETATM    2  N2  UNL     1      24.911   1.505  51.782  1.00  0.00    -0.224 NA
HETATM    3  C8  UNL     1      25.439   0.421  52.426  1.00  0.00     0.236 A 
HETATM    4  N3  UNL     1      24.730  -0.367  53.285  1.00  0.00    -0.241 NA
HETATM    5  C9  UNL     1      23.441  -0.035  53.490  1.00  0.00     0.071 A 
HETATM    6  C10 UNL     1      22.904   1.060  52.842  1.00  0.00     0.038 A 
HETATM    7  C11 UNL     1      21.542   1.578  52.943  1.00  0.00     0.014 C 
HETATM    8  C12 UNL     1      20.469   0.845  53.290  1.00  0.00    -0.022 C 
HETATM    9  C13 UNL     1      20.332  -0.565  53.645  1.00  0.00     0.054 C 
HETATM   10  C14 UNL     1      21.448  -1.126  54.443  1.00  0.00    -0.021 C 
HETATM   11  C15 UNL     1      22.766  -0.949  54.429  1.00  0.00     0.029 C 
ENDROOT
BRANCH   1  12
HETATM   12  N1  UNL     1      23.138   2.983  51.266  1.00  0.00    -0.334 N 
HETATM   13  C2  UNL     1      22.584   2.685  49.951  1.00  0.00     0.247 C 
HETATM   14  C3  UNL     1      23.360   3.465  48.962  1.00  0.00     0.023 C 
HETATM   15  C4  UNL     1      23.572   4.730  49.341  1.00  0.00    -0.009 C 
HETATM   16  C5  UNL     1      23.117   5.364  50.595  1.00  0.00     0.098 C 
HETATM   17 BR1  UNL     1      24.247   6.856  51.042  1.00  0.00    -0.085 Br
HETATM   18  C6  UNL     1      23.136   4.366  51.702  1.00  0.00     0.147 C 
BRANCH  13  19
HETATM   19  O1  UNL     1      22.468   1.352  49.672  1.00  0.00    -0.368 OA
HETATM   20  C1  UNL     1      21.234   1.004  49.129  1.00  0.00     0.204 C 
ENDBRANCH  13  19
ENDBRANCH   1  12
TORSDOF 2
ENDMDL
MODEL 4
REMARK VINA RESULT:      -6.8      2.871      4.792
REMARK  2 active torsions:
REMARK  status: ('A' for Active; 'I' for Inactive)
REMARK    1  A    between atoms: O1_2  and  C2_3 
REMARK    2  A    between atoms: N1_9  and  C7_10 
ROOT
HETATM    1  C7  UNL     1      23.244   1.360  52.014  1.00  0.00     0.141 A 
HETATM    2  N2  UNL     1      24.465   1.507  51.454  1.00  0.00    -0.224 NA
HETATM    3  C8  UNL     1      25.561   0.908  52.009  1.00  0.00     0.236 A 
HETATM    4  N3  UNL     1      25.514   0.139  53.135  1.00  0.00    -0.241 NA
HETATM    5  C9  UNL     1      24.306  -0.021  53.710  1.00  0.00     0.071 A 
HETATM    6  C10 UNL     1      23.196   0.583  53.152  1.00  0.00     0.038 A 
HETATM    7  C11 UNL     1      21.817   0.534  53.631  1.00  0.00     0.014 C 
HETATM    8  C12 UNL     1      21.306  -0.452  54.389  1.00  0.00    -0.022 C 
HETATM    9  C13 UNL     1      21.905  -1.671  54.927  1.00  0.00     0.054 C 
HETATM   10  C14 UNL     1      23.310  -1.539  55.376  1.00  0.00    -0.021 C 
HETATM   11  C15 UNL     1      24.363  -0.868  54.915  1.00  0.00     0.029 C 
ENDROOT
BRANCH   1  12
HETATM   12  N1  UNL     1      22.153   2.000  51.378  1.00  0.00    -0.334 N 
HETATM   13  C2  UNL     1      22.002   3.412  51.704  1.00  0.00     0.247 C 
HETATM   14  C3  UNL     1      20.655   3.584  52.292  1.00  0.00     0.023 C 
HETATM   15  C4  UNL     1      19.702   2.934  51.615  1.00  0.00    -0.009 C 
HETATM   16  C5  UNL     1      19.883   2.111  50.403  1.00  0.00     0.098 C 
HETATM   17 BR1  UNL     1      18.464   0.820  50.249  1.00  0.00    -0.085 Br
HETATM   18  C6  UNL     1      21.198   1.411  50.460  1.00  0.00     0.147 C 
BRANCH  13  19
HETATM   19  O1  UNL     1      23.025   3.938  52.442  1.00  0.00    -0.368 OA
HETATM   20  C1  UNL     1      23.523   5.132  51.927  1.00  0.00     0.204 C 
ENDBRANCH  13  19
ENDBRANCH   1  12
TORSDOF 2
ENDMDL
MODEL 5
REMARK VINA RESULT:      -6.8      3.118      5.563
REMARK  2 active torsions:
REMARK  status: ('A' for Active; 'I' for Inactive)
REMARK    1  A    between atoms: O1_2  and  C2_3 
REMARK    2  A    between atoms: N1_9  and  C7_10 
ROOT
HETATM    1  C7  UNL     1      21.361   1.035  53.061  1.00  0.00     0.141 A 
HETATM    2  N2  UNL     1      20.771   0.409  54.104  1.00  0.00    -0.224 NA
HETATM    3  C8  UNL     1      21.462  -0.509  54.843  1.00  0.00     0.236 A 
HETATM    4  N3  UNL     1      22.758  -0.857  54.598  1.00  0.00    -0.241 NA
HETATM    5  C9  UNL     1      23.365  -0.244  53.563  1.00  0.00     0.071 A 
HETATM    6  C10 UNL     1      22.671   0.684  52.813  1.00  0.00     0.038 A 
HETATM    7  C11 UNL     1      23.150   1.440  51.658  1.00  0.00     0.014 C 
HETATM    8  C12 UNL     1      24.442   1.722  51.413  1.00  0.00    -0.022 C 
HETATM    9  C13 UNL     1      25.662   1.397  52.148  1.00  0.00     0.054 C 
HETATM   10  C14 UNL     1      25.681   0.055  52.777  1.00  0.00    -0.021 C 
HETATM   11  C15 UNL     1      24.760  -0.687  53.385  1.00  0.00     0.029 C 
ENDROOT
BRANCH   1  12
HETATM   12  N1  UNL     1      20.588   1.983  52.347  1.00  0.00    -0.334 N 
HETATM   13  C2  UNL     1      19.604   1.407  51.440  1.00  0.00     0.247 C 
HETATM   14  C3  UNL     1      19.913   1.909  50.083  1.00  0.00     0.023 C 
HETATM   15  C4  UNL     1      20.179   3.220  50.057  1.00  0.00    -0.009 C 
HETATM   16  C5  UNL     1      20.185   4.143  51.210  1.00  0.00     0.098 C 
HETATM   17 BR1  UNL     1      21.316   5.659  50.851  1.00  0.00    -0.085 Br
HETATM   18  C6  UNL     1      20.670   3.428  52.426  1.00  0.00     0.147 C 
BRANCH  13  19
HETATM   19  O1  UNL     1      19.468   0.050  51.536  1.00  0.00    -0.368 OA
HETATM   20  C1  UNL     1      18.144  -0.369  51.636  1.00  0.00     0.204 C 
ENDBRANCH  13  19
ENDBRANCH   1  12
TORSDOF 2
ENDMDL
MODEL 6
REMARK VINA RESULT:      -6.2      4.143      7.214
REMARK  2 active torsions:
REMARK  status: ('A' for Active; 'I' for Inactive)
REMARK    1  A    between atoms: O1_2  and  C2_3 
REMARK    2  A    between atoms: N1_9  and  C7_10 
ROOT
HETATM    1  C7  UNL     1      24.202   4.046  50.078  1.00  0.00     0.141 A 
HETATM    2  N2  UNL     1      24.558   3.009  50.869  1.00  0.00    -0.224 NA
HETATM    3  C8  UNL     1      25.860   2.599  50.932  1.00  0.00     0.236 A 
HETATM    4  N3  UNL     1      26.872   3.182  50.227  1.00  0.00    -0.241 NA
HETATM    5  C9  UNL     1      26.539   4.218  49.433  1.00  0.00     0.071 A 
HETATM    6  C10 UNL     1      25.225   4.636  49.366  1.00  0.00     0.038 A 
HETATM    7  C11 UNL     1      24.672   5.725  48.563  1.00  0.00     0.014 C 
HETATM    8  C12 UNL     1      25.375   6.786  48.129  1.00  0.00    -0.022 C 
HETATM    9  C13 UNL     1      26.778   7.157  48.301  1.00  0.00     0.054 C 
HETATM   10  C14 UNL     1      27.737   6.028  48.266  1.00  0.00    -0.021 C 
HETATM   11  C15 UNL     1      27.701   4.778  48.720  1.00  0.00     0.029 C 
ENDROOT
BRANCH   1  12
HETATM   12  N1  UNL     1      22.838   4.424  50.072  1.00  0.00    -0.334 N 
HETATM   13  C2  UNL     1      21.969   3.550  49.293  1.00  0.00     0.247 C 
HETATM   14  C3  UNL     1      21.321   4.387  48.259  1.00  0.00     0.023 C 
HETATM   15  C4  UNL     1      20.868   5.552  48.735  1.00  0.00    -0.009 C 
HETATM   16  C5  UNL     1      20.960   6.032  50.128  1.00  0.00     0.098 C 
HETATM   17 BR1  UNL     1      20.890   7.955  50.182  1.00  0.00    -0.085 Br
HETATM   18  C6  UNL     1      22.231   5.556  50.744  1.00  0.00     0.147 C 
BRANCH  13  19
HETATM   19  O1  UNL     1      22.573   2.418  48.824  1.00  0.00    -0.368 OA
HETATM   20  C1  UNL     1      21.775   1.282  48.922  1.00  0.00     0.204 C 
ENDBRANCH  13  19
ENDBRANCH   1  12
TORSDOF 2
ENDMDL
MODEL 7
REMARK VINA RESULT:      -6.2      6.224      8.511
REMARK  2 active torsions:
REMARK  status: ('A' for Active; 'I' for Inactive)
REMARK    1  A    between atoms: O1_2  and  C2_3 
REMARK    2  A    between atoms: N1_9  and  C7_10 
ROOT
HETATM    1  C7  UNL     1      28.040   8.313  48.868  1.00  0.00     0.141 A 
HETATM    2  N2  UNL     1      27.496   9.425  49.411  1.00  0.00    -0.224 NA
HETATM    3  C8  UNL     1      26.245   9.390  49.959  1.00  0.00     0.236 A 
HETATM    4  N3  UNL     1      25.468   8.269  50.000  1.00  0.00    -0.241 NA
HETATM    5  C9  UNL     1      25.991   7.149  49.465  1.00  0.00     0.071 A 
HETATM    6  C10 UNL     1      27.256   7.180  48.910  1.00  0.00     0.038 A 
HETATM    7  C11 UNL     1      27.982   6.081  48.279  1.00  0.00     0.014 C 
HETATM    8  C12 UNL     1      27.770   4.777  48.536  1.00  0.00    -0.022 C 
HETATM    9  C13 UNL     1      26.837   4.107  49.439  1.00  0.00     0.054 C 
HETATM   10  C14 UNL     1      25.500   4.736  49.545  1.00  0.00    -0.021 C 
HETATM   11  C15 UNL     1      25.077   5.997  49.563  1.00  0.00     0.029 C 
ENDROOT
BRANCH   1  12
HETATM   12  N1  UNL     1      29.344   8.421  48.329  1.00  0.00    -0.334 N 
HETATM   13  C2  UNL     1      29.398   8.914  46.959  1.00  0.00     0.247 C 
HETATM   14  C3  UNL     1      30.073   7.878  46.147  1.00  0.00     0.023 C 
HETATM   15  C4  UNL     1      31.166   7.379  46.736  1.00  0.00    -0.009 C 
HETATM   16  C5  UNL     1      31.713   7.764  48.052  1.00  0.00     0.098 C 
HETATM   17 BR1  UNL     1      32.764   6.329  48.788  1.00  0.00    -0.085 Br
HETATM   18  C6  UNL     1      30.599   8.102  48.983  1.00  0.00     0.147 C 
BRANCH  13  19
HETATM   19  O1  UNL     1      28.201   9.347  46.463  1.00  0.00    -0.368 OA
HETATM   20  C1  UNL     1      28.059   9.139  45.094  1.00  0.00     0.204 C 
ENDBRANCH  13  19
ENDBRANCH   1  12
TORSDOF 2
ENDMDL
MODEL 8
REMARK VINA RESULT:      -6.2      3.485      5.389
REMARK  2 active torsions:
REMARK  status: ('A' for Active; 'I' for Inactive)
REMARK    1  A    between atoms: O1_2  and  C2_3 
REMARK    2  A    between atoms: N1_9  and  C7_10 
ROOT
HETATM    1  C7  UNL     1      24.307   3.636  50.205  1.00  0.00     0.141 A 
HETATM    2  N2  UNL     1      25.425   3.880  49.485  1.00  0.00    -0.224 NA
HETATM    3  C8  UNL     1      26.599   3.253  49.792  1.00  0.00     0.236 A 
HETATM    4  N3  UNL     1      26.735   2.360  50.815  1.00  0.00    -0.241 NA
HETATM    5  C9  UNL     1      25.632   2.103  51.546  1.00  0.00     0.071 A 
HETATM    6  C10 UNL     1      24.443   2.735  51.238  1.00  0.00     0.038 A 
HETATM    7  C11 UNL     1      23.155   2.594  51.914  1.00  0.00     0.014 C 
HETATM    8  C12 UNL     1      22.778   1.514  52.621  1.00  0.00    -0.022 C 
HETATM    9  C13 UNL     1      23.466   0.259  52.916  1.00  0.00     0.054 C 
HETATM   10  C14 UNL     1      24.923   0.379  53.157  1.00  0.00    -0.021 C 
HETATM   11  C15 UNL     1      25.884   1.126  52.621  1.00  0.00     0.029 C 
ENDROOT
BRANCH   1  12
HETATM   12  N1  UNL     1      23.124   4.314  49.822  1.00  0.00    -0.334 N 
HETATM   13  C2  UNL     1      22.359   3.655  48.771  1.00  0.00     0.247 C 
HETATM   14  C3  UNL     1      22.250   4.609  47.645  1.00  0.00     0.023 C 
HETATM   15  C4  UNL     1      21.941   5.850  48.038  1.00  0.00    -0.009 C 
HETATM   16  C5  UNL     1      21.714   6.307  49.424  1.00  0.00     0.098 C 
HETATM   17 BR1  UNL     1      22.054   8.196  49.573  1.00  0.00    -0.085 Br
HETATM   18  C6  UNL     1      22.607   5.559  50.355  1.00  0.00     0.147 C 
BRANCH  13  19
HETATM   19  O1  UNL     1      22.813   2.411  48.431  1.00  0.00    -0.368 OA
HETATM   20  C1  UNL     1      21.817   1.438  48.429  1.00  0.00     0.204 C 
ENDBRANCH  13  19
ENDBRANCH   1  12
TORSDOF 2
ENDMDL
MODEL 9
REMARK VINA RESULT:      -6.1     10.211     11.955
REMARK  2 active torsions:
REMARK  status: ('A' for Active; 'I' for Inactive)
REMARK    1  A    between atoms: O1_2  and  C2_3 
REMARK    2  A    between atoms: N1_9  and  C7_10 
ROOT
HETATM    1  C7  UNL     1      32.443   7.098  47.892  1.00  0.00     0.141 A 
HETATM    2  N2  UNL     1      33.313   8.087  48.193  1.00  0.00    -0.224 NA
HETATM    3  C8  UNL     1      34.616   7.800  48.488  1.00  0.00     0.236 A 
HETATM    4  N3  UNL     1      35.127   6.535  48.502  1.00  0.00    -0.241 NA
HETATM    5  C9  UNL     1      34.276   5.534  48.204  1.00  0.00     0.071 A 
HETATM    6  C10 UNL     1      32.958   5.820  47.906  1.00  0.00     0.038 A 
HETATM    7  C11 UNL     1      31.893   4.878  47.570  1.00  0.00     0.014 C 
HETATM    8  C12 UNL     1      32.091   3.659  47.038  1.00  0.00    -0.022 C 
HETATM    9  C13 UNL     1      33.313   2.951  46.663  1.00  0.00     0.054 C 
HETATM   10  C14 UNL     1      34.466   3.160  47.569  1.00  0.00    -0.021 C 
HETATM   11  C15 UNL     1      34.926   4.211  48.244  1.00  0.00     0.029 C 
ENDROOT
BRANCH   1  12
HETATM   12  N1  UNL     1      31.112   7.472  47.586  1.00  0.00    -0.334 N 
HETATM   13  C2  UNL     1      30.888   7.842  46.194  1.00  0.00     0.247 C 
HETATM   14  C3  UNL     1      30.373   9.228  46.188  1.00  0.00     0.023 C 
HETATM   15  C4  UNL     1      29.427   9.440  47.110  1.00  0.00    -0.009 C 
HETATM   16  C5  UNL     1      28.894   8.454  48.072  1.00  0.00     0.098 C 
HETATM   17 BR1  UNL     1      28.173   9.346  49.617  1.00  0.00    -0.085 Br
HETATM   18  C6  UNL     1      29.978   7.519  48.489  1.00  0.00     0.147 C 
BRANCH  13  19
HETATM   19  O1  UNL     1      31.954   7.619  45.368  1.00  0.00    -0.368 OA
HETATM   20  C1  UNL     1      31.724   8.002  44.049  1.00  0.00     0.204 C 
ENDBRANCH  13  19
ENDBRANCH   1  12
TORSDOF 2
ENDMDL
