MODEL 1
REMARK VINA RESULT:      -7.5      0.000      0.000
REMARK  7 active torsions:
REMARK  status: ('A' for Active; 'I' for Inactive)
REMARK    1  A    between atoms: C2_2  and  C3_3 
REMARK       I    between atoms: C3_3  and  N1_5 
REMARK    2  A    between atoms: N1_5  and  C4_6 
REMARK    3  A    between atoms: C13_17  and  O2_18 
REMARK    4  A    between atoms: O2_18  and  C14_19 
REMARK    5  A    between atoms: C14_19  and  C15_20 
REMARK    6  A    between atoms: C15_20  and  C16_21 
REMARK    7  A    between atoms: C16_21  and  N4_22 
ROOT
HETATM    1  C4  UNL     1      26.006   0.768  52.040  1.00  0.00     0.069 A 
HETATM    2  C5  UNL     1      26.581   1.682  51.144  1.00  0.00     0.046 A 
HETATM    3  C6  UNL     1      25.935   2.860  50.868  1.00  0.00    -0.004 A 
HETATM    4  C7  UNL     1      26.445   3.805  49.994  1.00  0.00     0.038 A 
HETATM    5  C8  UNL     1      25.720   4.963  49.778  1.00  0.00     0.063 A 
HETATM    6  C9  UNL     1      26.239   5.945  48.877  1.00  0.00     0.101 C 
HETATM    7  N2  UNL     1      26.678   6.741  48.154  1.00  0.00    -0.191 NA
HETATM    8  C10 UNL     1      24.513   5.197  50.407  1.00  0.00     0.140 A 
HETATM    9  N3  UNL     1      24.046   4.249  51.255  1.00  0.00    -0.259 NA
HETATM   10  C11 UNL     1      24.743   3.138  51.460  1.00  0.00     0.069 A 
HETATM   11  C12 UNL     1      24.207   2.239  52.323  1.00  0.00     0.071 A 
HETATM   12  C13 UNL     1      24.774   1.032  52.668  1.00  0.00     0.097 A 
ENDROOT
BRANCH   1  13
HETATM   13  N1  UNL     1      26.855  -0.390  52.177  1.00  0.00    -0.321 N 
HETATM   14  C3  UNL     1      27.917  -0.311  53.118  1.00  0.00     0.245 C 
HETATM   15  O1  UNL     1      27.948   0.819  53.715  1.00  0.00    -0.268 OA
HETATM   16  H4  UNL     1      26.735  -1.270  51.630  1.00  0.00     0.169 HD
BRANCH  14  17
HETATM   17  C2  UNL     1      28.866  -1.385  53.383  1.00  0.00     0.064 C 
HETATM   18  C1  UNL     1      30.125  -1.168  53.725  1.00  0.00     0.017 C 
ENDBRANCH  14  17
ENDBRANCH   1  13
BRANCH  12  19
HETATM   19  O2  UNL     1      24.494  -0.024  53.460  1.00  0.00    -0.349 OA
BRANCH  19  20
HETATM   20  C14 UNL     1      23.292  -0.459  54.010  1.00  0.00     0.177 C 
BRANCH  20  21
HETATM   21  C15 UNL     1      22.285  -0.827  52.974  1.00  0.00     0.057 C 
BRANCH  21  22
HETATM   22  C16 UNL     1      21.091   0.094  53.149  1.00  0.00     0.274 C 
BRANCH  22  23
HETATM   23  N4  UNL     1      20.302   0.242  51.944  1.00  0.00     0.092 N 
HETATM   24  C17 UNL     1      21.252   0.417  50.865  1.00  0.00     0.298 C 
HETATM   25  C18 UNL     1      21.211   1.782  50.255  1.00  0.00     0.198 C 
HETATM   26  O3  UNL     1      20.911   2.826  51.063  1.00  0.00    -0.388 OA
HETATM   27  C19 UNL     1      20.160   2.602  52.176  1.00  0.00     0.198 C 
HETATM   28  C20 UNL     1      19.364   1.346  52.015  1.00  0.00     0.298 C 
ENDBRANCH  22  23
ENDBRANCH  21  22
ENDBRANCH  20  21
ENDBRANCH  19  20
ENDBRANCH  12  19
TORSDOF 7
ENDMDL
MODEL 2
REMARK VINA RESULT:      -7.3      2.988      6.619
REMARK  7 active torsions:
REMARK  status: ('A' for Active; 'I' for Inactive)
REMARK    1  A    between atoms: C2_2  and  C3_3 
REMARK       I    between atoms: C3_3  and  N1_5 
REMARK    2  A    between atoms: N1_5  and  C4_6 
REMARK    3  A    between atoms: C13_17  and  O2_18 
REMARK    4  A    between atoms: O2_18  and  C14_19 
REMARK    5  A    between atoms: C14_19  and  C15_20 
REMARK    6  A    between atoms: C15_20  and  C16_21 
REMARK    7  A    between atoms: C16_21  and  N4_22 
ROOT
HETATM    1  C4  UNL     1      24.753   5.496  49.230  1.00  0.00     0.069 A 
HETATM    2  C5  UNL     1      25.491   6.525  48.625  1.00  0.00     0.046 A 
HETATM    3  C6  UNL     1      26.827   6.345  48.374  1.00  0.00    -0.004 A 
HETATM    4  C7  UNL     1      27.614   7.317  47.782  1.00  0.00     0.038 A 
HETATM    5  C8  UNL     1      28.953   7.043  47.569  1.00  0.00     0.063 A 
HETATM    6  C9  UNL     1      29.774   8.043  46.957  1.00  0.00     0.101 C 
HETATM    7  N2  UNL     1      30.426   8.857  46.447  1.00  0.00    -0.191 NA
HETATM    8  C10 UNL     1      29.517   5.836  47.928  1.00  0.00     0.140 A 
HETATM    9  N3  UNL     1      28.716   4.909  48.506  1.00  0.00    -0.259 NA
HETATM   10  C11 UNL     1      27.431   5.174  48.710  1.00  0.00     0.069 A 
HETATM   11  C12 UNL     1      26.697   4.194  49.293  1.00  0.00     0.071 A 
HETATM   12  C13 UNL     1      25.354   4.274  49.586  1.00  0.00     0.097 A 
ENDROOT
BRANCH   1  13
HETATM   13  N1  UNL     1      23.379   5.905  49.395  1.00  0.00    -0.321 N 
HETATM   14  C3  UNL     1      23.046   6.603  50.586  1.00  0.00     0.245 C 
HETATM   15  O1  UNL     1      24.059   6.762  51.350  1.00  0.00    -0.268 OA
HETATM   16  H4  UNL     1      22.626   5.718  48.696  1.00  0.00     0.169 HD
BRANCH  14  17
HETATM   17  C2  UNL     1      21.711   7.087  50.913  1.00  0.00     0.064 C 
HETATM   18  C1  UNL     1      21.032   7.916  50.138  1.00  0.00     0.017 C 
ENDBRANCH  14  17
ENDBRANCH   1  13
BRANCH  12  19
HETATM   19  O2  UNL     1      24.394   3.502  50.138  1.00  0.00    -0.349 OA
BRANCH  19  20
HETATM   20  C14 UNL     1      24.251   3.009  51.432  1.00  0.00     0.177 C 
BRANCH  20  21
HETATM   21  C15 UNL     1      25.001   1.740  51.650  1.00  0.00     0.057 C 
BRANCH  21  22
HETATM   22  C16 UNL     1      26.081   2.018  52.679  1.00  0.00     0.274 C 
BRANCH  22  23
HETATM   23  N4  UNL     1      27.192   1.091  52.607  1.00  0.00     0.092 N 
HETATM   24  C17 UNL     1      26.659  -0.126  52.029  1.00  0.00     0.298 C 
HETATM   25  C18 UNL     1      26.636  -1.275  52.985  1.00  0.00     0.198 C 
HETATM   26  O3  UNL     1      26.425  -1.003  54.294  1.00  0.00    -0.388 OA
HETATM   27  C19 UNL     1      26.772   0.221  54.777  1.00  0.00     0.198 C 
HETATM   28  C20 UNL     1      27.808   0.845  53.897  1.00  0.00     0.298 C 
ENDBRANCH  22  23
ENDBRANCH  21  22
ENDBRANCH  20  21
ENDBRANCH  19  20
ENDBRANCH  12  19
TORSDOF 7
ENDMDL
MODEL 3
REMARK VINA RESULT:      -7.3      1.875      3.161
REMARK  7 active torsions:
REMARK  status: ('A' for Active; 'I' for Inactive)
REMARK    1  A    between atoms: C2_2  and  C3_3 
REMARK       I    between atoms: C3_3  and  N1_5 
REMARK    2  A    between atoms: N1_5  and  C4_6 
REMARK    3  A    between atoms: C13_17  and  O2_18 
REMARK    4  A    between atoms: O2_18  and  C14_19 
REMARK    5  A    between atoms: C14_19  and  C15_20 
REMARK    6  A    between atoms: C15_20  and  C16_21 
REMARK    7  A    between atoms: C16_21  and  N4_22 
ROOT
HETATM    1  C4  UNL     1      25.550   2.719  50.944  1.00  0.00     0.069 A 
HETATM    2  C5  UNL     1      26.592   3.182  50.127  1.00  0.00     0.046 A 
HETATM    3  C6  UNL     1      26.550   4.460  49.631  1.00  0.00    -0.004 A 
HETATM    4  C7  UNL     1      27.543   4.980  48.819  1.00  0.00     0.038 A 
HETATM    5  C8  UNL     1      27.412   6.280  48.367  1.00  0.00     0.063 A 
HETATM    6  C9  UNL     1      28.434   6.826  47.528  1.00  0.00     0.101 C 
HETATM    7  N2  UNL     1      29.277   7.263  46.858  1.00  0.00    -0.191 NA
HETATM    8  C10 UNL     1      26.326   7.064  48.704  1.00  0.00     0.140 A 
HETATM    9  N3  UNL     1      25.375   6.520  49.499  1.00  0.00    -0.259 NA
HETATM   10  C11 UNL     1      25.502   5.272  49.931  1.00  0.00     0.069 A 
HETATM   11  C12 UNL     1      24.506   4.802  50.724  1.00  0.00     0.071 A 
HETATM   12  C13 UNL     1      24.455   3.540  51.271  1.00  0.00     0.097 A 
ENDROOT
BRANCH   1  13
HETATM   13  N1  UNL     1      25.806   1.357  51.346  1.00  0.00    -0.321 N 
HETATM   14  C3  UNL     1      26.636   1.158  52.481  1.00  0.00     0.245 C 
HETATM   15  O1  UNL     1      27.039   2.263  52.983  1.00  0.00    -0.268 OA
HETATM   16  H4  UNL     1      25.420   0.521  50.855  1.00  0.00     0.169 HD
BRANCH  14  17
HETATM   17  C2  UNL     1      26.997  -0.147  53.022  1.00  0.00     0.064 C 
HETATM   18  C1  UNL     1      26.678  -1.287  52.433  1.00  0.00     0.017 C 
ENDBRANCH  14  17
ENDBRANCH   1  13
BRANCH  12  19
HETATM   19  O2  UNL     1      23.634   2.815  52.062  1.00  0.00    -0.349 OA
BRANCH  19  20
HETATM   20  C14 UNL     1      22.314   2.412  51.881  1.00  0.00     0.177 C 
BRANCH  20  21
HETATM   21  C15 UNL     1      22.202   1.132  51.128  1.00  0.00     0.057 C 
BRANCH  21  22
HETATM   22  C16 UNL     1      21.808   0.051  52.118  1.00  0.00     0.274 C 
BRANCH  22  23
HETATM   23  N4  UNL     1      22.024   0.434  53.498  1.00  0.00     0.092 N 
HETATM   24  C17 UNL     1      23.170  -0.327  53.949  1.00  0.00     0.298 C 
HETATM   25  C18 UNL     1      22.832  -1.348  54.988  1.00  0.00     0.198 C 
HETATM   26  O3  UNL     1      21.616  -1.938  54.921  1.00  0.00    -0.388 OA
HETATM   27  C19 UNL     1      20.591  -1.269  54.328  1.00  0.00     0.198 C 
HETATM   28  C20 UNL     1      20.864   0.202  54.337  1.00  0.00     0.298 C 
ENDBRANCH  22  23
ENDBRANCH  21  22
ENDBRANCH  20  21
ENDBRANCH  19  20
ENDBRANCH  12  19
TORSDOF 7
ENDMDL
MODEL 4
REMARK VINA RESULT:      -7.2      2.101      6.192
REMARK  7 active torsions:
REMARK  status: ('A' for Active; 'I' for Inactive)
REMARK    1  A    between atoms: C2_2  and  C3_3 
REMARK       I    between atoms: C3_3  and  N1_5 
REMARK    2  A    between atoms: N1_5  and  C4_6 
REMARK    3  A    between atoms: C13_17  and  O2_18 
REMARK    4  A    between atoms: O2_18  and  C14_19 
REMARK    5  A    between atoms: C14_19  and  C15_20 
REMARK    6  A    between atoms: C15_20  and  C16_21 
REMARK    7  A    between atoms: C16_21  and  N4_22 
ROOT
HETATM    1  C4  UNL     1      23.406   1.571  52.285  1.00  0.00     0.069 A 
HETATM    2  C5  UNL     1      24.272   0.468  52.282  1.00  0.00     0.046 A 
HETATM    3  C6  UNL     1      25.532   0.592  52.810  1.00  0.00    -0.004 A 
HETATM    4  C7  UNL     1      26.437  -0.454  52.839  1.00  0.00     0.038 A 
HETATM    5  C8  UNL     1      27.685  -0.232  53.393  1.00  0.00     0.063 A 
HETATM    6  C9  UNL     1      28.628  -1.308  53.427  1.00  0.00     0.101 C 
HETATM    7  N2  UNL     1      29.379  -2.193  53.461  1.00  0.00    -0.191 NA
HETATM    8  C10 UNL     1      28.045   0.996  53.912  1.00  0.00     0.140 A 
HETATM    9  N3  UNL     1      27.133   1.996  53.865  1.00  0.00    -0.259 NA
HETATM   10  C11 UNL     1      25.936   1.781  53.333  1.00  0.00     0.069 A 
HETATM   11  C12 UNL     1      25.080   2.833  53.325  1.00  0.00     0.071 A 
HETATM   12  C13 UNL     1      23.799   2.811  52.822  1.00  0.00     0.097 A 
ENDROOT
BRANCH   1  13
HETATM   13  N1  UNL     1      22.145   1.209  51.684  1.00  0.00    -0.321 N 
HETATM   14  C3  UNL     1      21.156   0.645  52.534  1.00  0.00     0.245 C 
HETATM   15  O1  UNL     1      21.561   0.544  53.743  1.00  0.00    -0.268 OA
HETATM   16  H4  UNL     1      21.922   1.338  50.673  1.00  0.00     0.169 HD
BRANCH  14  17
HETATM   17  C2  UNL     1      19.832   0.224  52.094  1.00  0.00     0.064 C 
HETATM   18  C1  UNL     1      19.017  -0.500  52.843  1.00  0.00     0.017 C 
ENDBRANCH  14  17
ENDBRANCH   1  13
BRANCH  12  19
HETATM   19  O2  UNL     1      22.757   3.658  52.677  1.00  0.00    -0.349 OA
BRANCH  19  20
HETATM   20  C14 UNL     1      22.703   5.048  52.684  1.00  0.00     0.177 C 
BRANCH  20  21
HETATM   21  C15 UNL     1      22.392   5.618  51.343  1.00  0.00     0.057 C 
BRANCH  21  22
HETATM   22  C16 UNL     1      23.694   6.127  50.748  1.00  0.00     0.274 C 
BRANCH  22  23
HETATM   23  N4  UNL     1      23.909   5.689  49.385  1.00  0.00     0.092 N 
HETATM   24  C17 UNL     1      23.116   4.488  49.221  1.00  0.00     0.298 C 
HETATM   25  C18 UNL     1      23.940   3.254  49.037  1.00  0.00     0.198 C 
HETATM   26  O3  UNL     1      25.134   3.191  49.673  1.00  0.00    -0.388 OA
HETATM   27  C19 UNL     1      25.779   4.349  49.977  1.00  0.00     0.198 C 
HETATM   28  C20 UNL     1      25.307   5.451  49.082  1.00  0.00     0.298 C 
ENDBRANCH  22  23
ENDBRANCH  21  22
ENDBRANCH  20  21
ENDBRANCH  19  20
ENDBRANCH  12  19
TORSDOF 7
ENDMDL
MODEL 5
REMARK VINA RESULT:      -7.2      1.923      5.831
REMARK  7 active torsions:
REMARK  status: ('A' for Active; 'I' for Inactive)
REMARK    1  A    between atoms: C2_2  and  C3_3 
REMARK       I    between atoms: C3_3  and  N1_5 
REMARK    2  A    between atoms: N1_5  and  C4_6 
REMARK    3  A    between atoms: C13_17  and  O2_18 
REMARK    4  A    between atoms: O2_18  and  C14_19 
REMARK    5  A    between atoms: C14_19  and  C15_20 
REMARK    6  A    between atoms: C15_20  and  C16_21 
REMARK    7  A    between atoms: C16_21  and  N4_22 
ROOT
HETATM    1  C4  UNL     1      25.167   0.762  52.730  1.00  0.00     0.069 A 
HETATM    2  C5  UNL     1      24.168  -0.163  53.069  1.00  0.00     0.046 A 
HETATM    3  C6  UNL     1      22.849   0.200  52.981  1.00  0.00    -0.004 A 
HETATM    4  C7  UNL     1      21.814  -0.662  53.300  1.00  0.00     0.038 A 
HETATM    5  C8  UNL     1      20.514  -0.205  53.180  1.00  0.00     0.063 A 
HETATM    6  C9  UNL     1      19.438  -1.088  53.508  1.00  0.00     0.101 C 
HETATM    7  N2  UNL     1      18.572  -1.820  53.763  1.00  0.00    -0.191 NA
HETATM    8  C10 UNL     1      20.227   1.077  52.753  1.00  0.00     0.140 A 
HETATM    9  N3  UNL     1      21.266   1.891  52.450  1.00  0.00    -0.259 NA
HETATM   10  C11 UNL     1      22.513   1.451  52.567  1.00  0.00     0.069 A 
HETATM   11  C12 UNL     1      23.496   2.327  52.244  1.00  0.00     0.071 A 
HETATM   12  C13 UNL     1      24.847   2.062  52.297  1.00  0.00     0.097 A 
ENDROOT
BRANCH   1  13
HETATM   13  N1  UNL     1      26.470   0.165  52.897  1.00  0.00    -0.321 N 
HETATM   14  C3  UNL     1      27.147   0.410  54.121  1.00  0.00     0.245 C 
HETATM   15  O1  UNL     1      26.465   1.151  54.908  1.00  0.00    -0.268 OA
HETATM   16  H4  UNL     1      26.937  -0.430  52.176  1.00  0.00     0.169 HD
BRANCH  14  17
HETATM   17  C2  UNL     1      28.466  -0.114  54.454  1.00  0.00     0.064 C 
HETATM   18  C1  UNL     1      29.540   0.107  53.715  1.00  0.00     0.017 C 
ENDBRANCH  14  17
ENDBRANCH   1  13
BRANCH  12  19
HETATM   19  O2  UNL     1      26.011   2.700  52.050  1.00  0.00    -0.349 OA
BRANCH  19  20
HETATM   20  C14 UNL     1      26.701   2.913  50.861  1.00  0.00     0.177 C 
BRANCH  20  21
HETATM   21  C15 UNL     1      25.807   3.333  49.745  1.00  0.00     0.057 C 
BRANCH  21  22
HETATM   22  C16 UNL     1      25.941   4.838  49.592  1.00  0.00     0.274 C 
BRANCH  22  23
HETATM   23  N4  UNL     1      24.728   5.474  49.121  1.00  0.00     0.092 N 
HETATM   24  C17 UNL     1      25.060   6.869  48.923  1.00  0.00     0.298 C 
HETATM   25  C18 UNL     1      24.368   7.785  49.881  1.00  0.00     0.198 C 
HETATM   26  O3  UNL     1      24.121   7.322  51.129  1.00  0.00    -0.388 OA
HETATM   27  C19 UNL     1      23.989   5.982  51.320  1.00  0.00     0.198 C 
HETATM   28  C20 UNL     1      23.614   5.314  50.036  1.00  0.00     0.298 C 
ENDBRANCH  22  23
ENDBRANCH  21  22
ENDBRANCH  20  21
ENDBRANCH  19  20
ENDBRANCH  12  19
TORSDOF 7
ENDMDL
MODEL 6
REMARK VINA RESULT:      -7.0      2.867      7.997
REMARK  7 active torsions:
REMARK  status: ('A' for Active; 'I' for Inactive)
REMARK    1  A    between atoms: C2_2  and  C3_3 
REMARK       I    between atoms: C3_3  and  N1_5 
REMARK    2  A    between atoms: N1_5  and  C4_6 
REMARK    3  A    between atoms: C13_17  and  O2_18 
REMARK    4  A    between atoms: O2_18  and  C14_19 
REMARK    5  A    between atoms: C14_19  and  C15_20 
REMARK    6  A    between atoms: C15_20  and  C16_21 
REMARK    7  A    between atoms: C16_21  and  N4_22 
ROOT
HETATM    1  C4  UNL     1      24.153   3.473  50.924  1.00  0.00     0.069 A 
HETATM    2  C5  UNL     1      23.230   2.678  51.620  1.00  0.00     0.046 A 
HETATM    3  C6  UNL     1      23.668   1.583  52.321  1.00  0.00    -0.004 A 
HETATM    4  C7  UNL     1      22.812   0.757  53.028  1.00  0.00     0.038 A 
HETATM    5  C8  UNL     1      23.348  -0.324  53.704  1.00  0.00     0.063 A 
HETATM    6  C9  UNL     1      22.471  -1.184  54.437  1.00  0.00     0.101 C 
HETATM    7  N2  UNL     1      21.751  -1.867  55.041  1.00  0.00    -0.191 NA
HETATM    8  C10 UNL     1      24.702  -0.596  53.690  1.00  0.00     0.140 A 
HETATM    9  N3  UNL     1      25.508   0.235  52.987  1.00  0.00    -0.259 NA
HETATM   10  C11 UNL     1      24.992   1.272  52.338  1.00  0.00     0.069 A 
HETATM   11  C12 UNL     1      25.865   2.055  51.658  1.00  0.00     0.071 A 
HETATM   12  C13 UNL     1      25.528   3.173  50.928  1.00  0.00     0.097 A 
ENDROOT
BRANCH   1  13
HETATM   13  N1  UNL     1      23.471   4.561  50.267  1.00  0.00    -0.321 N 
HETATM   14  C3  UNL     1      23.252   5.744  51.022  1.00  0.00     0.245 C 
HETATM   15  O1  UNL     1      23.713   5.648  52.211  1.00  0.00    -0.268 OA
HETATM   16  H4  UNL     1      23.134   4.527  49.279  1.00  0.00     0.169 HD
BRANCH  14  17
HETATM   17  C2  UNL     1      22.580   6.934  50.515  1.00  0.00     0.064 C 
HETATM   18  C1  UNL     1      22.869   7.486  49.348  1.00  0.00     0.017 C 
ENDBRANCH  14  17
ENDBRANCH   1  13
BRANCH  12  19
HETATM   19  O2  UNL     1      26.144   4.112  50.178  1.00  0.00    -0.349 OA
BRANCH  19  20
HETATM   20  C14 UNL     1      26.955   3.993  49.052  1.00  0.00     0.177 C 
BRANCH  20  21
HETATM   21  C15 UNL     1      27.606   5.279  48.675  1.00  0.00     0.057 C 
BRANCH  21  22
HETATM   22  C16 UNL     1      26.542   6.361  48.716  1.00  0.00     0.274 C 
BRANCH  22  23
HETATM   23  N4  UNL     1      26.946   7.585  48.056  1.00  0.00     0.092 N 
HETATM   24  C17 UNL     1      28.364   7.730  48.318  1.00  0.00     0.298 C 
HETATM   25  C18 UNL     1      28.687   8.891  49.202  1.00  0.00     0.198 C 
HETATM   26  O3  UNL     1      27.789   9.227  50.158  1.00  0.00    -0.388 OA
HETATM   27  C19 UNL     1      26.478   8.918  49.966  1.00  0.00     0.198 C 
HETATM   28  C20 UNL     1      26.199   8.743  48.508  1.00  0.00     0.298 C 
ENDBRANCH  22  23
ENDBRANCH  21  22
ENDBRANCH  20  21
ENDBRANCH  19  20
ENDBRANCH  12  19
TORSDOF 7
ENDMDL
MODEL 7
REMARK VINA RESULT:      -7.0      2.672      5.841
REMARK  7 active torsions:
REMARK  status: ('A' for Active; 'I' for Inactive)
REMARK    1  A    between atoms: C2_2  and  C3_3 
REMARK       I    between atoms: C3_3  and  N1_5 
REMARK    2  A    between atoms: N1_5  and  C4_6 
REMARK    3  A    between atoms: C13_17  and  O2_18 
REMARK    4  A    between atoms: O2_18  and  C14_19 
REMARK    5  A    between atoms: C14_19  and  C15_20 
REMARK    6  A    between atoms: C15_20  and  C16_21 
REMARK    7  A    between atoms: C16_21  and  N4_22 
ROOT
HETATM    1  C4  UNL     1      23.055   1.300  52.291  1.00  0.00     0.069 A 
HETATM    2  C5  UNL     1      23.948   0.223  52.395  1.00  0.00     0.046 A 
HETATM    3  C6  UNL     1      25.256   0.455  52.733  1.00  0.00    -0.004 A 
HETATM    4  C7  UNL     1      26.189  -0.560  52.852  1.00  0.00     0.038 A 
HETATM    5  C8  UNL     1      27.486  -0.227  53.197  1.00  0.00     0.063 A 
HETATM    6  C9  UNL     1      28.457  -1.271  53.323  1.00  0.00     0.101 C 
HETATM    7  N2  UNL     1      29.233  -2.128  53.436  1.00  0.00    -0.191 NA
HETATM    8  C10 UNL     1      27.869   1.080  53.423  1.00  0.00     0.140 A 
HETATM    9  N3  UNL     1      26.929   2.046  53.297  1.00  0.00    -0.259 NA
HETATM   10  C11 UNL     1      25.684   1.725  52.965  1.00  0.00     0.069 A 
HETATM   11  C12 UNL     1      24.803   2.750  52.858  1.00  0.00     0.071 A 
HETATM   12  C13 UNL     1      23.472   2.623  52.527  1.00  0.00     0.097 A 
ENDROOT
BRANCH   1  13
HETATM   13  N1  UNL     1      21.743   0.821  51.928  1.00  0.00    -0.321 N 
HETATM   14  C3  UNL     1      20.903   0.366  52.978  1.00  0.00     0.245 C 
HETATM   15  O1  UNL     1      21.468   0.457  54.121  1.00  0.00    -0.268 OA
HETATM   16  H4  UNL     1      21.383   0.792  50.949  1.00  0.00     0.169 HD
BRANCH  14  17
HETATM   17  C2  UNL     1      19.552  -0.149  52.790  1.00  0.00     0.064 C 
HETATM   18  C1  UNL     1      18.894  -0.053  51.647  1.00  0.00     0.017 C 
ENDBRANCH  14  17
ENDBRANCH   1  13
BRANCH  12  19
HETATM   19  O2  UNL     1      22.396   3.420  52.350  1.00  0.00    -0.349 OA
BRANCH  19  20
HETATM   20  C14 UNL     1      22.289   4.805  52.273  1.00  0.00     0.177 C 
BRANCH  20  21
HETATM   21  C15 UNL     1      21.532   5.257  51.072  1.00  0.00     0.057 C 
BRANCH  21  22
HETATM   22  C16 UNL     1      22.360   4.906  49.849  1.00  0.00     0.274 C 
BRANCH  22  23
HETATM   23  N4  UNL     1      21.561   4.460  48.727  1.00  0.00     0.092 N 
HETATM   24  C17 UNL     1      20.378   3.849  49.297  1.00  0.00     0.298 C 
HETATM   25  C18 UNL     1      20.306   2.372  49.071  1.00  0.00     0.198 C 
HETATM   26  O3  UNL     1      21.470   1.682  49.036  1.00  0.00    -0.388 OA
HETATM   27  C19 UNL     1      22.608   2.328  48.666  1.00  0.00     0.198 C 
HETATM   28  C20 UNL     1      22.271   3.541  47.858  1.00  0.00     0.298 C 
ENDBRANCH  22  23
ENDBRANCH  21  22
ENDBRANCH  20  21
ENDBRANCH  19  20
ENDBRANCH  12  19
TORSDOF 7
ENDMDL
MODEL 8
REMARK VINA RESULT:      -6.9      2.491      6.778
REMARK  7 active torsions:
REMARK  status: ('A' for Active; 'I' for Inactive)
REMARK    1  A    between atoms: C2_2  and  C3_3 
REMARK       I    between atoms: C3_3  and  N1_5 
REMARK    2  A    between atoms: N1_5  and  C4_6 
REMARK    3  A    between atoms: C13_17  and  O2_18 
REMARK    4  A    between atoms: O2_18  and  C14_19 
REMARK    5  A    between atoms: C14_19  and  C15_20 
REMARK    6  A    between atoms: C15_20  and  C16_21 
REMARK    7  A    between atoms: C16_21  and  N4_22 
ROOT
HETATM    1  C4  UNL     1      24.217   2.033  51.628  1.00  0.00     0.069 A 
HETATM    2  C5  UNL     1      25.118   0.965  51.507  1.00  0.00     0.046 A 
HETATM    3  C6  UNL     1      26.022   0.723  52.510  1.00  0.00    -0.004 A 
HETATM    4  C7  UNL     1      26.939  -0.313  52.456  1.00  0.00     0.038 A 
HETATM    5  C8  UNL     1      27.811  -0.477  53.516  1.00  0.00     0.063 A 
HETATM    6  C9  UNL     1      28.762  -1.545  53.469  1.00  0.00     0.101 C 
HETATM    7  N2  UNL     1      29.520  -2.424  53.425  1.00  0.00    -0.191 NA
HETATM    8  C10 UNL     1      27.789   0.357  54.616  1.00  0.00     0.140 A 
HETATM    9  N3  UNL     1      26.878   1.359  54.633  1.00  0.00    -0.259 NA
HETATM   10  C11 UNL     1      26.042   1.516  53.614  1.00  0.00     0.069 A 
HETATM   11  C12 UNL     1      25.161   2.543  53.708  1.00  0.00     0.071 A 
HETATM   12  C13 UNL     1      24.216   2.868  52.760  1.00  0.00     0.097 A 
ENDROOT
BRANCH   1  13
HETATM   13  N1  UNL     1      23.367   2.096  50.463  1.00  0.00    -0.321 N 
HETATM   14  C3  UNL     1      22.206   1.278  50.459  1.00  0.00     0.245 C 
HETATM   15  O1  UNL     1      22.098   0.590  51.532  1.00  0.00    -0.268 OA
HETATM   16  H4  UNL     1      23.556   2.701  49.634  1.00  0.00     0.169 HD
BRANCH  14  17
HETATM   17  C2  UNL     1      21.242   1.217  49.367  1.00  0.00     0.064 C 
HETATM   18  C1  UNL     1      21.329   1.970  48.283  1.00  0.00     0.017 C 
ENDBRANCH  14  17
ENDBRANCH   1  13
BRANCH  12  19
HETATM   19  O2  UNL     1      23.245   3.789  52.578  1.00  0.00    -0.349 OA
BRANCH  19  20
HETATM   20  C14 UNL     1      23.307   5.177  52.502  1.00  0.00     0.177 C 
BRANCH  20  21
HETATM   21  C15 UNL     1      23.112   5.687  51.116  1.00  0.00     0.057 C 
BRANCH  21  22
HETATM   22  C16 UNL     1      24.483   5.809  50.475  1.00  0.00     0.274 C 
BRANCH  22  23
HETATM   23  N4  UNL     1      25.047   7.138  50.582  1.00  0.00     0.092 N 
HETATM   24  C17 UNL     1      23.980   8.054  50.236  1.00  0.00     0.298 C 
HETATM   25  C18 UNL     1      24.219   8.784  48.953  1.00  0.00     0.198 C 
HETATM   26  O3  UNL     1      24.895   8.138  47.975  1.00  0.00    -0.388 OA
HETATM   27  C19 UNL     1      25.767   7.151  48.318  1.00  0.00     0.198 C 
HETATM   28  C20 UNL     1      26.210   7.327  49.735  1.00  0.00     0.298 C 
ENDBRANCH  22  23
ENDBRANCH  21  22
ENDBRANCH  20  21
ENDBRANCH  19  20
ENDBRANCH  12  19
TORSDOF 7
ENDMDL
MODEL 9
REMARK VINA RESULT:      -6.9      2.265      5.580
REMARK  7 active torsions:
REMARK  status: ('A' for Active; 'I' for Inactive)
REMARK    1  A    between atoms: C2_2  and  C3_3 
REMARK       I    between atoms: C3_3  and  N1_5 
REMARK    2  A    between atoms: N1_5  and  C4_6 
REMARK    3  A    between atoms: C13_17  and  O2_18 
REMARK    4  A    between atoms: O2_18  and  C14_19 
REMARK    5  A    between atoms: C14_19  and  C15_20 
REMARK    6  A    between atoms: C15_20  and  C16_21 
REMARK    7  A    between atoms: C16_21  and  N4_22 
ROOT
HETATM    1  C4  UNL     1      24.823   3.383  51.621  1.00  0.00     0.069 A 
HETATM    2  C5  UNL     1      25.845   2.424  51.553  1.00  0.00     0.046 A 
HETATM    3  C6  UNL     1      25.687   1.217  52.186  1.00  0.00    -0.004 A 
HETATM    4  C7  UNL     1      26.655   0.228  52.160  1.00  0.00     0.038 A 
HETATM    5  C8  UNL     1      26.405  -0.956  52.829  1.00  0.00     0.063 A 
HETATM    6  C9  UNL     1      27.399  -1.985  52.809  1.00  0.00     0.101 C 
HETATM    7  N2  UNL     1      28.208  -2.817  52.773  1.00  0.00    -0.191 NA
HETATM    8  C10 UNL     1      25.225  -1.173  53.514  1.00  0.00     0.140 A 
HETATM    9  N3  UNL     1      24.303  -0.182  53.517  1.00  0.00    -0.259 NA
HETATM   10  C11 UNL     1      24.545   0.954  52.875  1.00  0.00     0.069 A 
HETATM   11  C12 UNL     1      23.571   1.896  52.925  1.00  0.00     0.071 A 
HETATM   12  C13 UNL     1      23.630   3.135  52.326  1.00  0.00     0.097 A 
ENDROOT
BRANCH   1  13
HETATM   13  N1  UNL     1      25.205   4.564  50.886  1.00  0.00    -0.321 N 
HETATM   14  C3  UNL     1      24.733   4.684  49.552  1.00  0.00     0.245 C 
HETATM   15  O1  UNL     1      24.016   3.684  49.204  1.00  0.00    -0.268 OA
HETATM   16  H4  UNL     1      25.803   5.326  51.277  1.00  0.00     0.169 HD
BRANCH  14  17
HETATM   17  C2  UNL     1      25.023   5.809  48.672  1.00  0.00     0.064 C 
HETATM   18  C1  UNL     1      24.097   6.423  47.955  1.00  0.00     0.017 C 
ENDBRANCH  14  17
ENDBRANCH   1  13
BRANCH  12  19
HETATM   19  O2  UNL     1      22.857   4.235  52.204  1.00  0.00    -0.349 OA
BRANCH  19  20
HETATM   20  C14 UNL     1      21.477   4.373  52.096  1.00  0.00     0.177 C 
BRANCH  20  21
HETATM   21  C15 UNL     1      20.903   3.563  50.985  1.00  0.00     0.057 C 
BRANCH  21  22
HETATM   22  C16 UNL     1      19.822   2.676  51.576  1.00  0.00     0.274 C 
BRANCH  22  23
HETATM   23  N4  UNL     1      19.638   1.437  50.849  1.00  0.00     0.092 N 
HETATM   24  C17 UNL     1      18.268   1.034  51.088  1.00  0.00     0.298 C 
HETATM   25  C18 UNL     1      18.152  -0.212  51.907  1.00  0.00     0.198 C 
HETATM   26  O3  UNL     1      19.094  -0.437  52.852  1.00  0.00    -0.388 OA
HETATM   27  C19 UNL     1      20.331   0.107  52.691  1.00  0.00     0.198 C 
HETATM   28  C20 UNL     1      20.577   0.405  51.247  1.00  0.00     0.298 C 
ENDBRANCH  22  23
ENDBRANCH  21  22
ENDBRANCH  20  21
ENDBRANCH  19  20
ENDBRANCH  12  19
TORSDOF 7
ENDMDL
