MODEL 1
REMARK VINA RESULT:      -8.2      0.000      0.000
REMARK  2 active torsions:
REMARK  status: ('A' for Active; 'I' for Inactive)
REMARK    1  A    between atoms: C12_15  and  O2_16 
REMARK    2  A    between atoms: C19_26  and  N4_27 
ROOT
HETATM    1  C1  UNL     1      18.467   3.591  51.296  1.00  0.00     0.045 C 
HETATM    2  C2  UNL     1      19.093   3.434  49.933  1.00  0.00     0.245 C 
HETATM    3  C3  UNL     1      20.475   4.038  50.002  1.00  0.00     0.203 C 
HETATM    4  O1  UNL     1      20.515   5.292  50.556  1.00  0.00    -0.385 OA
HETATM    5  C4  UNL     1      21.733   5.868  50.774  1.00  0.00     0.198 C 
HETATM    6  C5  UNL     1      22.606   5.113  51.743  1.00  0.00     0.042 C 
HETATM    7  C6  UNL     1      23.388   4.666  52.772  1.00  0.00     0.127 C 
HETATM    8  F1  UNL     1      23.872   5.160  53.936  1.00  0.00    -0.205 F 
HETATM    9  C7  UNL     1      23.783   3.231  52.651  1.00  0.00     0.038 A 
HETATM   10  C8  UNL     1      24.953   2.554  52.429  1.00  0.00     0.036 A 
HETATM   11  C9  UNL     1      24.901   1.188  52.284  1.00  0.00     0.013 A 
HETATM   12 BR1  UNL     1      26.591   0.391  51.985  1.00  0.00    -0.051 Br
HETATM   13  C10 UNL     1      23.706   0.505  52.357  1.00  0.00     0.035 A 
HETATM   14  C11 UNL     1      22.493   1.125  52.578  1.00  0.00     0.029 A 
HETATM   15  C12 UNL     1      22.572   2.517  52.726  1.00  0.00     0.091 A 
HETATM   16  C13 UNL     1      21.225   0.404  52.607  1.00  0.00     0.079 C 
HETATM   17  N1  UNL     1      20.594  -0.311  53.497  1.00  0.00    -0.241 NA
HETATM   18  C14 UNL     1      19.186  -0.541  53.294  1.00  0.00     0.228 C 
HETATM   19  N2  UNL     1      18.464  -0.106  52.302  1.00  0.00    -0.269 NA
HETATM   20  C15 UNL     1      19.118   0.173  51.004  1.00  0.00     0.208 C 
HETATM   21  C16 UNL     1      20.497   0.522  51.330  1.00  0.00    -0.002 C 
HETATM   22  C17 UNL     1      20.960   0.976  50.183  1.00  0.00     0.015 C 
HETATM   23  C18 UNL     1      20.254   1.518  48.999  1.00  0.00     0.304 C 
HETATM   24  N3  UNL     1      19.047   2.108  49.437  1.00  0.00     0.134 N 
HETATM   25  C19 UNL     1      18.321   1.170  50.242  1.00  0.00     0.481 C 
ENDROOT
BRANCH  25  26
HETATM   26  N4  UNL     1      17.510   0.394  49.281  1.00  0.00     0.115 N 
HETATM   27  H19 UNL     1      17.673  -0.612  49.409  1.00  0.00     0.315 HD
HETATM   28  H20 UNL     1      16.519   0.669  49.468  1.00  0.00     0.315 HD
ENDBRANCH  25  26
BRANCH  15  29
HETATM   29  O2  UNL     1      21.291   3.060  52.962  1.00  0.00    -0.359 OA
HETATM   30  H12 UNL     1      21.208   4.038  52.686  1.00  0.00     0.217 HD
ENDBRANCH  15  29
TORSDOF 2
ENDMDL
MODEL 2
REMARK VINA RESULT:      -7.9      2.399      3.521
REMARK  2 active torsions:
REMARK  status: ('A' for Active; 'I' for Inactive)
REMARK    1  A    between atoms: C12_15  and  O2_16 
REMARK    2  A    between atoms: C19_26  and  N4_27 
ROOT
HETATM    1  C1  UNL     1      22.497   4.957  48.899  1.00  0.00     0.045 C 
HETATM    2  C2  UNL     1      22.749   3.658  48.176  1.00  0.00     0.245 C 
HETATM    3  C3  UNL     1      23.729   2.865  49.007  1.00  0.00     0.203 C 
HETATM    4  O1  UNL     1      24.834   3.573  49.401  1.00  0.00    -0.385 OA
HETATM    5  C4  UNL     1      25.716   2.977  50.258  1.00  0.00     0.198 C 
HETATM    6  C5  UNL     1      25.125   2.622  51.598  1.00  0.00     0.042 C 
HETATM    7  C6  UNL     1      24.788   2.472  52.915  1.00  0.00     0.127 C 
HETATM    8  F1  UNL     1      25.222   2.939  54.109  1.00  0.00    -0.205 F 
HETATM    9  C7  UNL     1      23.579   1.623  53.135  1.00  0.00     0.038 A 
HETATM   10  C8  UNL     1      23.335   0.392  53.684  1.00  0.00     0.036 A 
HETATM   11  C9  UNL     1      22.058  -0.111  53.619  1.00  0.00     0.013 A 
HETATM   12 BR1  UNL     1      21.871  -1.817  54.417  1.00  0.00    -0.051 Br
HETATM   13  C10 UNL     1      21.038   0.596  53.016  1.00  0.00     0.035 A 
HETATM   14  C11 UNL     1      21.216   1.840  52.446  1.00  0.00     0.029 A 
HETATM   15  C12 UNL     1      22.526   2.334  52.528  1.00  0.00     0.091 A 
HETATM   16  C13 UNL     1      20.146   2.564  51.768  1.00  0.00     0.079 C 
HETATM   17  N1  UNL     1      19.145   3.304  52.160  1.00  0.00    -0.241 NA
HETATM   18  C14 UNL     1      18.529   4.166  51.183  1.00  0.00     0.228 C 
HETATM   19  N2  UNL     1      18.868   4.288  49.932  1.00  0.00    -0.269 NA
HETATM   20  C15 UNL     1      19.528   3.152  49.252  1.00  0.00     0.208 C 
HETATM   21  C16 UNL     1      20.229   2.421  50.303  1.00  0.00    -0.002 C 
HETATM   22  C17 UNL     1      20.972   1.573  49.621  1.00  0.00     0.015 C 
HETATM   23  C18 UNL     1      21.445   1.610  48.219  1.00  0.00     0.304 C 
HETATM   24  N3  UNL     1      21.564   2.964  47.828  1.00  0.00     0.134 N 
HETATM   25  C19 UNL     1      20.338   3.651  48.108  1.00  0.00     0.481 C 
ENDROOT
BRANCH  25  26
HETATM   26  N4  UNL     1      19.506   3.450  46.903  1.00  0.00     0.115 N 
HETATM   27  H19 UNL     1      19.187   2.475  46.849  1.00  0.00     0.315 HD
HETATM   28  H20 UNL     1      18.717   4.129  46.994  1.00  0.00     0.315 HD
ENDBRANCH  25  26
BRANCH  15  29
HETATM   29  O2  UNL     1      22.608   3.611  51.934  1.00  0.00    -0.359 OA
HETATM   30  H12 UNL     1      22.395   4.372  52.579  1.00  0.00     0.217 HD
ENDBRANCH  15  29
TORSDOF 2
ENDMDL
MODEL 3
REMARK VINA RESULT:      -7.8      4.462      6.612
REMARK  2 active torsions:
REMARK  status: ('A' for Active; 'I' for Inactive)
REMARK    1  A    between atoms: C12_15  and  O2_16 
REMARK    2  A    between atoms: C19_26  and  N4_27 
ROOT
HETATM    1  C1  UNL     1      23.364   6.958  47.440  1.00  0.00     0.045 C 
HETATM    2  C2  UNL     1      22.789   7.390  48.766  1.00  0.00     0.245 C 
HETATM    3  C3  UNL     1      21.872   6.288  49.238  1.00  0.00     0.203 C 
HETATM    4  O1  UNL     1      20.978   5.856  48.292  1.00  0.00    -0.385 OA
HETATM    5  C4  UNL     1      20.191   4.779  48.586  1.00  0.00     0.198 C 
HETATM    6  C5  UNL     1      20.959   3.507  48.837  1.00  0.00     0.042 C 
HETATM    7  C6  UNL     1      21.508   2.254  48.847  1.00  0.00     0.127 C 
HETATM    8  F1  UNL     1      21.377   1.109  48.137  1.00  0.00    -0.205 F 
HETATM    9  C7  UNL     1      22.594   2.080  49.857  1.00  0.00     0.038 A 
HETATM   10  C8  UNL     1      22.748   1.367  51.016  1.00  0.00     0.036 A 
HETATM   11  C9  UNL     1      23.900   1.542  51.745  1.00  0.00     0.013 A 
HETATM   12 BR1  UNL     1      23.972   0.492  53.318  1.00  0.00    -0.051 Br
HETATM   13  C10 UNL     1      24.885   2.413  51.329  1.00  0.00     0.035 A 
HETATM   14  C11 UNL     1      24.794   3.160  50.172  1.00  0.00     0.029 A 
HETATM   15  C12 UNL     1      23.612   2.962  49.445  1.00  0.00     0.091 A 
HETATM   16  C13 UNL     1      25.817   4.116  49.762  1.00  0.00     0.079 C 
HETATM   17  N1  UNL     1      26.973   4.024  49.163  1.00  0.00    -0.241 NA
HETATM   18  C14 UNL     1      27.521   5.224  48.580  1.00  0.00     0.228 C 
HETATM   19  N2  UNL     1      26.978   6.407  48.588  1.00  0.00    -0.269 NA
HETATM   20  C15 UNL     1      26.040   6.762  49.675  1.00  0.00     0.208 C 
HETATM   21  C16 UNL     1      25.444   5.501  50.104  1.00  0.00    -0.002 C 
HETATM   22  C17 UNL     1      24.468   5.895  50.896  1.00  0.00     0.015 C 
HETATM   23  C18 UNL     1      23.755   7.189  50.985  1.00  0.00     0.304 C 
HETATM   24  N3  UNL     1      23.771   7.791  49.705  1.00  0.00     0.134 N 
HETATM   25  C19 UNL     1      25.117   7.834  49.216  1.00  0.00     0.481 C 
ENDROOT
BRANCH  25  26
HETATM   26  N4  UNL     1      25.672   9.100  49.740  1.00  0.00     0.115 N 
HETATM   27  H19 UNL     1      26.328   9.508  49.063  1.00  0.00     0.315 HD
HETATM   28  H20 UNL     1      24.844   9.711  49.920  1.00  0.00     0.315 HD
ENDBRANCH  25  26
BRANCH  15  29
HETATM   29  O2  UNL     1      23.615   3.753  48.277  1.00  0.00    -0.359 OA
HETATM   30  H12 UNL     1      24.390   3.544  47.648  1.00  0.00     0.217 HD
ENDBRANCH  15  29
TORSDOF 2
ENDMDL
MODEL 4
REMARK VINA RESULT:      -7.4      3.281      5.213
REMARK  2 active torsions:
REMARK  status: ('A' for Active; 'I' for Inactive)
REMARK    1  A    between atoms: C12_15  and  O2_16 
REMARK    2  A    between atoms: C19_26  and  N4_27 
ROOT
HETATM    1  C1  UNL     1      20.805   3.701  50.354  1.00  0.00     0.045 C 
HETATM    2  C2  UNL     1      20.809   4.282  51.745  1.00  0.00     0.245 C 
HETATM    3  C3  UNL     1      20.913   3.129  52.713  1.00  0.00     0.203 C 
HETATM    4  O1  UNL     1      20.025   2.112  52.475  1.00  0.00    -0.385 OA
HETATM    5  C4  UNL     1      20.126   0.973  53.221  1.00  0.00     0.198 C 
HETATM    6  C5  UNL     1      21.432   0.240  53.052  1.00  0.00     0.042 C 
HETATM    7  C6  UNL     1      22.454  -0.635  52.809  1.00  0.00     0.127 C 
HETATM    8  F1  UNL     1      22.585  -1.907  52.362  1.00  0.00    -0.205 F 
HETATM    9  C7  UNL     1      23.812  -0.052  53.020  1.00  0.00     0.038 A 
HETATM   10  C8  UNL     1      24.831  -0.241  53.916  1.00  0.00     0.036 A 
HETATM   11  C9  UNL     1      25.929   0.581  53.841  1.00  0.00     0.013 A 
HETATM   12 BR1  UNL     1      27.253   0.201  55.139  1.00  0.00    -0.051 Br
HETATM   13  C10 UNL     1      26.015   1.578  52.892  1.00  0.00     0.035 A 
HETATM   14  C11 UNL     1      25.026   1.822  51.960  1.00  0.00     0.029 A 
HETATM   15  C12 UNL     1      23.918   0.968  52.054  1.00  0.00     0.091 A 
HETATM   16  C13 UNL     1      25.101   2.908  50.989  1.00  0.00     0.079 C 
HETATM   17  N1  UNL     1      25.699   3.075  49.842  1.00  0.00    -0.241 NA
HETATM   18  C14 UNL     1      25.225   4.137  48.990  1.00  0.00     0.228 C 
HETATM   19  N2  UNL     1      24.250   4.961  49.247  1.00  0.00    -0.269 NA
HETATM   20  C15 UNL     1      23.914   5.262  50.656  1.00  0.00     0.208 C 
HETATM   21  C16 UNL     1      24.310   4.078  51.412  1.00  0.00    -0.002 C 
HETATM   22  C17 UNL     1      23.786   4.304  52.600  1.00  0.00     0.015 C 
HETATM   23  C18 UNL     1      22.671   5.185  53.015  1.00  0.00     0.304 C 
HETATM   24  N3  UNL     1      21.774   5.304  51.929  1.00  0.00     0.134 N 
HETATM   25  C19 UNL     1      22.495   5.695  50.755  1.00  0.00     0.481 C 
ENDROOT
BRANCH  25  26
HETATM   26  N4  UNL     1      22.523   7.172  50.800  1.00  0.00     0.115 N 
HETATM   27  H19 UNL     1      21.567   7.545  50.827  1.00  0.00     0.315 HD
HETATM   28  H20 UNL     1      23.075   7.412  51.654  1.00  0.00     0.315 HD
ENDBRANCH  25  26
BRANCH  15  29
HETATM   29  O2  UNL     1      22.970   1.282  51.057  1.00  0.00    -0.359 OA
HETATM   30  H12 UNL     1      23.253   0.987  50.123  1.00  0.00     0.217 HD
ENDBRANCH  15  29
TORSDOF 2
ENDMDL
MODEL 5
REMARK VINA RESULT:      -7.3      3.177      5.094
REMARK  2 active torsions:
REMARK  status: ('A' for Active; 'I' for Inactive)
REMARK    1  A    between atoms: C12_15  and  O2_16 
REMARK    2  A    between atoms: C19_26  and  N4_27 
ROOT
HETATM    1  C1  UNL     1      21.784   0.709  50.733  1.00  0.00     0.045 C 
HETATM    2  C2  UNL     1      21.732   1.522  52.002  1.00  0.00     0.245 C 
HETATM    3  C3  UNL     1      23.091   2.153  52.187  1.00  0.00     0.203 C 
HETATM    4  O1  UNL     1      24.139   1.279  52.059  1.00  0.00    -0.385 OA
HETATM    5  C4  UNL     1      25.410   1.779  52.087  1.00  0.00     0.198 C 
HETATM    6  C5  UNL     1      25.717   2.741  50.967  1.00  0.00     0.042 C 
HETATM    7  C6  UNL     1      26.194   3.426  49.884  1.00  0.00     0.127 C 
HETATM    8  F1  UNL     1      27.167   3.261  48.958  1.00  0.00    -0.205 F 
HETATM    9  C7  UNL     1      25.422   4.663  49.564  1.00  0.00     0.038 A 
HETATM   10  C8  UNL     1      25.668   6.010  49.611  1.00  0.00     0.036 A 
HETATM   11  C9  UNL     1      24.640   6.873  49.315  1.00  0.00     0.013 A 
HETATM   12 BR1  UNL     1      25.127   8.699  49.420  1.00  0.00    -0.051 Br
HETATM   13  C10 UNL     1      23.387   6.406  48.979  1.00  0.00     0.035 A 
HETATM   14  C11 UNL     1      23.072   5.064  48.913  1.00  0.00     0.029 A 
HETATM   15  C12 UNL     1      24.137   4.203  49.215  1.00  0.00     0.091 A 
HETATM   16  C13 UNL     1      21.733   4.576  48.603  1.00  0.00     0.079 C 
HETATM   17  N1  UNL     1      21.048   4.404  47.506  1.00  0.00    -0.241 NA
HETATM   18  C14 UNL     1      19.897   3.537  47.565  1.00  0.00     0.228 C 
HETATM   19  N2  UNL     1      19.461   2.898  48.612  1.00  0.00    -0.269 NA
HETATM   20  C15 UNL     1      19.749   3.440  49.958  1.00  0.00     0.208 C 
HETATM   21  C16 UNL     1      20.996   4.187  49.820  1.00  0.00    -0.002 C 
HETATM   22  C17 UNL     1      21.319   4.446  51.070  1.00  0.00     0.015 C 
HETATM   23  C18 UNL     1      20.918   3.785  52.333  1.00  0.00     0.304 C 
HETATM   24  N3  UNL     1      20.643   2.427  52.051  1.00  0.00     0.134 N 
HETATM   25  C19 UNL     1      19.716   2.343  50.962  1.00  0.00     0.481 C 
ENDROOT
BRANCH  25  26
HETATM   26  N4  UNL     1      18.382   2.408  51.592  1.00  0.00     0.115 N 
HETATM   27  H19 UNL     1      17.902   1.505  51.504  1.00  0.00     0.315 HD
HETATM   28  H20 UNL     1      18.557   2.678  52.586  1.00  0.00     0.315 HD
ENDBRANCH  25  26
BRANCH  15  29
HETATM   29  O2  UNL     1      23.727   2.858  49.107  1.00  0.00    -0.359 OA
HETATM   30  H12 UNL     1      23.946   2.301  49.932  1.00  0.00     0.217 HD
ENDBRANCH  15  29
TORSDOF 2
ENDMDL
MODEL 6
REMARK VINA RESULT:      -7.3      3.260      4.160
REMARK  2 active torsions:
REMARK  status: ('A' for Active; 'I' for Inactive)
REMARK    1  A    between atoms: C12_15  and  O2_16 
REMARK    2  A    between atoms: C19_26  and  N4_27 
ROOT
HETATM    1  C1  UNL     1      20.274   4.640  50.447  1.00  0.00     0.045 C 
HETATM    2  C2  UNL     1      20.446   4.429  48.963  1.00  0.00     0.245 C 
HETATM    3  C3  UNL     1      21.328   5.541  48.450  1.00  0.00     0.203 C 
HETATM    4  O1  UNL     1      20.944   6.794  48.852  1.00  0.00    -0.385 OA
HETATM    5  C4  UNL     1      21.751   7.852  48.541  1.00  0.00     0.198 C 
HETATM    6  C5  UNL     1      23.126   7.777  49.152  1.00  0.00     0.042 C 
HETATM    7  C6  UNL     1      24.301   7.951  49.831  1.00  0.00     0.127 C 
HETATM    8  F1  UNL     1      24.829   8.865  50.679  1.00  0.00    -0.205 F 
HETATM    9  C7  UNL     1      25.262   6.820  49.673  1.00  0.00     0.038 A 
HETATM   10  C8  UNL     1      26.480   6.648  49.068  1.00  0.00     0.036 A 
HETATM   11  C9  UNL     1      27.032   5.389  49.056  1.00  0.00     0.013 A 
HETATM   12 BR1  UNL     1      28.712   5.305  48.189  1.00  0.00    -0.051 Br
HETATM   13  C10 UNL     1      26.384   4.317  49.633  1.00  0.00     0.035 A 
HETATM   14  C11 UNL     1      25.158   4.422  50.258  1.00  0.00     0.029 A 
HETATM   15  C12 UNL     1      24.617   5.715  50.262  1.00  0.00     0.091 A 
HETATM   16  C13 UNL     1      24.456   3.276  50.826  1.00  0.00     0.079 C 
HETATM   17  N1  UNL     1      24.543   2.604  51.941  1.00  0.00    -0.241 NA
HETATM   18  C14 UNL     1      23.423   1.778  52.314  1.00  0.00     0.228 C 
HETATM   19  N2  UNL     1      22.315   1.627  51.646  1.00  0.00    -0.269 NA
HETATM   20  C15 UNL     1      22.325   1.826  50.180  1.00  0.00     0.208 C 
HETATM   21  C16 UNL     1      23.404   2.775  49.922  1.00  0.00    -0.002 C 
HETATM   22  C17 UNL     1      23.219   3.086  48.656  1.00  0.00     0.015 C 
HETATM   23  C18 UNL     1      22.016   2.989  47.799  1.00  0.00     0.304 C 
HETATM   24  N3  UNL     1      20.875   3.122  48.623  1.00  0.00     0.134 N 
HETATM   25  C19 UNL     1      20.962   2.195  49.712  1.00  0.00     0.481 C 
ENDROOT
BRANCH  25  26
HETATM   26  N4  UNL     1      20.358   0.948  49.198  1.00  0.00     0.115 N 
HETATM   27  H19 UNL     1      19.391   1.118  48.899  1.00  0.00     0.315 HD
HETATM   28  H20 UNL     1      20.976   0.643  48.413  1.00  0.00     0.315 HD
ENDBRANCH  25  26
BRANCH  15  29
HETATM   29  O2  UNL     1      23.376   5.727  50.932  1.00  0.00    -0.359 OA
HETATM   30  H12 UNL     1      22.662   6.274  50.452  1.00  0.00     0.217 HD
ENDBRANCH  15  29
TORSDOF 2
ENDMDL
MODEL 7
REMARK VINA RESULT:      -7.3      3.150      5.152
REMARK  2 active torsions:
REMARK  status: ('A' for Active; 'I' for Inactive)
REMARK    1  A    between atoms: C12_15  and  O2_16 
REMARK    2  A    between atoms: C19_26  and  N4_27 
ROOT
HETATM    1  C1  UNL     1      23.175   3.785  50.810  1.00  0.00     0.045 C 
HETATM    2  C2  UNL     1      23.357   2.559  49.951  1.00  0.00     0.245 C 
HETATM    3  C3  UNL     1      23.182   1.354  50.844  1.00  0.00     0.203 C 
HETATM    4  O1  UNL     1      23.909   1.404  52.005  1.00  0.00    -0.385 OA
HETATM    5  C4  UNL     1      23.721   0.419  52.932  1.00  0.00     0.198 C 
HETATM    6  C5  UNL     1      22.322   0.356  53.487  1.00  0.00     0.042 C 
HETATM    7  C6  UNL     1      21.179   0.347  54.238  1.00  0.00     0.127 C 
HETATM    8  F1  UNL     1      20.849   0.493  55.543  1.00  0.00    -0.205 F 
HETATM    9  C7  UNL     1      19.929   0.205  53.433  1.00  0.00     0.038 A 
HETATM   10  C8  UNL     1      18.969  -0.761  53.278  1.00  0.00     0.036 A 
HETATM   11  C9  UNL     1      17.984  -0.559  52.341  1.00  0.00     0.013 A 
HETATM   12 BR1  UNL     1      16.731  -1.973  52.240  1.00  0.00    -0.051 Br
HETATM   13  C10 UNL     1      17.953   0.583  51.569  1.00  0.00     0.035 A 
HETATM   14  C11 UNL     1      18.887   1.593  51.674  1.00  0.00     0.029 A 
HETATM   15  C12 UNL     1      19.879   1.367  52.639  1.00  0.00     0.091 A 
HETATM   16  C13 UNL     1      18.877   2.777  50.822  1.00  0.00     0.079 C 
HETATM   17  N1  UNL     1      18.216   3.902  50.819  1.00  0.00    -0.241 NA
HETATM   18  C14 UNL     1      18.754   4.991  50.043  1.00  0.00     0.228 C 
HETATM   19  N2  UNL     1      19.845   4.972  49.333  1.00  0.00    -0.269 NA
HETATM   20  C15 UNL     1      20.329   3.684  48.789  1.00  0.00     0.208 C 
HETATM   21  C16 UNL     1      19.845   2.664  49.715  1.00  0.00    -0.002 C 
HETATM   22  C17 UNL     1      20.487   1.584  49.318  1.00  0.00     0.015 C 
HETATM   23  C18 UNL     1      21.736   1.431  48.539  1.00  0.00     0.304 C 
HETATM   24  N3  UNL     1      22.551   2.559  48.786  1.00  0.00     0.134 N 
HETATM   25  C19 UNL     1      21.795   3.754  48.554  1.00  0.00     0.481 C 
ENDROOT
BRANCH  25  26
HETATM   26  N4  UNL     1      21.963   4.037  47.114  1.00  0.00     0.115 N 
HETATM   27  H19 UNL     1      21.822   3.181  46.564  1.00  0.00     0.315 HD
HETATM   28  H20 UNL     1      21.261   4.779  46.893  1.00  0.00     0.315 HD
ENDBRANCH  25  26
BRANCH  15  29
HETATM   29  O2  UNL     1      20.777   2.454  52.685  1.00  0.00    -0.359 OA
HETATM   30  H12 UNL     1      20.448   3.226  53.264  1.00  0.00     0.217 HD
ENDBRANCH  15  29
TORSDOF 2
ENDMDL
MODEL 8
REMARK VINA RESULT:      -7.2      9.824     12.476
REMARK  2 active torsions:
REMARK  status: ('A' for Active; 'I' for Inactive)
REMARK    1  A    between atoms: C12_15  and  O2_16 
REMARK    2  A    between atoms: C19_26  and  N4_27 
ROOT
HETATM    1  C1  UNL     1      31.492   8.816  49.291  1.00  0.00     0.045 C 
HETATM    2  C2  UNL     1      31.648   8.503  47.823  1.00  0.00     0.245 C 
HETATM    3  C3  UNL     1      30.601   7.474  47.470  1.00  0.00     0.203 C 
HETATM    4  O1  UNL     1      30.554   6.403  48.325  1.00  0.00    -0.385 OA
HETATM    5  C4  UNL     1      29.559   5.483  48.159  1.00  0.00     0.198 C 
HETATM    6  C5  UNL     1      28.170   6.040  48.340  1.00  0.00     0.042 C 
HETATM    7  C6  UNL     1      26.892   6.355  48.711  1.00  0.00     0.127 C 
HETATM    8  F1  UNL     1      25.995   5.933  49.633  1.00  0.00    -0.205 F 
HETATM    9  C7  UNL     1      26.317   7.515  47.967  1.00  0.00     0.038 A 
HETATM   10  C8  UNL     1      25.317   7.689  47.046  1.00  0.00     0.036 A 
HETATM   11  C9  UNL     1      25.139   8.938  46.502  1.00  0.00     0.013 A 
HETATM   12 BR1  UNL     1      23.724   9.026  45.248  1.00  0.00    -0.051 Br
HETATM   13  C10 UNL     1      25.941   9.999  46.866  1.00  0.00     0.035 A 
HETATM   14  C11 UNL     1      26.963   9.893  47.788  1.00  0.00     0.029 A 
HETATM   15  C12 UNL     1      27.123   8.611  48.331  1.00  0.00     0.091 A 
HETATM   16  C13 UNL     1      27.839  11.007  48.134  1.00  0.00     0.079 C 
HETATM   17  N1  UNL     1      27.743  12.041  48.923  1.00  0.00    -0.241 NA
HETATM   18  C14 UNL     1      28.962  12.713  49.298  1.00  0.00     0.228 C 
HETATM   19  N2  UNL     1      30.169  12.393  48.927  1.00  0.00    -0.269 NA
HETATM   20  C15 UNL     1      30.363  11.681  47.645  1.00  0.00     0.208 C 
HETATM   21  C16 UNL     1      29.129  10.932  47.424  1.00  0.00    -0.002 C 
HETATM   22  C17 UNL     1      29.442  10.152  46.409  1.00  0.00     0.015 C 
HETATM   23  C18 UNL     1      30.757   9.696  45.906  1.00  0.00     0.304 C 
HETATM   24  N3  UNL     1      31.656   9.653  46.997  1.00  0.00     0.134 N 
HETATM   25  C19 UNL     1      31.634  10.911  47.683  1.00  0.00     0.481 C 
ENDROOT
BRANCH  25  26
HETATM   26  N4  UNL     1      32.635  11.743  46.983  1.00  0.00     0.115 N 
HETATM   27  H19 UNL     1      32.235  12.660  46.751  1.00  0.00     0.315 HD
HETATM   28  H20 UNL     1      33.446  11.810  47.638  1.00  0.00     0.315 HD
ENDBRANCH  25  26
BRANCH  15  29
HETATM   29  O2  UNL     1      28.177   8.602  49.269  1.00  0.00    -0.359 OA
HETATM   30  H12 UNL     1      28.958   8.006  48.996  1.00  0.00     0.217 HD
ENDBRANCH  15  29
TORSDOF 2
ENDMDL
MODEL 9
REMARK VINA RESULT:      -7.2     12.110     14.224
REMARK  2 active torsions:
REMARK  status: ('A' for Active; 'I' for Inactive)
REMARK    1  A    between atoms: C12_15  and  O2_16 
REMARK    2  A    between atoms: C19_26  and  N4_27 
ROOT
HETATM    1  C1  UNL     1      31.668   5.892  49.679  1.00  0.00     0.045 C 
HETATM    2  C2  UNL     1      31.187   5.431  48.326  1.00  0.00     0.245 C 
HETATM    3  C3  UNL     1      30.515   6.610  47.664  1.00  0.00     0.203 C 
HETATM    4  O1  UNL     1      29.598   7.253  48.455  1.00  0.00    -0.385 OA
HETATM    5  C4  UNL     1      29.030   8.403  47.987  1.00  0.00     0.198 C 
HETATM    6  C5  UNL     1      30.012   9.520  47.743  1.00  0.00     0.042 C 
HETATM    7  C6  UNL     1      30.750  10.671  47.712  1.00  0.00     0.127 C 
HETATM    8  F1  UNL     1      30.721  11.883  48.316  1.00  0.00    -0.205 F 
HETATM    9  C7  UNL     1      31.958  10.590  46.839  1.00  0.00     0.038 A 
HETATM   10  C8  UNL     1      32.353  11.165  45.659  1.00  0.00     0.036 A 
HETATM   11  C9  UNL     1      33.538  10.756  45.097  1.00  0.00     0.013 A 
HETATM   12 BR1  UNL     1      33.954  11.636  43.474  1.00  0.00    -0.051 Br
HETATM   13  C10 UNL     1      34.319   9.790  45.696  1.00  0.00     0.035 A 
HETATM   14  C11 UNL     1      33.981   9.172  46.883  1.00  0.00     0.029 A 
HETATM   15  C12 UNL     1      32.770   9.609  47.438  1.00  0.00     0.091 A 
HETATM   16  C13 UNL     1      34.787   8.117  47.487  1.00  0.00     0.079 C 
HETATM   17  N1  UNL     1      35.867   8.090  48.219  1.00  0.00    -0.241 NA
HETATM   18  C14 UNL     1      36.149   6.881  48.951  1.00  0.00     0.228 C 
HETATM   19  N2  UNL     1      35.430   5.796  48.961  1.00  0.00    -0.269 NA
HETATM   20  C15 UNL     1      34.578   5.486  47.792  1.00  0.00     0.208 C 
HETATM   21  C16 UNL     1      34.241   6.778  47.201  1.00  0.00    -0.002 C 
HETATM   22  C17 UNL     1      33.312   6.461  46.323  1.00  0.00     0.015 C 
HETATM   23  C18 UNL     1      32.417   5.285  46.239  1.00  0.00     0.304 C 
HETATM   24  N3  UNL     1      32.193   4.806  47.550  1.00  0.00     0.134 N 
HETATM   25  C19 UNL     1      33.451   4.609  48.208  1.00  0.00     0.481 C 
ENDROOT
BRANCH  25  26
HETATM   26  N4  UNL     1      33.855   3.233  47.851  1.00  0.00     0.115 N 
HETATM   27  H19 UNL     1      33.026   2.638  47.732  1.00  0.00     0.315 HD
HETATM   28  H20 UNL     1      34.414   3.326  46.973  1.00  0.00     0.315 HD
ENDBRANCH  25  26
BRANCH  15  29
HETATM   29  O2  UNL     1      32.515   8.935  48.652  1.00  0.00    -0.359 OA
HETATM   30  H12 UNL     1      33.286   8.991  49.316  1.00  0.00     0.217 HD
ENDBRANCH  15  29
TORSDOF 2
ENDMDL
