MODEL 1
REMARK VINA RESULT:      -7.0      0.000      0.000
REMARK  6 active torsions:
REMARK  status: ('A' for Active; 'I' for Inactive)
REMARK    1  A    between atoms: C2_2  and  N1_3 
REMARK    2  A    between atoms: N1_3  and  C4_5 
REMARK    3  A    between atoms: C4_5  and  C5_6 
REMARK    4  A    between atoms: C5_6  and  N2_7 
REMARK    5  A    between atoms: N2_7  and  C6_8 
REMARK    6  A    between atoms: C9_13  and  C10_14 
ROOT
HETATM    1  C6  UNL     1      24.061   4.068  50.582  1.00  0.00     0.046 C 
HETATM    2  C7  UNL     1      23.159   3.610  49.749  1.00  0.00     0.147 C 
HETATM    3  N3  UNL     1      22.447   2.776  48.853  1.00  0.00    -0.252 NA
HETATM    4  C8  UNL     1      21.969   1.618  49.267  1.00  0.00     0.233 C 
HETATM    5  N4  UNL     1      21.948   0.881  50.448  1.00  0.00    -0.240 NA
HETATM    6  C9  UNL     1      21.947   1.302  51.657  1.00  0.00     0.086 C 
HETATM    7  C16 UNL     1      21.951   2.706  52.020  1.00  0.00     0.315 C 
HETATM    8  N5  UNL     1      21.954   3.913  52.237  1.00  0.00    -0.394 NA
HETATM    9  C17 UNL     1      21.937   5.099  51.551  1.00  0.00     0.089 C 
HETATM   10  C18 UNL     1      23.127   5.178  52.106  1.00  0.00    -0.008 C 
HETATM   11  C19 UNL     1      24.096   5.349  51.247  1.00  0.00     0.044 C 
ENDROOT
BRANCH   1  12
HETATM   12  N2  UNL     1      24.719   2.826  50.386  1.00  0.00    -0.387 N 
HETATM   13  H13 UNL     1      24.401   2.002  49.797  1.00  0.00     0.159 HD
BRANCH  12  14
HETATM   14  C5  UNL     1      25.997   2.581  51.073  1.00  0.00     0.150 C 
BRANCH  14  15
HETATM   15  C4  UNL     1      25.820   2.224  52.507  1.00  0.00     0.291 C 
BRANCH  15  16
HETATM   16  N1  UNL     1      26.654   1.170  52.979  1.00  0.00     0.085 N 
HETATM   17  C3  UNL     1      28.009   1.660  53.192  1.00  0.00     0.309 C 
BRANCH  16  18
HETATM   18  C2  UNL     1      26.587   0.063  52.063  1.00  0.00     0.267 C 
HETATM   19  C1  UNL     1      27.146  -1.181  52.746  1.00  0.00     0.037 C 
ENDBRANCH  16  18
ENDBRANCH  15  16
ENDBRANCH  14  15
ENDBRANCH  12  14
ENDBRANCH   1  12
BRANCH   6  20
HETATM   20  C10 UNL     1      21.924   0.322  52.736  1.00  0.00    -0.004 A 
HETATM   21  C11 UNL     1      20.822  -0.396  53.144  1.00  0.00     0.014 A 
HETATM   22  C12 UNL     1      20.864  -1.303  54.167  1.00  0.00     0.003 A 
HETATM   23  C13 UNL     1      22.026  -1.546  54.847  1.00  0.00     0.024 A 
HETATM   24  C14 UNL     1      23.182  -0.856  54.491  1.00  0.00     0.035 A 
HETATM   25 CL1  UNL     1      24.705  -1.116  55.317  1.00  0.00    -0.084 Cl
HETATM   26  C15 UNL     1      23.063   0.042  53.450  1.00  0.00     0.037 A 
ENDBRANCH   6  20
TORSDOF 6
ENDMDL
MODEL 2
REMARK VINA RESULT:      -7.0      1.723      4.698
REMARK  6 active torsions:
REMARK  status: ('A' for Active; 'I' for Inactive)
REMARK    1  A    between atoms: C2_2  and  N1_3 
REMARK    2  A    between atoms: N1_3  and  C4_5 
REMARK    3  A    between atoms: C4_5  and  C5_6 
REMARK    4  A    between atoms: C5_6  and  N2_7 
REMARK    5  A    between atoms: N2_7  and  C6_8 
REMARK    6  A    between atoms: C9_13  and  C10_14 
ROOT
HETATM    1  C6  UNL     1      21.818   2.940  50.312  1.00  0.00     0.046 C 
HETATM    2  C7  UNL     1      22.165   3.941  51.083  1.00  0.00     0.147 C 
HETATM    3  N3  UNL     1      22.462   4.732  52.219  1.00  0.00    -0.252 NA
HETATM    4  C8  UNL     1      23.452   4.388  53.022  1.00  0.00     0.233 C 
HETATM    5  N4  UNL     1      24.401   3.372  53.102  1.00  0.00    -0.240 NA
HETATM    6  C9  UNL     1      24.954   2.713  52.154  1.00  0.00     0.086 C 
HETATM    7  C16 UNL     1      24.679   2.941  50.749  1.00  0.00     0.315 C 
HETATM    8  N5  UNL     1      24.389   3.201  49.586  1.00  0.00    -0.394 NA
HETATM    9  C17 UNL     1      23.600   4.065  48.873  1.00  0.00     0.089 C 
HETATM   10  C18 UNL     1      23.009   2.927  48.578  1.00  0.00    -0.008 C 
HETATM   11  C19 UNL     1      21.737   2.905  48.872  1.00  0.00     0.044 C 
ENDROOT
BRANCH   1  12
HETATM   12  N2  UNL     1      21.643   2.212  51.518  1.00  0.00    -0.387 N 
HETATM   13  H13 UNL     1      21.408   2.588  52.482  1.00  0.00     0.159 HD
BRANCH  12  14
HETATM   14  C5  UNL     1      21.813   0.750  51.498  1.00  0.00     0.150 C 
BRANCH  14  15
HETATM   15  C4  UNL     1      22.132   0.191  52.840  1.00  0.00     0.291 C 
BRANCH  15  16
HETATM   16  N1  UNL     1      21.235  -0.812  53.310  1.00  0.00     0.085 N 
HETATM   17  C3  UNL     1      19.901  -0.254  53.476  1.00  0.00     0.309 C 
BRANCH  16  18
HETATM   18  C2  UNL     1      21.762  -1.396  54.514  1.00  0.00     0.267 C 
HETATM   19  C1  UNL     1      23.218  -0.972  54.676  1.00  0.00     0.037 C 
ENDBRANCH  16  18
ENDBRANCH  15  16
ENDBRANCH  14  15
ENDBRANCH  12  14
ENDBRANCH   1  12
BRANCH   6  20
HETATM   20  C10 UNL     1      25.928   1.685  52.497  1.00  0.00    -0.004 A 
HETATM   21  C11 UNL     1      25.837   0.351  52.168  1.00  0.00     0.014 A 
HETATM   22  C12 UNL     1      26.787  -0.568  52.522  1.00  0.00     0.003 A 
HETATM   23  C13 UNL     1      27.895  -0.198  53.234  1.00  0.00     0.024 A 
HETATM   24  C14 UNL     1      28.055   1.135  53.604  1.00  0.00     0.035 A 
HETATM   25 CL1  UNL     1      29.448   1.679  54.516  1.00  0.00    -0.084 Cl
HETATM   26  C15 UNL     1      27.057   2.003  53.211  1.00  0.00     0.037 A 
ENDBRANCH   6  20
TORSDOF 6
ENDMDL
MODEL 3
REMARK VINA RESULT:      -6.9      3.364      6.210
REMARK  6 active torsions:
REMARK  status: ('A' for Active; 'I' for Inactive)
REMARK    1  A    between atoms: C2_2  and  N1_3 
REMARK    2  A    between atoms: N1_3  and  C4_5 
REMARK    3  A    between atoms: C4_5  and  C5_6 
REMARK    4  A    between atoms: C5_6  and  N2_7 
REMARK    5  A    between atoms: N2_7  and  C6_8 
REMARK    6  A    between atoms: C9_13  and  C10_14 
ROOT
HETATM    1  C6  UNL     1      22.522   2.573  51.388  1.00  0.00     0.046 C 
HETATM    2  C7  UNL     1      21.999   3.775  51.384  1.00  0.00     0.147 C 
HETATM    3  N3  UNL     1      21.767   5.148  51.637  1.00  0.00    -0.252 NA
HETATM    4  C8  UNL     1      22.657   6.048  51.260  1.00  0.00     0.233 C 
HETATM    5  N4  UNL     1      23.891   6.062  50.617  1.00  0.00    -0.240 NA
HETATM    6  C9  UNL     1      24.343   5.258  49.730  1.00  0.00     0.086 C 
HETATM    7  C16 UNL     1      23.590   4.138  49.201  1.00  0.00     0.315 C 
HETATM    8  N5  UNL     1      22.884   3.216  48.808  1.00  0.00    -0.394 NA
HETATM    9  C17 UNL     1      21.627   2.704  49.002  1.00  0.00     0.089 C 
HETATM   10  C18 UNL     1      22.349   1.712  49.477  1.00  0.00    -0.008 C 
HETATM   11  C19 UNL     1      22.053   1.390  50.707  1.00  0.00     0.044 C 
ENDROOT
BRANCH   1  12
HETATM   12  N2  UNL     1      23.508   3.121  52.250  1.00  0.00    -0.387 N 
HETATM   13  H13 UNL     1      23.586   4.118  52.606  1.00  0.00     0.159 HD
BRANCH  12  14
HETATM   14  C5  UNL     1      24.594   2.254  52.732  1.00  0.00     0.150 C 
BRANCH  14  15
HETATM   15  C4  UNL     1      25.640   2.016  51.700  1.00  0.00     0.291 C 
BRANCH  15  16
HETATM   16  N1  UNL     1      26.855   1.451  52.185  1.00  0.00     0.085 N 
HETATM   17  C3  UNL     1      26.800  -0.002  52.106  1.00  0.00     0.309 C 
BRANCH  16  18
HETATM   18  C2  UNL     1      27.111   1.939  53.514  1.00  0.00     0.267 C 
HETATM   19  C1  UNL     1      28.565   2.389  53.606  1.00  0.00     0.037 C 
ENDBRANCH  16  18
ENDBRANCH  15  16
ENDBRANCH  14  15
ENDBRANCH  12  14
ENDBRANCH   1  12
BRANCH   6  20
HETATM   20  C10 UNL     1      25.684   5.484  49.204  1.00  0.00    -0.004 A 
HETATM   21  C11 UNL     1      26.673   4.533  49.092  1.00  0.00     0.014 A 
HETATM   22  C12 UNL     1      27.915   4.809  48.591  1.00  0.00     0.003 A 
HETATM   23  C13 UNL     1      28.241   6.068  48.167  1.00  0.00     0.024 A 
HETATM   24  C14 UNL     1      27.291   7.083  48.250  1.00  0.00     0.035 A 
HETATM   25 CL1  UNL     1      27.638   8.718  47.726  1.00  0.00    -0.084 Cl
HETATM   26  C15 UNL     1      26.062   6.730  48.766  1.00  0.00     0.037 A 
ENDBRANCH   6  20
TORSDOF 6
ENDMDL
MODEL 4
REMARK VINA RESULT:      -6.8      1.653      4.758
REMARK  6 active torsions:
REMARK  status: ('A' for Active; 'I' for Inactive)
REMARK    1  A    between atoms: C2_2  and  N1_3 
REMARK    2  A    between atoms: N1_3  and  C4_5 
REMARK    3  A    between atoms: C4_5  and  C5_6 
REMARK    4  A    between atoms: C5_6  and  N2_7 
REMARK    5  A    between atoms: N2_7  and  C6_8 
REMARK    6  A    between atoms: C9_13  and  C10_14 
ROOT
HETATM    1  C6  UNL     1      21.205   3.475  50.288  1.00  0.00     0.046 C 
HETATM    2  C7  UNL     1      21.865   4.423  50.906  1.00  0.00     0.147 C 
HETATM    3  N3  UNL     1      22.456   5.220  51.916  1.00  0.00    -0.252 NA
HETATM    4  C8  UNL     1      23.392   4.712  52.695  1.00  0.00     0.233 C 
HETATM    5  N4  UNL     1      24.051   3.495  52.846  1.00  0.00    -0.240 NA
HETATM    6  C9  UNL     1      24.328   2.617  51.956  1.00  0.00     0.086 C 
HETATM    7  C16 UNL     1      23.997   2.761  50.553  1.00  0.00     0.315 C 
HETATM    8  N5  UNL     1      23.681   2.966  49.386  1.00  0.00    -0.394 NA
HETATM    9  C17 UNL     1      23.081   3.929  48.618  1.00  0.00     0.089 C 
HETATM   10  C18 UNL     1      22.193   2.965  48.502  1.00  0.00    -0.008 C 
HETATM   11  C19 UNL     1      20.990   3.313  48.870  1.00  0.00     0.044 C 
ENDROOT
BRANCH   1  12
HETATM   12  N2  UNL     1      20.957   2.950  51.583  1.00  0.00    -0.387 N 
HETATM   13  H13 UNL     1      20.954   3.467  52.510  1.00  0.00     0.159 HD
BRANCH  12  14
HETATM   14  C5  UNL     1      20.680   1.512  51.728  1.00  0.00     0.150 C 
BRANCH  14  15
HETATM   15  C4  UNL     1      21.022   0.994  53.080  1.00  0.00     0.291 C 
BRANCH  15  16
HETATM   16  N1  UNL     1      20.129   0.012  53.599  1.00  0.00     0.085 N 
HETATM   17  C3  UNL     1      20.874  -1.154  54.054  1.00  0.00     0.309 C 
BRANCH  16  18
HETATM   18  C2  UNL     1      19.135  -0.299  52.608  1.00  0.00     0.267 C 
HETATM   19  C1  UNL     1      18.115  -1.258  53.211  1.00  0.00     0.037 C 
ENDBRANCH  16  18
ENDBRANCH  15  16
ENDBRANCH  14  15
ENDBRANCH  12  14
ENDBRANCH   1  12
BRANCH   6  20
HETATM   20  C10 UNL     1      25.032   1.408  52.367  1.00  0.00    -0.004 A 
HETATM   21  C11 UNL     1      26.119   0.856  51.728  1.00  0.00     0.014 A 
HETATM   22  C12 UNL     1      26.737  -0.284  52.163  1.00  0.00     0.003 A 
HETATM   23  C13 UNL     1      26.295  -0.944  53.278  1.00  0.00     0.024 A 
HETATM   24  C14 UNL     1      25.199  -0.445  53.976  1.00  0.00     0.035 A 
HETATM   25 CL1  UNL     1      24.579  -1.237  55.411  1.00  0.00    -0.084 Cl
HETATM   26  C15 UNL     1      24.629   0.708  53.478  1.00  0.00     0.037 A 
ENDBRANCH   6  20
TORSDOF 6
ENDMDL
MODEL 5
REMARK VINA RESULT:      -6.8      1.469      2.041
REMARK  6 active torsions:
REMARK  status: ('A' for Active; 'I' for Inactive)
REMARK    1  A    between atoms: C2_2  and  N1_3 
REMARK    2  A    between atoms: N1_3  and  C4_5 
REMARK    3  A    between atoms: C4_5  and  C5_6 
REMARK    4  A    between atoms: C5_6  and  N2_7 
REMARK    5  A    between atoms: N2_7  and  C6_8 
REMARK    6  A    between atoms: C9_13  and  C10_14 
ROOT
HETATM    1  C6  UNL     1      24.060   4.116  50.729  1.00  0.00     0.046 C 
HETATM    2  C7  UNL     1      23.312   3.689  49.742  1.00  0.00     0.147 C 
HETATM    3  N3  UNL     1      22.757   2.884  48.718  1.00  0.00    -0.252 NA
HETATM    4  C8  UNL     1      22.197   1.727  49.018  1.00  0.00     0.233 C 
HETATM    5  N4  UNL     1      21.958   0.970  50.161  1.00  0.00    -0.240 NA
HETATM    6  C9  UNL     1      21.751   1.369  51.360  1.00  0.00     0.086 C 
HETATM    7  C16 UNL     1      21.712   2.766  51.747  1.00  0.00     0.315 C 
HETATM    8  N5  UNL     1      21.693   3.968  51.986  1.00  0.00    -0.394 NA
HETATM    9  C17 UNL     1      21.814   5.167  51.333  1.00  0.00     0.089 C 
HETATM   10  C18 UNL     1      22.890   5.215  52.089  1.00  0.00    -0.008 C 
HETATM   11  C19 UNL     1      23.997   5.383  51.417  1.00  0.00     0.044 C 
ENDROOT
BRANCH   1  12
HETATM   12  N2  UNL     1      24.724   2.865  50.626  1.00  0.00    -0.387 N 
HETATM   13  H13 UNL     1      24.852   2.261  49.763  1.00  0.00     0.159 HD
BRANCH  12  14
HETATM   14  C5  UNL     1      25.315   2.271  51.836  1.00  0.00     0.150 C 
BRANCH  14  15
HETATM   15  C4  UNL     1      26.783   2.060  51.713  1.00  0.00     0.291 C 
BRANCH  15  16
HETATM   16  N1  UNL     1      27.288   0.903  52.374  1.00  0.00     0.085 N 
HETATM   17  C3  UNL     1      26.296  -0.163  52.349  1.00  0.00     0.309 C 
BRANCH  16  18
HETATM   18  C2  UNL     1      27.709   1.258  53.703  1.00  0.00     0.267 C 
HETATM   19  C1  UNL     1      28.617   2.480  53.626  1.00  0.00     0.037 C 
ENDBRANCH  16  18
ENDBRANCH  15  16
ENDBRANCH  14  15
ENDBRANCH  12  14
ENDBRANCH   1  12
BRANCH   6  20
HETATM   20  C10 UNL     1      21.524   0.370  52.397  1.00  0.00    -0.004 A 
HETATM   21  C11 UNL     1      22.482  -0.134  53.248  1.00  0.00     0.014 A 
HETATM   22  C12 UNL     1      22.206  -1.075  54.202  1.00  0.00     0.003 A 
HETATM   23  C13 UNL     1      20.940  -1.569  54.361  1.00  0.00     0.024 A 
HETATM   24  C14 UNL     1      19.919  -1.105  53.535  1.00  0.00     0.035 A 
HETATM   25 CL1  UNL     1      18.275  -1.693  53.681  1.00  0.00    -0.084 Cl
HETATM   26  C15 UNL     1      20.272  -0.158  52.597  1.00  0.00     0.037 A 
ENDBRANCH   6  20
TORSDOF 6
ENDMDL
MODEL 6
REMARK VINA RESULT:      -6.4      2.620      5.256
REMARK  6 active torsions:
REMARK  status: ('A' for Active; 'I' for Inactive)
REMARK    1  A    between atoms: C2_2  and  N1_3 
REMARK    2  A    between atoms: N1_3  and  C4_5 
REMARK    3  A    between atoms: C4_5  and  C5_6 
REMARK    4  A    between atoms: C5_6  and  N2_7 
REMARK    5  A    between atoms: N2_7  and  C6_8 
REMARK    6  A    between atoms: C9_13  and  C10_14 
ROOT
HETATM    1  C6  UNL     1      21.270   3.967  49.840  1.00  0.00     0.046 C 
HETATM    2  C7  UNL     1      22.523   4.125  50.188  1.00  0.00     0.147 C 
HETATM    3  N3  UNL     1      23.695   4.375  50.944  1.00  0.00    -0.252 NA
HETATM    4  C8  UNL     1      24.003   3.592  51.961  1.00  0.00     0.233 C 
HETATM    5  N4  UNL     1      23.470   2.471  52.590  1.00  0.00    -0.240 NA
HETATM    6  C9  UNL     1      22.773   1.523  52.085  1.00  0.00     0.086 C 
HETATM    7  C16 UNL     1      22.415   1.447  50.683  1.00  0.00     0.315 C 
HETATM    8  N5  UNL     1      22.159   1.460  49.483  1.00  0.00    -0.394 NA
HETATM    9  C17 UNL     1      22.407   2.218  48.369  1.00  0.00     0.089 C 
HETATM   10  C18 UNL     1      21.105   2.382  48.467  1.00  0.00    -0.008 C 
HETATM   11  C19 UNL     1      20.738   3.633  48.541  1.00  0.00     0.044 C 
ENDROOT
BRANCH   1  12
HETATM   12  N2  UNL     1      20.967   4.272  51.193  1.00  0.00    -0.387 N 
HETATM   13  H13 UNL     1      21.475   4.938  51.844  1.00  0.00     0.159 HD
BRANCH  12  14
HETATM   14  C5  UNL     1      19.827   3.599  51.836  1.00  0.00     0.150 C 
BRANCH  14  15
HETATM   15  C4  UNL     1      18.523   3.963  51.218  1.00  0.00     0.291 C 
BRANCH  15  16
HETATM   16  N1  UNL     1      17.715   2.862  50.809  1.00  0.00     0.085 N 
HETATM   17  C3  UNL     1      16.325   3.096  51.177  1.00  0.00     0.309 C 
BRANCH  16  18
HETATM   18  C2  UNL     1      18.253   1.647  51.360  1.00  0.00     0.267 C 
HETATM   19  C1  UNL     1      18.344   0.600  50.255  1.00  0.00     0.037 C 
ENDBRANCH  16  18
ENDBRANCH  15  16
ENDBRANCH  14  15
ENDBRANCH  12  14
ENDBRANCH   1  12
BRANCH   6  20
HETATM   20  C10 UNL     1      22.325   0.447  52.960  1.00  0.00    -0.004 A 
HETATM   21  C11 UNL     1      23.106  -0.220  53.877  1.00  0.00     0.014 A 
HETATM   22  C12 UNL     1      22.626  -1.226  54.670  1.00  0.00     0.003 A 
HETATM   23  C13 UNL     1      21.319  -1.624  54.590  1.00  0.00     0.024 A 
HETATM   24  C14 UNL     1      20.469  -0.996  53.685  1.00  0.00     0.035 A 
HETATM   25 CL1  UNL     1      18.785  -1.454  53.528  1.00  0.00    -0.084 Cl
HETATM   26  C15 UNL     1      21.024   0.009  52.919  1.00  0.00     0.037 A 
ENDBRANCH   6  20
TORSDOF 6
ENDMDL
MODEL 7
REMARK VINA RESULT:      -6.3      9.083     12.030
REMARK  6 active torsions:
REMARK  status: ('A' for Active; 'I' for Inactive)
REMARK    1  A    between atoms: C2_2  and  N1_3 
REMARK    2  A    between atoms: N1_3  and  C4_5 
REMARK    3  A    between atoms: C4_5  and  C5_6 
REMARK    4  A    between atoms: C5_6  and  N2_7 
REMARK    5  A    between atoms: N2_7  and  C6_8 
REMARK    6  A    between atoms: C9_13  and  C10_14 
ROOT
HETATM    1  C6  UNL     1      34.469   4.655  46.324  1.00  0.00     0.046 C 
HETATM    2  C7  UNL     1      34.872   5.142  47.472  1.00  0.00     0.147 C 
HETATM    3  N3  UNL     1      35.199   6.035  48.520  1.00  0.00    -0.252 NA
HETATM    4  C8  UNL     1      34.258   6.779  49.072  1.00  0.00     0.233 C 
HETATM    5  N4  UNL     1      32.888   6.976  48.922  1.00  0.00    -0.240 NA
HETATM    6  C9  UNL     1      31.994   6.142  48.545  1.00  0.00     0.086 C 
HETATM    7  C16 UNL     1      32.274   4.761  48.207  1.00  0.00     0.315 C 
HETATM    8  N5  UNL     1      32.599   3.608  47.940  1.00  0.00    -0.394 NA
HETATM    9  C17 UNL     1      33.715   2.814  47.923  1.00  0.00     0.089 C 
HETATM   10  C18 UNL     1      33.443   2.845  46.637  1.00  0.00    -0.008 C 
HETATM   11  C19 UNL     1      34.432   3.275  45.901  1.00  0.00     0.044 C 
ENDROOT
BRANCH   1  12
HETATM   12  N2  UNL     1      34.213   6.003  45.963  1.00  0.00    -0.387 N 
HETATM   13  H13 UNL     1      34.669   6.882  46.346  1.00  0.00     0.159 HD
BRANCH  12  14
HETATM   14  C5  UNL     1      33.186   6.285  44.948  1.00  0.00     0.150 C 
BRANCH  14  15
HETATM   15  C4  UNL     1      33.273   7.672  44.414  1.00  0.00     0.291 C 
BRANCH  15  16
HETATM   16  N1  UNL     1      32.114   8.476  44.619  1.00  0.00     0.085 N 
HETATM   17  C3  UNL     1      32.397   9.527  45.586  1.00  0.00     0.309 C 
BRANCH  16  18
HETATM   18  C2  UNL     1      31.011   7.635  44.999  1.00  0.00     0.267 C 
HETATM   19  C1  UNL     1      29.749   8.484  45.096  1.00  0.00     0.037 C 
ENDBRANCH  16  18
ENDBRANCH  15  16
ENDBRANCH  14  15
ENDBRANCH  12  14
ENDBRANCH   1  12
BRANCH   6  20
HETATM   20  C10 UNL     1      30.610   6.594  48.466  1.00  0.00    -0.004 A 
HETATM   21  C11 UNL     1      29.531   5.816  48.110  1.00  0.00     0.014 A 
HETATM   22  C12 UNL     1      28.253   6.301  48.052  1.00  0.00     0.003 A 
HETATM   23  C13 UNL     1      27.980   7.607  48.352  1.00  0.00     0.024 A 
HETATM   24  C14 UNL     1      29.022   8.454  48.721  1.00  0.00     0.035 A 
HETATM   25 CL1  UNL     1      28.746  10.138  49.119  1.00  0.00    -0.084 Cl
HETATM   26  C15 UNL     1      30.282   7.895  48.757  1.00  0.00     0.037 A 
ENDBRANCH   6  20
TORSDOF 6
ENDMDL
MODEL 8
REMARK VINA RESULT:      -6.3      3.663      6.597
REMARK  6 active torsions:
REMARK  status: ('A' for Active; 'I' for Inactive)
REMARK    1  A    between atoms: C2_2  and  N1_3 
REMARK    2  A    between atoms: N1_3  and  C4_5 
REMARK    3  A    between atoms: C4_5  and  C5_6 
REMARK    4  A    between atoms: C5_6  and  N2_7 
REMARK    5  A    between atoms: N2_7  and  C6_8 
REMARK    6  A    between atoms: C9_13  and  C10_14 
ROOT
HETATM    1  C6  UNL     1      22.013   2.733  49.561  1.00  0.00     0.046 C 
HETATM    2  C7  UNL     1      21.755   3.833  50.224  1.00  0.00     0.147 C 
HETATM    3  N3  UNL     1      21.808   4.882  51.173  1.00  0.00    -0.252 NA
HETATM    4  C8  UNL     1      22.881   5.647  51.252  1.00  0.00     0.233 C 
HETATM    5  N4  UNL     1      24.116   5.749  50.618  1.00  0.00    -0.240 NA
HETATM    6  C9  UNL     1      24.423   5.460  49.409  1.00  0.00     0.086 C 
HETATM    7  C16 UNL     1      23.473   4.963  48.434  1.00  0.00     0.315 C 
HETATM    8  N5  UNL     1      22.604   4.548  47.674  1.00  0.00    -0.394 NA
HETATM    9  C17 UNL     1      21.262   4.274  47.670  1.00  0.00     0.089 C 
HETATM   10  C18 UNL     1      21.738   3.059  47.500  1.00  0.00    -0.008 C 
HETATM   11  C19 UNL     1      21.333   2.206  48.401  1.00  0.00     0.044 C 
ENDROOT
BRANCH   1  12
HETATM   12  N2  UNL     1      23.056   2.536  50.502  1.00  0.00    -0.387 N 
HETATM   13  H13 UNL     1      23.848   3.198  50.750  1.00  0.00     0.159 HD
BRANCH  12  14
HETATM   14  C5  UNL     1      23.112   1.269  51.249  1.00  0.00     0.150 C 
BRANCH  14  15
HETATM   15  C4  UNL     1      22.933   1.458  52.714  1.00  0.00     0.291 C 
BRANCH  15  16
HETATM   16  N1  UNL     1      23.362   0.366  53.525  1.00  0.00     0.085 N 
HETATM   17  C3  UNL     1      24.742   0.020  53.211  1.00  0.00     0.309 C 
BRANCH  16  18
HETATM   18  C2  UNL     1      22.449  -0.733  53.365  1.00  0.00     0.267 C 
HETATM   19  C1  UNL     1      21.831  -1.065  54.718  1.00  0.00     0.037 C 
ENDBRANCH  16  18
ENDBRANCH  15  16
ENDBRANCH  14  15
ENDBRANCH  12  14
ENDBRANCH   1  12
BRANCH   6  20
HETATM   20  C10 UNL     1      25.801   5.656  48.976  1.00  0.00    -0.004 A 
HETATM   21  C11 UNL     1      26.791   4.698  48.991  1.00  0.00     0.014 A 
HETATM   22  C12 UNL     1      28.069   4.945  48.572  1.00  0.00     0.003 A 
HETATM   23  C13 UNL     1      28.434   6.179  48.108  1.00  0.00     0.024 A 
HETATM   24  C14 UNL     1      27.486   7.198  48.064  1.00  0.00     0.035 A 
HETATM   25 CL1  UNL     1      27.882   8.803  47.482  1.00  0.00    -0.084 Cl
HETATM   26  C15 UNL     1      26.219   6.876  48.502  1.00  0.00     0.037 A 
ENDBRANCH   6  20
TORSDOF 6
ENDMDL
MODEL 9
REMARK VINA RESULT:      -6.2      2.125      3.684
REMARK  6 active torsions:
REMARK  status: ('A' for Active; 'I' for Inactive)
REMARK    1  A    between atoms: C2_2  and  N1_3 
REMARK    2  A    between atoms: N1_3  and  C4_5 
REMARK    3  A    between atoms: C4_5  and  C5_6 
REMARK    4  A    between atoms: C5_6  and  N2_7 
REMARK    5  A    between atoms: N2_7  and  C6_8 
REMARK    6  A    between atoms: C9_13  and  C10_14 
ROOT
HETATM    1  C6  UNL     1      19.555   3.757  50.417  1.00  0.00     0.046 C 
HETATM    2  C7  UNL     1      19.872   2.900  49.478  1.00  0.00     0.147 C 
HETATM    3  N3  UNL     1      20.610   2.068  48.601  1.00  0.00    -0.252 NA
HETATM    4  C8  UNL     1      21.357   1.095  49.086  1.00  0.00     0.233 C 
HETATM    5  N4  UNL     1      21.679   0.576  50.337  1.00  0.00    -0.240 NA
HETATM    6  C9  UNL     1      20.968   0.547  51.401  1.00  0.00     0.086 C 
HETATM    7  C16 UNL     1      19.617   1.066  51.480  1.00  0.00     0.315 C 
HETATM    8  N5  UNL     1      18.481   1.529  51.458  1.00  0.00    -0.394 NA
HETATM    9  C17 UNL     1      17.607   2.115  50.581  1.00  0.00     0.089 C 
HETATM   10  C18 UNL     1      17.809   3.122  51.404  1.00  0.00    -0.008 C 
HETATM   11  C19 UNL     1      18.241   4.204  50.814  1.00  0.00     0.044 C 
ENDROOT
BRANCH   1  12
HETATM   12  N2  UNL     1      20.952   3.868  50.639  1.00  0.00    -0.387 N 
HETATM   13  H13 UNL     1      21.714   3.175  50.382  1.00  0.00     0.159 HD
BRANCH  12  14
HETATM   14  C5  UNL     1      21.471   5.064  51.323  1.00  0.00     0.150 C 
BRANCH  14  15
HETATM   15  C4  UNL     1      22.958   5.104  51.360  1.00  0.00     0.291 C 
BRANCH  15  16
HETATM   16  N1  UNL     1      23.600   3.832  51.391  1.00  0.00     0.085 N 
HETATM   17  C3  UNL     1      23.916   3.463  52.764  1.00  0.00     0.309 C 
BRANCH  16  18
HETATM   18  C2  UNL     1      24.751   3.857  50.530  1.00  0.00     0.267 C 
HETATM   19  C1  UNL     1      24.367   4.511  49.207  1.00  0.00     0.037 C 
ENDBRANCH  16  18
ENDBRANCH  15  16
ENDBRANCH  14  15
ENDBRANCH  12  14
ENDBRANCH   1  12
BRANCH   6  20
HETATM   20  C10 UNL     1      21.535  -0.057  52.601  1.00  0.00    -0.004 A 
HETATM   21  C11 UNL     1      20.820  -0.668  53.606  1.00  0.00     0.014 A 
HETATM   22  C12 UNL     1      21.412  -1.216  54.711  1.00  0.00     0.003 A 
HETATM   23  C13 UNL     1      22.770  -1.184  54.873  1.00  0.00     0.024 A 
HETATM   24  C14 UNL     1      23.559  -0.582  53.896  1.00  0.00     0.035 A 
HETATM   25 CL1  UNL     1      25.304  -0.503  54.037  1.00  0.00    -0.084 Cl
HETATM   26  C15 UNL     1      22.892  -0.051  52.811  1.00  0.00     0.037 A 
ENDBRANCH   6  20
TORSDOF 6
ENDMDL
