MODEL 1
REMARK VINA RESULT:      -8.2      0.000      0.000
REMARK  3 active torsions:
REMARK  status: ('A' for Active; 'I' for Inactive)
REMARK    1  A    between atoms: C6_7  and  O1_8 
REMARK    2  A    between atoms: C7_9  and  O2_10 
REMARK    3  A    between atoms: C10_13  and  C11_14 
ROOT
HETATM    1  N1  UNL     1      19.931   2.485  52.622  1.00  0.00    -0.191 NA
HETATM    2  C1  UNL     1      20.853   1.748  52.709  1.00  0.00     0.103 C 
HETATM    3  C2  UNL     1      21.967   0.826  52.823  1.00  0.00     0.086 C 
HETATM    4  C3  UNL     1      22.485   1.177  51.671  1.00  0.00     0.000 C 
HETATM    5  C4  UNL     1      22.465   1.982  50.462  1.00  0.00     0.037 C 
HETATM    6  C5  UNL     1      23.725   2.659  50.189  1.00  0.00     0.118 C 
HETATM    7  C6  UNL     1      24.995   2.986  50.340  1.00  0.00     0.090 C 
HETATM    8  C7  UNL     1      26.343   3.002  50.899  1.00  0.00     0.069 C 
HETATM    9  C8  UNL     1      26.887   2.335  51.940  1.00  0.00     0.008 C 
HETATM   10  C9  UNL     1      26.165   1.383  52.793  1.00  0.00     0.039 C 
HETATM   11  C10 UNL     1      26.516  -0.059  52.593  1.00  0.00     0.025 C 
HETATM   12  C12 UNL     1      25.424  -0.903  53.105  1.00  0.00    -0.024 C 
HETATM   13  C13 UNL     1      24.329  -0.739  53.828  1.00  0.00    -0.022 C 
HETATM   14  C14 UNL     1      23.080  -0.805  54.598  1.00  0.00     0.111 C 
HETATM   15  C15 UNL     1      22.001   0.085  54.070  1.00  0.00     0.173 C 
HETATM   16  O3  UNL     1      21.043   0.142  54.876  1.00  0.00    -0.291 OA
ENDROOT
BRANCH   7  17
HETATM   17  O1  UNL     1      24.695   3.804  49.229  1.00  0.00    -0.388 OA
HETATM   18  H5  UNL     1      25.396   4.493  49.003  1.00  0.00     0.210 HD
ENDBRANCH   7  17
BRANCH   8  19
HETATM   19  O2  UNL     1      27.185   3.864  50.216  1.00  0.00    -0.363 OA
HETATM   20  H6  UNL     1      28.097   4.121  50.573  1.00  0.00     0.217 HD
ENDBRANCH   8  19
BRANCH  11  21
HETATM   21  C11 UNL     1      27.852  -0.450  53.085  1.00  0.00     0.123 C 
HETATM   22 CL1  UNL     1      28.112   0.170  54.751  1.00  0.00    -0.130 Cl
ENDBRANCH  11  21
TORSDOF 3
ENDMDL
MODEL 2
REMARK VINA RESULT:      -7.8      3.116      5.236
REMARK  3 active torsions:
REMARK  status: ('A' for Active; 'I' for Inactive)
REMARK    1  A    between atoms: C6_7  and  O1_8 
REMARK    2  A    between atoms: C7_9  and  O2_10 
REMARK    3  A    between atoms: C10_13  and  C11_14 
ROOT
HETATM    1  N1  UNL     1      25.295  -1.077  56.226  1.00  0.00    -0.191 NA
HETATM    2  C1  UNL     1      25.603  -0.513  55.232  1.00  0.00     0.103 C 
HETATM    3  C2  UNL     1      26.003   0.166  54.013  1.00  0.00     0.086 C 
HETATM    4  C3  UNL     1      24.851  -0.039  53.422  1.00  0.00     0.000 C 
HETATM    5  C4  UNL     1      23.499  -0.569  53.423  1.00  0.00     0.037 C 
HETATM    6  C5  UNL     1      22.491   0.399  53.017  1.00  0.00     0.118 C 
HETATM    7  C6  UNL     1      22.001   1.539  52.563  1.00  0.00     0.090 C 
HETATM    8  C7  UNL     1      21.977   2.901  52.041  1.00  0.00     0.069 C 
HETATM    9  C8  UNL     1      22.973   3.766  51.749  1.00  0.00     0.008 C 
HETATM   10  C9  UNL     1      24.404   3.481  51.921  1.00  0.00     0.039 C 
HETATM   11  C10 UNL     1      25.174   3.259  50.657  1.00  0.00     0.025 C 
HETATM   12  C12 UNL     1      26.409   2.519  50.961  1.00  0.00    -0.024 C 
HETATM   13  C13 UNL     1      27.084   2.160  52.040  1.00  0.00    -0.022 C 
HETATM   14  C14 UNL     1      27.993   1.653  53.077  1.00  0.00     0.111 C 
HETATM   15  C15 UNL     1      27.332   0.746  54.065  1.00  0.00     0.173 C 
HETATM   16  O3  UNL     1      28.096   0.514  55.030  1.00  0.00    -0.291 OA
ENDROOT
BRANCH   7  17
HETATM   17  O1  UNL     1      20.785   0.858  52.782  1.00  0.00    -0.388 OA
HETATM   18  H5  UNL     1      20.696   0.417  53.685  1.00  0.00     0.210 HD
ENDBRANCH   7  17
BRANCH   8  19
HETATM   19  O2  UNL     1      20.687   3.355  51.817  1.00  0.00    -0.363 OA
HETATM   20  H6  UNL     1      20.464   4.341  51.766  1.00  0.00     0.217 HD
ENDBRANCH   8  19
BRANCH  11  21
HETATM   21  C11 UNL     1      25.392   4.469  49.837  1.00  0.00     0.123 C 
HETATM   22 CL1  UNL     1      26.995   4.398  49.030  1.00  0.00    -0.130 Cl
ENDBRANCH  11  21
TORSDOF 3
ENDMDL
MODEL 3
REMARK VINA RESULT:      -7.5      2.090      2.860
REMARK  3 active torsions:
REMARK  status: ('A' for Active; 'I' for Inactive)
REMARK    1  A    between atoms: C6_7  and  O1_8 
REMARK    2  A    between atoms: C7_9  and  O2_10 
REMARK    3  A    between atoms: C10_13  and  C11_14 
ROOT
HETATM    1  N1  UNL     1      21.411   5.395  50.202  1.00  0.00    -0.191 NA
HETATM    2  C1  UNL     1      21.625   4.330  50.670  1.00  0.00     0.103 C 
HETATM    3  C2  UNL     1      21.863   3.016  51.239  1.00  0.00     0.086 C 
HETATM    4  C3  UNL     1      23.018   2.871  50.635  1.00  0.00     0.000 C 
HETATM    5  C4  UNL     1      24.063   3.368  49.758  1.00  0.00     0.037 C 
HETATM    6  C5  UNL     1      25.397   3.289  50.334  1.00  0.00     0.118 C 
HETATM    7  C6  UNL     1      26.335   2.978  51.210  1.00  0.00     0.090 C 
HETATM    8  C7  UNL     1      26.948   2.429  52.416  1.00  0.00     0.069 C 
HETATM    9  C8  UNL     1      26.417   1.768  53.468  1.00  0.00     0.008 C 
HETATM   10  C9  UNL     1      24.992   1.447  53.621  1.00  0.00     0.039 C 
HETATM   11  C10 UNL     1      24.631   0.007  53.432  1.00  0.00     0.025 C 
HETATM   12  C12 UNL     1      23.197  -0.100  53.118  1.00  0.00    -0.024 C 
HETATM   13  C13 UNL     1      22.140   0.694  53.129  1.00  0.00    -0.022 C 
HETATM   14  C14 UNL     1      20.840   1.376  53.059  1.00  0.00     0.111 C 
HETATM   15  C15 UNL     1      20.837   2.575  52.166  1.00  0.00     0.173 C 
HETATM   16  O3  UNL     1      19.776   3.225  52.305  1.00  0.00    -0.291 OA
ENDROOT
BRANCH   7  17
HETATM   17  O1  UNL     1      27.143   3.638  50.260  1.00  0.00    -0.388 OA
HETATM   18  H5  UNL     1      27.454   3.066  49.490  1.00  0.00     0.210 HD
ENDBRANCH   7  17
BRANCH   8  19
HETATM   19  O2  UNL     1      28.316   2.644  52.455  1.00  0.00    -0.363 OA
HETATM   20  H6  UNL     1      28.976   1.889  52.591  1.00  0.00     0.217 HD
ENDBRANCH   8  19
BRANCH  11  21
HETATM   21  C11 UNL     1      25.073  -0.896  54.514  1.00  0.00     0.123 C 
HETATM   22 CL1  UNL     1      23.697  -1.290  55.600  1.00  0.00    -0.130 Cl
ENDBRANCH  11  21
TORSDOF 3
ENDMDL
MODEL 4
REMARK VINA RESULT:      -7.5      3.052      4.523
REMARK  3 active torsions:
REMARK  status: ('A' for Active; 'I' for Inactive)
REMARK    1  A    between atoms: C6_7  and  O1_8 
REMARK    2  A    between atoms: C7_9  and  O2_10 
REMARK    3  A    between atoms: C10_13  and  C11_14 
ROOT
HETATM    1  N1  UNL     1      22.354  -1.612  55.446  1.00  0.00    -0.191 NA
HETATM    2  C1  UNL     1      23.011  -1.068  54.627  1.00  0.00     0.103 C 
HETATM    3  C2  UNL     1      23.835  -0.420  53.622  1.00  0.00     0.086 C 
HETATM    4  C3  UNL     1      22.811  -0.106  52.865  1.00  0.00     0.000 C 
HETATM    5  C4  UNL     1      21.384  -0.100  52.598  1.00  0.00     0.037 C 
HETATM    6  C5  UNL     1      20.856   1.215  52.268  1.00  0.00     0.118 C 
HETATM    7  C6  UNL     1      20.873   2.506  51.988  1.00  0.00     0.090 C 
HETATM    8  C7  UNL     1      21.408   3.841  51.742  1.00  0.00     0.069 C 
HETATM    9  C8  UNL     1      22.673   4.314  51.750  1.00  0.00     0.008 C 
HETATM   10  C9  UNL     1      23.865   3.506  52.037  1.00  0.00     0.039 C 
HETATM   11  C10 UNL     1      24.734   3.195  50.857  1.00  0.00     0.025 C 
HETATM   12  C12 UNL     1      25.568   2.021  51.160  1.00  0.00    -0.024 C 
HETATM   13  C13 UNL     1      25.870   1.294  52.223  1.00  0.00    -0.022 C 
HETATM   14  C14 UNL     1      26.347   0.352  53.245  1.00  0.00     0.111 C 
HETATM   15  C15 UNL     1      25.248  -0.379  53.948  1.00  0.00     0.173 C 
HETATM   16  O3  UNL     1      25.697  -1.005  54.936  1.00  0.00    -0.291 OA
ENDROOT
BRANCH   7  17
HETATM   17  O1  UNL     1      19.480   2.293  51.919  1.00  0.00    -0.388 OA
HETATM   18  H5  UNL     1      18.983   2.416  52.788  1.00  0.00     0.210 HD
ENDBRANCH   7  17
BRANCH   8  19
HETATM   19  O2  UNL     1      20.413   4.761  51.455  1.00  0.00    -0.363 OA
HETATM   20  H6  UNL     1      20.557   5.759  51.549  1.00  0.00     0.217 HD
ENDBRANCH   8  19
BRANCH  11  21
HETATM   21  C11 UNL     1      25.495   4.343  50.322  1.00  0.00     0.123 C 
HETATM   22 CL1  UNL     1      26.867   3.769  49.314  1.00  0.00    -0.130 Cl
ENDBRANCH  11  21
TORSDOF 3
ENDMDL
MODEL 5
REMARK VINA RESULT:      -7.4      1.770      4.826
REMARK  3 active torsions:
REMARK  status: ('A' for Active; 'I' for Inactive)
REMARK    1  A    between atoms: C6_7  and  O1_8 
REMARK    2  A    between atoms: C7_9  and  O2_10 
REMARK    3  A    between atoms: C10_13  and  C11_14 
ROOT
HETATM    1  N1  UNL     1      19.869   1.354  49.595  1.00  0.00    -0.191 NA
HETATM    2  C1  UNL     1      20.873   1.681  50.129  1.00  0.00     0.103 C 
HETATM    3  C2  UNL     1      22.105   2.104  50.769  1.00  0.00     0.086 C 
HETATM    4  C3  UNL     1      21.670   1.832  51.975  1.00  0.00     0.000 C 
HETATM    5  C4  UNL     1      20.636   1.348  52.874  1.00  0.00     0.037 C 
HETATM    6  C5  UNL     1      21.103   0.338  53.812  1.00  0.00     0.118 C 
HETATM    7  C6  UNL     1      21.962  -0.443  54.442  1.00  0.00     0.090 C 
HETATM    8  C7  UNL     1      23.236  -1.049  54.814  1.00  0.00     0.069 C 
HETATM    9  C8  UNL     1      24.491  -0.844  54.358  1.00  0.00     0.008 C 
HETATM   10  C9  UNL     1      24.851   0.110  53.301  1.00  0.00     0.039 C 
HETATM   11  C10 UNL     1      25.569   1.341  53.759  1.00  0.00     0.025 C 
HETATM   12  C12 UNL     1      25.427   2.396  52.743  1.00  0.00    -0.024 C 
HETATM   13  C13 UNL     1      24.996   2.490  51.496  1.00  0.00    -0.022 C 
HETATM   14  C14 UNL     1      24.575   2.839  50.132  1.00  0.00     0.111 C 
HETATM   15  C15 UNL     1      23.144   2.516  49.844  1.00  0.00     0.173 C 
HETATM   16  O3  UNL     1      22.902   2.642  48.621  1.00  0.00    -0.291 OA
ENDROOT
BRANCH   7  17
HETATM   17  O1  UNL     1      20.780  -0.859  55.093  1.00  0.00    -0.388 OA
HETATM   18  H5  UNL     1      20.661  -1.857  55.169  1.00  0.00     0.210 HD
ENDBRANCH   7  17
BRANCH   8  19
HETATM   19  O2  UNL     1      23.096  -1.997  55.814  1.00  0.00    -0.363 OA
HETATM   20  H6  UNL     1      23.124  -2.991  55.622  1.00  0.00     0.217 HD
ENDBRANCH   8  19
BRANCH  11  21
HETATM   21  C11 UNL     1      26.961   1.125  54.202  1.00  0.00     0.123 C 
HETATM   22 CL1  UNL     1      27.825   0.052  53.048  1.00  0.00    -0.130 Cl
ENDBRANCH  11  21
TORSDOF 3
ENDMDL
MODEL 6
REMARK VINA RESULT:      -7.4      3.298      5.097
REMARK  3 active torsions:
REMARK  status: ('A' for Active; 'I' for Inactive)
REMARK    1  A    between atoms: C6_7  and  O1_8 
REMARK    2  A    between atoms: C7_9  and  O2_10 
REMARK    3  A    between atoms: C10_13  and  C11_14 
ROOT
HETATM    1  N1  UNL     1      27.345   0.668  52.745  1.00  0.00    -0.191 NA
HETATM    2  C1  UNL     1      26.194   0.630  53.012  1.00  0.00     0.103 C 
HETATM    3  C2  UNL     1      24.786   0.581  53.364  1.00  0.00     0.086 C 
HETATM    4  C3  UNL     1      24.478   1.615  52.620  1.00  0.00     0.000 C 
HETATM    5  C4  UNL     1      24.851   2.673  51.698  1.00  0.00     0.037 C 
HETATM    6  C5  UNL     1      24.019   2.731  50.505  1.00  0.00     0.118 C 
HETATM    7  C6  UNL     1      23.022   2.428  49.693  1.00  0.00     0.090 C 
HETATM    8  C7  UNL     1      21.818   1.769  49.197  1.00  0.00     0.069 C 
HETATM    9  C8  UNL     1      21.035   0.811  49.739  1.00  0.00     0.008 C 
HETATM   10  C9  UNL     1      21.264   0.186  51.048  1.00  0.00     0.039 C 
HETATM   11  C10 UNL     1      20.314   0.591  52.132  1.00  0.00     0.025 C 
HETATM   12  C12 UNL     1      20.921   0.312  53.443  1.00  0.00    -0.024 C 
HETATM   13  C13 UNL     1      21.975  -0.338  53.905  1.00  0.00    -0.022 C 
HETATM   14  C14 UNL     1      23.068  -0.986  54.645  1.00  0.00     0.111 C 
HETATM   15  C15 UNL     1      24.429  -0.527  54.230  1.00  0.00     0.173 C 
HETATM   16  O3  UNL     1      25.313  -1.253  54.741  1.00  0.00    -0.291 OA
ENDROOT
BRANCH   7  17
HETATM   17  O1  UNL     1      23.653   3.410  48.899  1.00  0.00    -0.388 OA
HETATM   18  H5  UNL     1      24.623   3.233  48.688  1.00  0.00     0.210 HD
ENDBRANCH   7  17
BRANCH   8  19
HETATM   19  O2  UNL     1      21.443   2.232  47.947  1.00  0.00    -0.363 OA
HETATM   20  H6  UNL     1      20.974   1.641  47.271  1.00  0.00     0.217 HD
ENDBRANCH   8  19
BRANCH  11  21
HETATM   21  C11 UNL     1      18.941   0.065  51.988  1.00  0.00     0.123 C 
HETATM   22 CL1  UNL     1      18.596  -1.145  53.271  1.00  0.00    -0.130 Cl
ENDBRANCH  11  21
TORSDOF 3
ENDMDL
MODEL 7
REMARK VINA RESULT:      -7.0      3.542      5.557
REMARK  3 active torsions:
REMARK  status: ('A' for Active; 'I' for Inactive)
REMARK    1  A    between atoms: C6_7  and  O1_8 
REMARK    2  A    between atoms: C7_9  and  O2_10 
REMARK    3  A    between atoms: C10_13  and  C11_14 
ROOT
HETATM    1  N1  UNL     1      27.354   4.216  48.953  1.00  0.00    -0.191 NA
HETATM    2  C1  UNL     1      26.570   3.825  49.748  1.00  0.00     0.103 C 
HETATM    3  C2  UNL     1      25.625   3.350  50.742  1.00  0.00     0.086 C 
HETATM    4  C3  UNL     1      24.610   3.976  50.198  1.00  0.00     0.000 C 
HETATM    5  C4  UNL     1      24.050   4.830  49.165  1.00  0.00     0.037 C 
HETATM    6  C5  UNL     1      22.864   4.276  48.527  1.00  0.00     0.118 C 
HETATM    7  C6  UNL     1      21.869   3.434  48.317  1.00  0.00     0.090 C 
HETATM    8  C7  UNL     1      20.999   2.276  48.499  1.00  0.00     0.069 C 
HETATM    9  C8  UNL     1      21.031   1.266  49.395  1.00  0.00     0.008 C 
HETATM   10  C9  UNL     1      22.038   1.119  50.453  1.00  0.00     0.039 C 
HETATM   11  C10 UNL     1      21.561   1.402  51.844  1.00  0.00     0.025 C 
HETATM   12  C12 UNL     1      22.716   1.705  52.704  1.00  0.00    -0.024 C 
HETATM   13  C13 UNL     1      24.033   1.627  52.622  1.00  0.00    -0.022 C 
HETATM   14  C14 UNL     1      25.496   1.635  52.765  1.00  0.00     0.111 C 
HETATM   15  C15 UNL     1      26.197   2.444  51.721  1.00  0.00     0.173 C 
HETATM   16  O3  UNL     1      27.433   2.248  51.768  1.00  0.00    -0.291 OA
ENDROOT
BRANCH   7  17
HETATM   17  O1  UNL     1      21.599   4.346  47.274  1.00  0.00    -0.388 OA
HETATM   18  H5  UNL     1      21.801   4.008  46.346  1.00  0.00     0.210 HD
ENDBRANCH   7  17
BRANCH   8  19
HETATM   19  O2  UNL     1      19.972   2.239  47.571  1.00  0.00    -0.363 OA
HETATM   20  H6  UNL     1      20.035   2.711  46.677  1.00  0.00     0.217 HD
ENDBRANCH   8  19
BRANCH  11  21
HETATM   21  C11 UNL     1      20.647   0.390  52.409  1.00  0.00     0.123 C 
HETATM   22 CL1  UNL     1      20.795   0.342  54.199  1.00  0.00    -0.130 Cl
ENDBRANCH  11  21
TORSDOF 3
ENDMDL
MODEL 8
REMARK VINA RESULT:      -6.9      3.007      5.416
REMARK  3 active torsions:
REMARK  status: ('A' for Active; 'I' for Inactive)
REMARK    1  A    between atoms: C6_7  and  O1_8 
REMARK    2  A    between atoms: C7_9  and  O2_10 
REMARK    3  A    between atoms: C10_13  and  C11_14 
ROOT
HETATM    1  N1  UNL     1      24.784   5.690  49.840  1.00  0.00    -0.191 NA
HETATM    2  C1  UNL     1      24.772   4.740  50.545  1.00  0.00     0.103 C 
HETATM    3  C2  UNL     1      24.782   3.579  51.415  1.00  0.00     0.086 C 
HETATM    4  C3  UNL     1      23.625   3.872  51.958  1.00  0.00     0.000 C 
HETATM    5  C4  UNL     1      22.457   4.727  52.075  1.00  0.00     0.037 C 
HETATM    6  C5  UNL     1      21.194   4.007  51.990  1.00  0.00     0.118 C 
HETATM    7  C6  UNL     1      20.379   2.971  51.915  1.00  0.00     0.090 C 
HETATM    8  C7  UNL     1      19.944   1.580  51.846  1.00  0.00     0.069 C 
HETATM    9  C8  UNL     1      20.643   0.423  51.836  1.00  0.00     0.008 C 
HETATM   10  C9  UNL     1      22.107   0.331  51.891  1.00  0.00     0.039 C 
HETATM   11  C10 UNL     1      22.675  -0.155  53.189  1.00  0.00     0.025 C 
HETATM   12  C12 UNL     1      24.083   0.261  53.292  1.00  0.00    -0.024 C 
HETATM   13  C13 UNL     1      25.001   0.782  52.496  1.00  0.00    -0.022 C 
HETATM   14  C14 UNL     1      26.171   1.352  51.813  1.00  0.00     0.111 C 
HETATM   15  C15 UNL     1      25.925   2.705  51.228  1.00  0.00     0.173 C 
HETATM   16  O3  UNL     1      26.879   3.046  50.491  1.00  0.00    -0.291 OA
ENDROOT
BRANCH   7  17
HETATM   17  O1  UNL     1      19.414   4.001  51.903  1.00  0.00    -0.388 OA
HETATM   18  H5  UNL     1      19.261   4.455  52.791  1.00  0.00     0.210 HD
ENDBRANCH   7  17
BRANCH   8  19
HETATM   19  O2  UNL     1      18.566   1.463  51.781  1.00  0.00    -0.363 OA
HETATM   20  H6  UNL     1      17.948   2.238  51.987  1.00  0.00     0.217 HD
ENDBRANCH   8  19
BRANCH  11  21
HETATM   21  C11 UNL     1      22.455  -1.588  53.470  1.00  0.00     0.123 C 
HETATM   22 CL1  UNL     1      20.996  -1.809  54.495  1.00  0.00    -0.130 Cl
ENDBRANCH  11  21
TORSDOF 3
ENDMDL
MODEL 9
REMARK VINA RESULT:      -6.8      2.969      4.821
REMARK  3 active torsions:
REMARK  status: ('A' for Active; 'I' for Inactive)
REMARK    1  A    between atoms: C6_7  and  O1_8 
REMARK    2  A    between atoms: C7_9  and  O2_10 
REMARK    3  A    between atoms: C10_13  and  C11_14 
ROOT
HETATM    1  N1  UNL     1      25.136   6.090  50.365  1.00  0.00    -0.191 NA
HETATM    2  C1  UNL     1      24.515   5.091  50.485  1.00  0.00     0.103 C 
HETATM    3  C2  UNL     1      23.737   3.873  50.614  1.00  0.00     0.086 C 
HETATM    4  C3  UNL     1      24.793   3.096  50.597  1.00  0.00     0.000 C 
HETATM    5  C4  UNL     1      26.232   2.910  50.523  1.00  0.00     0.037 C 
HETATM    6  C5  UNL     1      26.767   2.065  51.580  1.00  0.00     0.118 C 
HETATM    7  C6  UNL     1      26.755   1.255  52.623  1.00  0.00     0.090 C 
HETATM    8  C7  UNL     1      26.225   0.434  53.707  1.00  0.00     0.069 C 
HETATM    9  C8  UNL     1      24.958   0.185  54.103  1.00  0.00     0.008 C 
HETATM   10  C9  UNL     1      23.758   0.745  53.468  1.00  0.00     0.039 C 
HETATM   11  C10 UNL     1      22.948  -0.218  52.656  1.00  0.00     0.025 C 
HETATM   12  C12 UNL     1      22.108   0.530  51.706  1.00  0.00    -0.024 C 
HETATM   13  C13 UNL     1      21.760   1.789  51.502  1.00  0.00    -0.022 C 
HETATM   14  C14 UNL     1      21.241   3.098  51.082  1.00  0.00     0.111 C 
HETATM   15  C15 UNL     1      22.309   4.092  50.755  1.00  0.00     0.173 C 
HETATM   16  O3  UNL     1      21.818   5.234  50.606  1.00  0.00    -0.291 OA
ENDROOT
BRANCH   7  17
HETATM   17  O1  UNL     1      28.152   1.340  52.437  1.00  0.00    -0.388 OA
HETATM   18  H5  UNL     1      28.536   2.271  52.498  1.00  0.00     0.210 HD
ENDBRANCH   7  17
BRANCH   8  19
HETATM   19  O2  UNL     1      27.227  -0.183  54.437  1.00  0.00    -0.363 OA
HETATM   20  H6  UNL     1      27.799  -0.923  54.050  1.00  0.00     0.217 HD
ENDBRANCH   8  19
BRANCH  11  21
HETATM   21  C11 UNL     1      22.207  -1.226  53.440  1.00  0.00     0.123 C 
HETATM   22 CL1  UNL     1      21.328  -0.443  54.797  1.00  0.00    -0.130 Cl
ENDBRANCH  11  21
TORSDOF 3
ENDMDL
