MODEL 1
REMARK VINA RESULT:      -8.0      0.000      0.000
REMARK  3 active torsions:
REMARK  status: ('A' for Active; 'I' for Inactive)
REMARK    1  A    between atoms: C2_2  and  C3_3 
REMARK    2  A    between atoms: C4_4  and  C5_5 
REMARK    3  A    between atoms: C5_5  and  C6_6 
ROOT
HETATM    1  C6  UNL     1      25.048  -0.518  54.714  1.00  0.00     0.047 A 
HETATM    2  C7  UNL     1      24.269  -0.057  53.747  1.00  0.00     0.121 A 
HETATM    3  N1  UNL     1      22.885  -0.376  53.680  1.00  0.00    -0.314 N 
HETATM    4  C8  UNL     1      22.108   0.157  52.609  1.00  0.00     0.173 A 
HETATM    5  C9  UNL     1      20.701  -0.292  52.722  1.00  0.00    -0.005 A 
HETATM    6  C10 UNL     1      19.853   0.163  51.736  1.00  0.00     0.030 A 
HETATM    7  C11 UNL     1      18.525  -0.212  51.775  1.00  0.00     0.011 A 
HETATM    8 BR1  UNL     1      17.239   0.353  50.461  1.00  0.00    -0.051 Br
HETATM    9  C12 UNL     1      17.993  -1.024  52.751  1.00  0.00     0.022 A 
HETATM   10  C13 UNL     1      18.858  -1.477  53.742  1.00  0.00     0.039 A 
HETATM   11  C14 UNL     1      20.186  -1.103  53.706  1.00  0.00     0.087 A 
HETATM   12  O1  UNL     1      21.025  -1.570  54.705  1.00  0.00    -0.276 OA
HETATM   13  C15 UNL     1      22.366  -1.214  54.700  1.00  0.00     0.271 A 
HETATM   14  N2  UNL     1      23.114  -1.670  55.650  1.00  0.00    -0.130 NA
HETATM   15  N3  UNL     1      24.487  -1.367  55.734  1.00  0.00    -0.277 N 
HETATM   16  H16 UNL     1      25.013  -1.780  56.535  1.00  0.00     0.189 HD
ENDROOT
BRANCH   1  17
HETATM   17  C5  UNL     1      26.510  -0.282  54.928  1.00  0.00     0.086 C 
BRANCH  17  18
HETATM   18  C4  UNL     1      27.012   0.431  53.731  1.00  0.00    -0.025 C 
HETATM   19  C3  UNL     1      28.250   0.566  53.327  1.00  0.00    -0.031 C 
BRANCH  19  20
HETATM   20  C2  UNL     1      29.421   0.006  54.029  1.00  0.00     0.022 C 
HETATM   21  C1  UNL     1      29.738  -1.331  53.362  1.00  0.00     0.009 C 
ENDBRANCH  19  20
ENDBRANCH  17  18
ENDBRANCH   1  17
TORSDOF 3
ENDMDL
MODEL 2
REMARK VINA RESULT:      -7.8      0.937      1.161
REMARK  3 active torsions:
REMARK  status: ('A' for Active; 'I' for Inactive)
REMARK    1  A    between atoms: C2_2  and  C3_3 
REMARK    2  A    between atoms: C4_4  and  C5_5 
REMARK    3  A    between atoms: C5_5  and  C6_6 
ROOT
HETATM    1  C6  UNL     1      24.832  -0.518  54.615  1.00  0.00     0.047 A 
HETATM    2  C7  UNL     1      24.047  -0.067  53.648  1.00  0.00     0.121 A 
HETATM    3  N1  UNL     1      22.664  -0.394  53.587  1.00  0.00    -0.314 N 
HETATM    4  C8  UNL     1      21.882   0.128  52.514  1.00  0.00     0.173 A 
HETATM    5  C9  UNL     1      20.477  -0.328  52.633  1.00  0.00    -0.005 A 
HETATM    6  C10 UNL     1      19.624   0.116  51.647  1.00  0.00     0.030 A 
HETATM    7  C11 UNL     1      18.299  -0.266  51.692  1.00  0.00     0.011 A 
HETATM    8 BR1  UNL     1      17.006   0.283  50.379  1.00  0.00    -0.051 Br
HETATM    9  C12 UNL     1      17.773  -1.076  52.675  1.00  0.00     0.022 A 
HETATM   10  C13 UNL     1      18.644  -1.518  53.666  1.00  0.00     0.039 A 
HETATM   11  C14 UNL     1      19.970  -1.137  53.624  1.00  0.00     0.087 A 
HETATM   12  O1  UNL     1      20.814  -1.592  54.624  1.00  0.00    -0.276 OA
HETATM   13  C15 UNL     1      22.153  -1.229  54.613  1.00  0.00     0.271 A 
HETATM   14  N2  UNL     1      22.906  -1.675  55.564  1.00  0.00    -0.130 NA
HETATM   15  N3  UNL     1      24.278  -1.364  55.643  1.00  0.00    -0.277 N 
HETATM   16  H16 UNL     1      24.808  -1.768  56.445  1.00  0.00     0.189 HD
ENDROOT
BRANCH   1  17
HETATM   17  C5  UNL     1      26.292  -0.271  54.825  1.00  0.00     0.086 C 
BRANCH  17  18
HETATM   18  C4  UNL     1      26.943  -0.383  53.499  1.00  0.00    -0.025 C 
HETATM   19  C3  UNL     1      27.397   0.578  52.735  1.00  0.00    -0.031 C 
BRANCH  19  20
HETATM   20  C2  UNL     1      27.337   2.012  53.076  1.00  0.00     0.022 C 
HETATM   21  C1  UNL     1      28.691   2.378  53.683  1.00  0.00     0.009 C 
ENDBRANCH  19  20
ENDBRANCH  17  18
ENDBRANCH   1  17
TORSDOF 3
ENDMDL
MODEL 3
REMARK VINA RESULT:      -7.5      2.584      3.612
REMARK  3 active torsions:
REMARK  status: ('A' for Active; 'I' for Inactive)
REMARK    1  A    between atoms: C2_2  and  C3_3 
REMARK    2  A    between atoms: C4_4  and  C5_5 
REMARK    3  A    between atoms: C5_5  and  C6_6 
ROOT
HETATM    1  C6  UNL     1      27.008   1.875  52.854  1.00  0.00     0.047 A 
HETATM    2  C7  UNL     1      25.947   1.248  53.341  1.00  0.00     0.121 A 
HETATM    3  N1  UNL     1      24.696   1.250  52.665  1.00  0.00    -0.314 N 
HETATM    4  C8  UNL     1      23.597   0.554  53.251  1.00  0.00     0.173 A 
HETATM    5  C9  UNL     1      22.395   0.678  52.395  1.00  0.00    -0.005 A 
HETATM    6  C10 UNL     1      21.266   0.042  52.863  1.00  0.00     0.030 A 
HETATM    7  C11 UNL     1      20.106   0.113  52.119  1.00  0.00     0.011 A 
HETATM    8 BR1  UNL     1      18.464  -0.729  52.659  1.00  0.00    -0.051 Br
HETATM    9  C12 UNL     1      20.009   0.789  50.923  1.00  0.00     0.022 A 
HETATM   10  C13 UNL     1      21.155   1.427  50.459  1.00  0.00     0.039 A 
HETATM   11  C14 UNL     1      22.317   1.358  51.201  1.00  0.00     0.087 A 
HETATM   12  O1  UNL     1      23.443   2.004  50.717  1.00  0.00    -0.276 OA
HETATM   13  C15 UNL     1      24.628   1.956  51.436  1.00  0.00     0.271 A 
HETATM   14  N2  UNL     1      25.655   2.570  50.948  1.00  0.00    -0.130 NA
HETATM   15  N3  UNL     1      26.903   2.581  51.602  1.00  0.00    -0.277 N 
HETATM   16  H16 UNL     1      27.676   3.103  51.135  1.00  0.00     0.189 HD
ENDROOT
BRANCH   1  17
HETATM   17  C5  UNL     1      28.384   1.970  53.433  1.00  0.00     0.086 C 
BRANCH  17  18
HETATM   18  C4  UNL     1      28.446   1.010  54.559  1.00  0.00    -0.025 C 
HETATM   19  C3  UNL     1      29.049  -0.151  54.602  1.00  0.00    -0.031 C 
BRANCH  19  20
HETATM   20  C2  UNL     1      29.811  -0.736  53.483  1.00  0.00     0.022 C 
HETATM   21  C1  UNL     1      29.139  -2.064  53.136  1.00  0.00     0.009 C 
ENDBRANCH  19  20
ENDBRANCH  17  18
ENDBRANCH   1  17
TORSDOF 3
ENDMDL
MODEL 4
REMARK VINA RESULT:      -7.5      5.051      5.995
REMARK  3 active torsions:
REMARK  status: ('A' for Active; 'I' for Inactive)
REMARK    1  A    between atoms: C2_2  and  C3_3 
REMARK    2  A    between atoms: C4_4  and  C5_5 
REMARK    3  A    between atoms: C5_5  and  C6_6 
ROOT
HETATM    1  C6  UNL     1      25.783   4.242  49.869  1.00  0.00     0.047 A 
HETATM    2  C7  UNL     1      24.521   3.861  49.997  1.00  0.00     0.121 A 
HETATM    3  N1  UNL     1      24.140   2.801  50.865  1.00  0.00    -0.314 N 
HETATM    4  C8  UNL     1      22.760   2.445  50.950  1.00  0.00     0.173 A 
HETATM    5  C9  UNL     1      22.576   1.326  51.903  1.00  0.00    -0.005 A 
HETATM    6  C10 UNL     1      21.278   0.895  52.067  1.00  0.00     0.030 A 
HETATM    7  C11 UNL     1      21.027  -0.145  52.940  1.00  0.00     0.011 A 
HETATM    8 BR1  UNL     1      19.264  -0.840  53.259  1.00  0.00    -0.051 Br
HETATM    9  C12 UNL     1      22.010  -0.784  53.663  1.00  0.00     0.022 A 
HETATM   10  C13 UNL     1      23.317  -0.340  53.490  1.00  0.00     0.039 A 
HETATM   11  C14 UNL     1      23.571   0.699  52.619  1.00  0.00     0.087 A 
HETATM   12  O1  UNL     1      24.882   1.120  52.465  1.00  0.00    -0.276 OA
HETATM   13  C15 UNL     1      25.173   2.162  51.597  1.00  0.00     0.271 A 
HETATM   14  N2  UNL     1      26.409   2.524  51.484  1.00  0.00    -0.130 NA
HETATM   15  N3  UNL     1      26.808   3.571  50.629  1.00  0.00    -0.277 N 
HETATM   16  H16 UNL     1      27.826   3.795  50.601  1.00  0.00     0.189 HD
ENDROOT
BRANCH   1  17
HETATM   17  C5  UNL     1      26.349   5.327  49.009  1.00  0.00     0.086 C 
BRANCH  17  18
HETATM   18  C4  UNL     1      27.708   4.896  48.609  1.00  0.00    -0.025 C 
HETATM   19  C3  UNL     1      28.723   5.642  48.251  1.00  0.00    -0.031 C 
BRANCH  19  20
HETATM   20  C2  UNL     1      28.690   7.115  48.179  1.00  0.00     0.022 C 
HETATM   21  C1  UNL     1      29.079   7.496  46.752  1.00  0.00     0.009 C 
ENDBRANCH  19  20
ENDBRANCH  17  18
ENDBRANCH   1  17
TORSDOF 3
ENDMDL
MODEL 5
REMARK VINA RESULT:      -7.3      6.097      8.432
REMARK  3 active torsions:
REMARK  status: ('A' for Active; 'I' for Inactive)
REMARK    1  A    between atoms: C2_2  and  C3_3 
REMARK    2  A    between atoms: C4_4  and  C5_5 
REMARK    3  A    between atoms: C5_5  and  C6_6 
ROOT
HETATM    1  C6  UNL     1      23.947   2.036  51.968  1.00  0.00     0.047 A 
HETATM    2  C7  UNL     1      23.817   3.195  51.339  1.00  0.00     0.121 A 
HETATM    3  N1  UNL     1      24.885   3.774  50.601  1.00  0.00    -0.314 N 
HETATM    4  C8  UNL     1      24.671   5.026  49.950  1.00  0.00     0.173 A 
HETATM    5  C9  UNL     1      25.900   5.453  49.241  1.00  0.00    -0.005 A 
HETATM    6  C10 UNL     1      25.811   6.655  48.573  1.00  0.00     0.030 A 
HETATM    7  C11 UNL     1      26.915   7.118  47.888  1.00  0.00     0.011 A 
HETATM    8 BR1  UNL     1      26.923   8.778  46.917  1.00  0.00    -0.051 Br
HETATM    9  C12 UNL     1      28.115   6.443  47.833  1.00  0.00     0.022 A 
HETATM   10  C13 UNL     1      28.193   5.231  48.510  1.00  0.00     0.039 A 
HETATM   11  C14 UNL     1      27.090   4.764  49.196  1.00  0.00     0.087 A 
HETATM   12  O1  UNL     1      27.196   3.554  49.863  1.00  0.00    -0.276 OA
HETATM   13  C15 UNL     1      26.108   3.055  50.562  1.00  0.00     0.271 A 
HETATM   14  N2  UNL     1      26.249   1.923  51.169  1.00  0.00    -0.130 NA
HETATM   15  N3  UNL     1      25.203   1.332  51.907  1.00  0.00    -0.277 N 
HETATM   16  H16 UNL     1      25.408   0.417  52.364  1.00  0.00     0.189 HD
ENDROOT
BRANCH   1  17
HETATM   17  C5  UNL     1      22.933   1.295  52.780  1.00  0.00     0.086 C 
BRANCH  17  18
HETATM   18  C4  UNL     1      23.557   0.013  53.183  1.00  0.00    -0.025 C 
HETATM   19  C3  UNL     1      23.135  -0.850  54.073  1.00  0.00    -0.031 C 
BRANCH  19  20
HETATM   20  C2  UNL     1      21.904  -0.690  54.870  1.00  0.00     0.022 C 
HETATM   21  C1  UNL     1      20.821  -1.519  54.181  1.00  0.00     0.009 C 
ENDBRANCH  19  20
ENDBRANCH  17  18
ENDBRANCH   1  17
TORSDOF 3
ENDMDL
MODEL 6
REMARK VINA RESULT:      -7.1      3.502      8.049
REMARK  3 active torsions:
REMARK  status: ('A' for Active; 'I' for Inactive)
REMARK    1  A    between atoms: C2_2  and  C3_3 
REMARK    2  A    between atoms: C4_4  and  C5_5 
REMARK    3  A    between atoms: C5_5  and  C6_6 
ROOT
HETATM    1  C6  UNL     1      18.822  -0.988  53.065  1.00  0.00     0.047 A 
HETATM    2  C7  UNL     1      19.972  -1.193  53.690  1.00  0.00     0.121 A 
HETATM    3  N1  UNL     1      21.177  -0.565  53.273  1.00  0.00    -0.314 N 
HETATM    4  C8  UNL     1      22.378  -0.835  53.995  1.00  0.00     0.173 A 
HETATM    5  C9  UNL     1      23.512  -0.087  53.405  1.00  0.00    -0.005 A 
HETATM    6  C10 UNL     1      24.729  -0.271  54.023  1.00  0.00     0.030 A 
HETATM    7  C11 UNL     1      25.834   0.395  53.530  1.00  0.00     0.011 A 
HETATM    8 BR1  UNL     1      27.587   0.225  54.299  1.00  0.00    -0.051 Br
HETATM    9  C12 UNL     1      25.789   1.240  52.443  1.00  0.00     0.022 A 
HETATM   10  C13 UNL     1      24.555   1.419  51.827  1.00  0.00     0.039 A 
HETATM   11  C14 UNL     1      23.449   0.756  52.318  1.00  0.00     0.087 A 
HETATM   12  O1  UNL     1      22.232   0.951  51.685  1.00  0.00    -0.276 OA
HETATM   13  C15 UNL     1      21.100   0.301  52.152  1.00  0.00     0.271 A 
HETATM   14  N2  UNL     1      19.985   0.512  51.533  1.00  0.00    -0.130 NA
HETATM   15  N3  UNL     1      18.780  -0.102  51.929  1.00  0.00    -0.277 N 
HETATM   16  H16 UNL     1      17.929   0.127  51.370  1.00  0.00     0.189 HD
ENDROOT
BRANCH   1  17
HETATM   17  C5  UNL     1      17.476  -1.565  53.371  1.00  0.00     0.086 C 
BRANCH  17  18
HETATM   18  C4  UNL     1      17.693  -2.974  53.774  1.00  0.00    -0.025 C 
HETATM   19  C3  UNL     1      16.952  -4.018  53.501  1.00  0.00    -0.031 C 
BRANCH  19  20
HETATM   20  C2  UNL     1      15.710  -3.974  52.705  1.00  0.00     0.022 C 
HETATM   21  C1  UNL     1      14.589  -4.487  53.608  1.00  0.00     0.009 C 
ENDBRANCH  19  20
ENDBRANCH  17  18
ENDBRANCH   1  17
TORSDOF 3
ENDMDL
MODEL 7
REMARK VINA RESULT:      -7.0      3.487      8.076
REMARK  3 active torsions:
REMARK  status: ('A' for Active; 'I' for Inactive)
REMARK    1  A    between atoms: C2_2  and  C3_3 
REMARK    2  A    between atoms: C4_4  and  C5_5 
REMARK    3  A    between atoms: C5_5  and  C6_6 
ROOT
HETATM    1  C6  UNL     1      21.065  -0.031  53.297  1.00  0.00     0.047 A 
HETATM    2  C7  UNL     1      22.207  -0.673  53.491  1.00  0.00     0.121 A 
HETATM    3  N1  UNL     1      23.466  -0.028  53.346  1.00  0.00    -0.314 N 
HETATM    4  C8  UNL     1      24.655  -0.784  53.570  1.00  0.00     0.173 A 
HETATM    5  C9  UNL     1      25.851   0.067  53.369  1.00  0.00    -0.005 A 
HETATM    6  C10 UNL     1      27.063  -0.560  53.560  1.00  0.00     0.030 A 
HETATM    7  C11 UNL     1      28.223   0.169  53.391  1.00  0.00     0.011 A 
HETATM    8 BR1  UNL     1      29.976  -0.584  53.626  1.00  0.00    -0.051 Br
HETATM    9  C12 UNL     1      28.239   1.501  53.039  1.00  0.00     0.022 A 
HETATM   10  C13 UNL     1      27.010   2.123  52.849  1.00  0.00     0.039 A 
HETATM   11  C14 UNL     1      25.848   1.397  53.018  1.00  0.00     0.087 A 
HETATM   12  O1  UNL     1      24.638   2.042  52.822  1.00  0.00    -0.276 OA
HETATM   13  C15 UNL     1      23.451   1.343  52.982  1.00  0.00     0.271 A 
HETATM   14  N2  UNL     1      22.344   1.982  52.791  1.00  0.00    -0.130 NA
HETATM   15  N3  UNL     1      21.086   1.362  52.929  1.00  0.00    -0.277 N 
HETATM   16  H16 UNL     1      20.246   1.956  52.755  1.00  0.00     0.189 HD
ENDROOT
BRANCH   1  17
HETATM   17  C5  UNL     1      19.668  -0.556  53.407  1.00  0.00     0.086 C 
BRANCH  17  18
HETATM   18  C4  UNL     1      18.938  -0.096  52.202  1.00  0.00    -0.025 C 
HETATM   19  C3  UNL     1      17.730  -0.418  51.814  1.00  0.00    -0.031 C 
BRANCH  19  20
HETATM   20  C2  UNL     1      16.839  -1.341  52.542  1.00  0.00     0.022 C 
HETATM   21  C1  UNL     1      15.412  -1.013  52.106  1.00  0.00     0.009 C 
ENDBRANCH  19  20
ENDBRANCH  17  18
ENDBRANCH   1  17
TORSDOF 3
ENDMDL
MODEL 8
REMARK VINA RESULT:      -7.0      5.614      6.747
REMARK  3 active torsions:
REMARK  status: ('A' for Active; 'I' for Inactive)
REMARK    1  A    between atoms: C2_2  and  C3_3 
REMARK    2  A    between atoms: C4_4  and  C5_5 
REMARK    3  A    between atoms: C5_5  and  C6_6 
ROOT
HETATM    1  C6  UNL     1      26.526   4.281  49.369  1.00  0.00     0.047 A 
HETATM    2  C7  UNL     1      26.445   3.249  50.195  1.00  0.00     0.121 A 
HETATM    3  N1  UNL     1      25.216   2.858  50.793  1.00  0.00    -0.314 N 
HETATM    4  C8  UNL     1      25.206   1.735  51.673  1.00  0.00     0.173 A 
HETATM    5  C9  UNL     1      23.837   1.496  52.186  1.00  0.00    -0.005 A 
HETATM    6  C10 UNL     1      23.706   0.431  53.050  1.00  0.00     0.030 A 
HETATM    7  C11 UNL     1      22.459   0.145  53.569  1.00  0.00     0.011 A 
HETATM    8 BR1  UNL     1      22.141  -1.311  54.784  1.00  0.00    -0.051 Br
HETATM    9  C12 UNL     1      21.327   0.869  53.271  1.00  0.00     0.022 A 
HETATM   10  C13 UNL     1      21.471   1.942  52.397  1.00  0.00     0.039 A 
HETATM   11  C14 UNL     1      22.716   2.231  51.875  1.00  0.00     0.087 A 
HETATM   12  O1  UNL     1      22.831   3.305  51.008  1.00  0.00    -0.276 OA
HETATM   13  C15 UNL     1      24.067   3.624  50.466  1.00  0.00     0.271 A 
HETATM   14  N2  UNL     1      24.130   4.632  49.661  1.00  0.00    -0.130 NA
HETATM   15  N3  UNL     1      25.339   5.037  49.059  1.00  0.00    -0.277 N 
HETATM   16  H16 UNL     1      25.295   5.862  48.423  1.00  0.00     0.189 HD
ENDROOT
BRANCH   1  17
HETATM   17  C5  UNL     1      27.729   4.820  48.662  1.00  0.00     0.086 C 
BRANCH  17  18
HETATM   18  C4  UNL     1      27.435   6.233  48.328  1.00  0.00    -0.025 C 
HETATM   19  C3  UNL     1      28.238   7.128  47.809  1.00  0.00    -0.031 C 
BRANCH  19  20
HETATM   20  C2  UNL     1      29.646   6.874  47.449  1.00  0.00     0.022 C 
HETATM   21  C1  UNL     1      30.498   7.386  48.609  1.00  0.00     0.009 C 
ENDBRANCH  19  20
ENDBRANCH  17  18
ENDBRANCH   1  17
TORSDOF 3
ENDMDL
MODEL 9
REMARK VINA RESULT:      -7.0      5.947      8.340
REMARK  3 active torsions:
REMARK  status: ('A' for Active; 'I' for Inactive)
REMARK    1  A    between atoms: C2_2  and  C3_3 
REMARK    2  A    between atoms: C4_4  and  C5_5 
REMARK    3  A    between atoms: C5_5  and  C6_6 
ROOT
HETATM    1  C6  UNL     1      22.666   1.590  51.377  1.00  0.00     0.047 A 
HETATM    2  C7  UNL     1      23.932   1.771  51.032  1.00  0.00     0.121 A 
HETATM    3  N1  UNL     1      24.376   2.965  50.401  1.00  0.00    -0.314 N 
HETATM    4  C8  UNL     1      25.756   3.088  50.058  1.00  0.00     0.173 A 
HETATM    5  C9  UNL     1      26.010   4.398  49.414  1.00  0.00    -0.005 A 
HETATM    6  C10 UNL     1      27.315   4.630  49.037  1.00  0.00     0.030 A 
HETATM    7  C11 UNL     1      27.630   5.830  48.432  1.00  0.00     0.011 A 
HETATM    8 BR1  UNL     1      29.410   6.277  47.859  1.00  0.00    -0.051 Br
HETATM    9  C12 UNL     1      26.706   6.819  48.179  1.00  0.00     0.022 A 
HETATM   10  C13 UNL     1      25.392   6.575  48.564  1.00  0.00     0.039 A 
HETATM   11  C14 UNL     1      25.074   5.376  49.170  1.00  0.00     0.087 A 
HETATM   12  O1  UNL     1      23.757   5.159  49.543  1.00  0.00    -0.276 OA
HETATM   13  C15 UNL     1      23.402   3.966  50.154  1.00  0.00     0.271 A 
HETATM   14  N2  UNL     1      22.164   3.804  50.486  1.00  0.00    -0.130 NA
HETATM   15  N3  UNL     1      21.702   2.628  51.111  1.00  0.00    -0.277 N 
HETATM   16  H16 UNL     1      20.686   2.585  51.343  1.00  0.00     0.189 HD
ENDROOT
BRANCH   1  17
HETATM   17  C5  UNL     1      22.039   0.405  52.041  1.00  0.00     0.086 C 
BRANCH  17  18
HETATM   18  C4  UNL     1      21.409   0.895  53.290  1.00  0.00    -0.025 C 
HETATM   19  C3  UNL     1      21.106   0.213  54.366  1.00  0.00    -0.031 C 
BRANCH  19  20
HETATM   20  C2  UNL     1      21.348  -1.232  54.532  1.00  0.00     0.022 C 
HETATM   21  C1  UNL     1      22.728  -1.379  55.172  1.00  0.00     0.009 C 
ENDBRANCH  19  20
ENDBRANCH  17  18
ENDBRANCH   1  17
TORSDOF 3
ENDMDL
