MODEL 1
REMARK VINA RESULT:      -9.9      0.000      0.000
REMARK  2 active torsions:
REMARK  status: ('A' for Active; 'I' for Inactive)
REMARK    1  A    between atoms: C4_5  and  N1_6 
REMARK    2  A    between atoms: N1_6  and  C5_7 
ROOT
HETATM    1  C5  UNL     1      20.476   0.676  52.678  1.00  0.00     0.142 A 
HETATM    2  N2  UNL     1      19.465  -0.075  53.063  1.00  0.00    -0.224 NA
HETATM    3  C6  UNL     1      19.558  -1.124  53.884  1.00  0.00     0.236 A 
HETATM    4  N3  UNL     1      20.740  -1.505  54.399  1.00  0.00    -0.241 NA
HETATM    5  C7  UNL     1      21.831  -0.777  54.047  1.00  0.00     0.074 A 
HETATM    6  C8  UNL     1      23.026  -1.195  54.592  1.00  0.00     0.070 A 
HETATM    7  C9  UNL     1      24.178  -0.529  54.297  1.00  0.00     0.080 A 
HETATM    8  C10 UNL     1      24.106   0.556  53.451  1.00  0.00    -0.016 A 
HETATM    9  C11 UNL     1      22.875   0.916  52.943  1.00  0.00     0.028 A 
HETATM   10  C12 UNL     1      21.681   0.298  53.193  1.00  0.00     0.039 A 
HETATM   11  C13 UNL     1      25.241   1.408  53.010  1.00  0.00     0.057 C 
HETATM   12  C14 UNL     1      26.035   0.769  51.917  1.00  0.00     0.130 C 
HETATM   13  N4  UNL     1      27.118  -0.045  52.296  1.00  0.00    -0.392 N 
HETATM   14  C15 UNL     1      27.194  -1.356  51.843  1.00  0.00     0.119 C 
HETATM   15  C16 UNL     1      27.869  -2.346  52.731  1.00  0.00     0.020 C 
HETATM   16  C17 UNL     1      29.060  -1.815  53.457  1.00  0.00     0.005 C 
HETATM   17  C18 UNL     1      29.012  -0.373  53.828  1.00  0.00     0.046 C 
HETATM   18  C19 UNL     1      27.792   0.382  53.456  1.00  0.00     0.178 C 
HETATM   19  N5  UNL     1      26.941   0.654  54.596  1.00  0.00    -0.370 N 
HETATM   20  C20 UNL     1      26.485  -0.451  55.323  1.00  0.00     0.297 C 
HETATM   21  O1  UNL     1      25.290  -1.058  54.911  1.00  0.00    -0.332 OA
HETATM   22  C21 UNL     1      26.038   1.687  54.267  1.00  0.00     0.132 C 
ENDROOT
BRANCH   1  23
HETATM   23  N1  UNL     1      20.417   1.782  51.818  1.00  0.00    -0.340 N 
HETATM   24  H3  UNL     1      19.892   2.627  52.038  1.00  0.00     0.167 HD
BRANCH  23  25
HETATM   25  C4  UNL     1      21.039   1.929  50.552  1.00  0.00     0.035 A 
HETATM   26  C3  UNL     1      20.958   0.983  49.558  1.00  0.00     0.032 A 
HETATM   27  C2  UNL     1      21.542   1.100  48.321  1.00  0.00     0.046 A 
HETATM   28  C1  UNL     1      22.269   2.220  48.000  1.00  0.00     0.138 A 
HETATM   29  F1  UNL     1      22.872   2.418  46.818  1.00  0.00    -0.204 F 
HETATM   30  C23 UNL     1      22.381   3.192  48.949  1.00  0.00     0.074 A 
HETATM   31  C22 UNL     1      21.781   3.023  50.162  1.00  0.00     0.056 A 
HETATM   32 CL1  UNL     1      23.292   4.647  48.611  1.00  0.00    -0.081 Cl
ENDBRANCH  23  25
ENDBRANCH   1  23
TORSDOF 2
ENDMDL
MODEL 2
REMARK VINA RESULT:      -9.9      3.642      7.230
REMARK  2 active torsions:
REMARK  status: ('A' for Active; 'I' for Inactive)
REMARK    1  A    between atoms: C4_5  and  N1_6 
REMARK    2  A    between atoms: N1_6  and  C5_7 
ROOT
HETATM    1  C5  UNL     1      23.637  -0.392  53.428  1.00  0.00     0.142 A 
HETATM    2  N2  UNL     1      23.012  -0.915  54.464  1.00  0.00    -0.224 NA
HETATM    3  C6  UNL     1      21.782  -0.583  54.865  1.00  0.00     0.236 A 
HETATM    4  N3  UNL     1      21.063   0.346  54.213  1.00  0.00    -0.241 NA
HETATM    5  C7  UNL     1      21.640   0.931  53.133  1.00  0.00     0.074 A 
HETATM    6  C8  UNL     1      20.876   1.880  52.488  1.00  0.00     0.070 A 
HETATM    7  C9  UNL     1      21.370   2.523  51.394  1.00  0.00     0.080 A 
HETATM    8  C10 UNL     1      22.637   2.199  50.963  1.00  0.00    -0.016 A 
HETATM    9  C11 UNL     1      23.345   1.239  51.657  1.00  0.00     0.028 A 
HETATM   10  C12 UNL     1      22.916   0.554  52.760  1.00  0.00     0.039 A 
HETATM   11  C13 UNL     1      23.350   2.783  49.797  1.00  0.00     0.057 C 
HETATM   12  C14 UNL     1      23.937   4.122  50.109  1.00  0.00     0.130 C 
HETATM   13  N4  UNL     1      23.134   5.252  49.868  1.00  0.00    -0.392 N 
HETATM   14  C15 UNL     1      22.891   6.162  50.890  1.00  0.00     0.119 C 
HETATM   15  C16 UNL     1      21.588   6.888  50.859  1.00  0.00     0.020 C 
HETATM   16  C17 UNL     1      21.124   7.268  49.493  1.00  0.00     0.005 C 
HETATM   17  C18 UNL     1      21.500   6.341  48.390  1.00  0.00     0.046 C 
HETATM   18  C19 UNL     1      22.278   5.134  48.756  1.00  0.00     0.178 C 
HETATM   19  N5  UNL     1      21.478   3.928  48.722  1.00  0.00    -0.370 N 
HETATM   20  C20 UNL     1      20.343   3.898  49.540  1.00  0.00     0.297 C 
HETATM   21  O1  UNL     1      20.497   3.442  50.857  1.00  0.00    -0.332 OA
HETATM   22  C21 UNL     1      22.329   2.805  48.679  1.00  0.00     0.132 C 
ENDROOT
BRANCH   1  23
HETATM   23  N1  UNL     1      24.925  -0.714  52.979  1.00  0.00    -0.340 N 
HETATM   24  H3  UNL     1      25.110  -1.469  52.321  1.00  0.00     0.167 HD
BRANCH  23  25
HETATM   25  C4  UNL     1      26.147  -0.087  53.332  1.00  0.00     0.035 A 
HETATM   26  C3  UNL     1      26.241   1.240  53.681  1.00  0.00     0.032 A 
HETATM   27  C2  UNL     1      27.407   1.872  54.034  1.00  0.00     0.046 A 
HETATM   28  C1  UNL     1      28.592   1.180  54.059  1.00  0.00     0.138 A 
HETATM   29  F1  UNL     1      29.775   1.716  54.392  1.00  0.00    -0.204 F 
HETATM   30  C23 UNL     1      28.558  -0.141  53.723  1.00  0.00     0.074 A 
HETATM   31  C22 UNL     1      27.371  -0.719  53.379  1.00  0.00     0.056 A 
HETATM   32 CL1  UNL     1      30.029  -1.087  53.732  1.00  0.00    -0.081 Cl
ENDBRANCH  23  25
ENDBRANCH   1  23
TORSDOF 2
ENDMDL
MODEL 3
REMARK VINA RESULT:      -9.9      3.524      7.725
REMARK  2 active torsions:
REMARK  status: ('A' for Active; 'I' for Inactive)
REMARK    1  A    between atoms: C4_5  and  N1_6 
REMARK    2  A    between atoms: N1_6  and  C5_7 
ROOT
HETATM    1  C5  UNL     1      24.082  -0.180  53.696  1.00  0.00     0.142 A 
HETATM    2  N2  UNL     1      24.113  -0.898  54.801  1.00  0.00    -0.224 NA
HETATM    3  C6  UNL     1      23.045  -1.431  55.400  1.00  0.00     0.236 A 
HETATM    4  N3  UNL     1      21.809  -1.266  54.898  1.00  0.00    -0.241 NA
HETATM    5  C7  UNL     1      21.696  -0.537  53.758  1.00  0.00     0.074 A 
HETATM    6  C8  UNL     1      20.415  -0.387  53.271  1.00  0.00     0.070 A 
HETATM    7  C9  UNL     1      20.199   0.330  52.132  1.00  0.00     0.080 A 
HETATM    8  C10 UNL     1      21.286   0.889  51.498  1.00  0.00    -0.016 A 
HETATM    9  C11 UNL     1      22.539   0.698  52.043  1.00  0.00     0.028 A 
HETATM   10  C12 UNL     1      22.832  -0.006  53.178  1.00  0.00     0.039 A 
HETATM   11  C13 UNL     1      21.261   1.700  50.253  1.00  0.00     0.057 C 
HETATM   12  C14 UNL     1      20.844   3.113  50.509  1.00  0.00     0.130 C 
HETATM   13  N4  UNL     1      19.470   3.405  50.432  1.00  0.00    -0.392 N 
HETATM   14  C15 UNL     1      18.827   4.008  51.506  1.00  0.00     0.119 C 
HETATM   15  C16 UNL     1      17.383   3.686  51.702  1.00  0.00     0.020 C 
HETATM   16  C17 UNL     1      16.602   3.551  50.438  1.00  0.00     0.005 C 
HETATM   17  C18 UNL     1      17.343   3.016  49.263  1.00  0.00     0.046 C 
HETATM   18  C19 UNL     1      18.768   2.660  49.465  1.00  0.00     0.178 C 
HETATM   19  N5  UNL     1      18.978   1.229  49.521  1.00  0.00    -0.370 N 
HETATM   20  C20 UNL     1      18.277   0.524  50.506  1.00  0.00     0.297 C 
HETATM   21  O1  UNL     1      18.874   0.394  51.768  1.00  0.00    -0.332 OA
HETATM   22  C21 UNL     1      20.344   0.950  49.310  1.00  0.00     0.132 C 
ENDROOT
BRANCH   1  23
HETATM   23  N1  UNL     1      25.179   0.394  53.040  1.00  0.00    -0.340 N 
HETATM   24  H3  UNL     1      25.083   1.092  52.305  1.00  0.00     0.167 HD
BRANCH  23  25
HETATM   25  C4  UNL     1      26.555   0.129  53.261  1.00  0.00     0.035 A 
HETATM   26  C3  UNL     1      27.152  -1.069  52.946  1.00  0.00     0.032 A 
HETATM   27  C2  UNL     1      28.482  -1.352  53.140  1.00  0.00     0.046 A 
HETATM   28  C1  UNL     1      29.320  -0.410  53.684  1.00  0.00     0.138 A 
HETATM   29  F1  UNL     1      30.629  -0.600  53.907  1.00  0.00    -0.204 F 
HETATM   30  C23 UNL     1      28.781   0.798  54.014  1.00  0.00     0.074 A 
HETATM   31  C22 UNL     1      27.453   1.025  53.800  1.00  0.00     0.056 A 
HETATM   32 CL1  UNL     1      29.788   2.048  54.710  1.00  0.00    -0.081 Cl
ENDBRANCH  23  25
ENDBRANCH   1  23
TORSDOF 2
ENDMDL
MODEL 4
REMARK VINA RESULT:      -9.6      3.733      7.859
REMARK  2 active torsions:
REMARK  status: ('A' for Active; 'I' for Inactive)
REMARK    1  A    between atoms: C4_5  and  N1_6 
REMARK    2  A    between atoms: N1_6  and  C5_7 
ROOT
HETATM    1  C5  UNL     1      24.338   0.628  53.094  1.00  0.00     0.142 A 
HETATM    2  N2  UNL     1      23.965  -0.337  53.910  1.00  0.00    -0.224 NA
HETATM    3  C6  UNL     1      22.779  -0.951  53.879  1.00  0.00     0.236 A 
HETATM    4  N3  UNL     1      21.842  -0.614  52.976  1.00  0.00    -0.241 NA
HETATM    5  C7  UNL     1      22.154   0.375  52.100  1.00  0.00     0.074 A 
HETATM    6  C8  UNL     1      21.171   0.695  51.188  1.00  0.00     0.070 A 
HETATM    7  C9  UNL     1      21.390   1.676  50.268  1.00  0.00     0.080 A 
HETATM    8  C10 UNL     1      22.605   2.324  50.281  1.00  0.00    -0.016 A 
HETATM    9  C11 UNL     1      23.542   1.950  51.223  1.00  0.00     0.028 A 
HETATM   10  C12 UNL     1      23.394   0.979  52.174  1.00  0.00     0.039 A 
HETATM   11  C13 UNL     1      23.035   3.413  49.367  1.00  0.00     0.057 C 
HETATM   12  C14 UNL     1      22.468   4.739  49.763  1.00  0.00     0.130 C 
HETATM   13  N4  UNL     1      21.227   5.102  49.210  1.00  0.00    -0.392 N 
HETATM   14  C15 UNL     1      20.172   5.453  50.043  1.00  0.00     0.119 C 
HETATM   15  C16 UNL     1      18.793   5.159  49.556  1.00  0.00     0.020 C 
HETATM   16  C17 UNL     1      18.595   5.370  48.092  1.00  0.00     0.005 C 
HETATM   17  C18 UNL     1      19.777   5.104  47.226  1.00  0.00     0.046 C 
HETATM   18  C19 UNL     1      21.018   4.646  47.895  1.00  0.00     0.178 C 
HETATM   19  N5  UNL     1      21.271   3.236  47.685  1.00  0.00    -0.370 N 
HETATM   20  C20 UNL     1      20.276   2.346  48.102  1.00  0.00     0.297 C 
HETATM   21  O1  UNL     1      20.322   1.886  49.426  1.00  0.00    -0.332 OA
HETATM   22  C21 UNL     1      22.621   2.956  47.984  1.00  0.00     0.132 C 
ENDROOT
BRANCH   1  23
HETATM   23  N1  UNL     1      25.571   1.295  53.097  1.00  0.00    -0.340 N 
HETATM   24  H3  UNL     1      25.658   2.300  52.953  1.00  0.00     0.167 HD
BRANCH  23  25
HETATM   25  C4  UNL     1      26.859   0.733  53.289  1.00  0.00     0.035 A 
HETATM   26  C3  UNL     1      27.943   1.462  53.718  1.00  0.00     0.032 A 
HETATM   27  C2  UNL     1      29.199   0.946  53.920  1.00  0.00     0.046 A 
HETATM   28  C1  UNL     1      29.447  -0.386  53.694  1.00  0.00     0.138 A 
HETATM   29  F1  UNL     1      30.640  -0.973  53.865  1.00  0.00    -0.204 F 
HETATM   30  C23 UNL     1      28.407  -1.157  53.267  1.00  0.00     0.074 A 
HETATM   31  C22 UNL     1      27.179  -0.591  53.082  1.00  0.00     0.056 A 
HETATM   32 CL1  UNL     1      28.648  -2.862  52.958  1.00  0.00    -0.081 Cl
ENDBRANCH  23  25
ENDBRANCH   1  23
TORSDOF 2
ENDMDL
MODEL 5
REMARK VINA RESULT:      -9.2      4.338      7.787
REMARK  2 active torsions:
REMARK  status: ('A' for Active; 'I' for Inactive)
REMARK    1  A    between atoms: C4_5  and  N1_6 
REMARK    2  A    between atoms: N1_6  and  C5_7 
ROOT
HETATM    1  C5  UNL     1      23.913   1.098  52.845  1.00  0.00     0.142 A 
HETATM    2  N2  UNL     1      23.117   0.052  52.934  1.00  0.00    -0.224 NA
HETATM    3  C6  UNL     1      22.062  -0.177  52.148  1.00  0.00     0.236 A 
HETATM    4  N3  UNL     1      21.721   0.678  51.169  1.00  0.00    -0.241 NA
HETATM    5  C7  UNL     1      22.496   1.783  51.015  1.00  0.00     0.074 A 
HETATM    6  C8  UNL     1      22.119   2.639  50.003  1.00  0.00     0.070 A 
HETATM    7  C9  UNL     1      22.834   3.775  49.771  1.00  0.00     0.080 A 
HETATM    8  C10 UNL     1      23.926   4.033  50.570  1.00  0.00    -0.016 A 
HETATM    9  C11 UNL     1      24.244   3.131  51.564  1.00  0.00     0.028 A 
HETATM   10  C12 UNL     1      23.576   1.974  51.855  1.00  0.00     0.039 A 
HETATM   11  C13 UNL     1      24.829   5.210  50.478  1.00  0.00     0.057 C 
HETATM   12  C14 UNL     1      24.237   6.426  51.114  1.00  0.00     0.130 C 
HETATM   13  N4  UNL     1      23.461   7.270  50.298  1.00  0.00    -0.392 N 
HETATM   14  C15 UNL     1      22.160   7.590  50.667  1.00  0.00     0.119 C 
HETATM   15  C16 UNL     1      21.187   7.853  49.568  1.00  0.00     0.020 C 
HETATM   16  C17 UNL     1      21.755   8.586  48.400  1.00  0.00     0.005 C 
HETATM   17  C18 UNL     1      23.188   8.322  48.094  1.00  0.00     0.046 C 
HETATM   18  C19 UNL     1      23.899   7.354  48.963  1.00  0.00     0.178 C 
HETATM   19  N5  UNL     1      24.121   6.082  48.308  1.00  0.00    -0.370 N 
HETATM   20  C20 UNL     1      22.990   5.402  47.845  1.00  0.00     0.297 C 
HETATM   21  O1  UNL     1      22.341   4.531  48.733  1.00  0.00    -0.332 OA
HETATM   22  C21 UNL     1      25.122   5.370  49.001  1.00  0.00     0.132 C 
ENDROOT
BRANCH   1  23
HETATM   23  N1  UNL     1      25.027   1.372  53.650  1.00  0.00    -0.340 N 
HETATM   24  H3  UNL     1      24.994   2.012  54.443  1.00  0.00     0.167 HD
BRANCH  23  25
HETATM   25  C4  UNL     1      26.337   0.843  53.526  1.00  0.00     0.035 A 
HETATM   26  C3  UNL     1      27.473   1.607  53.652  1.00  0.00     0.032 A 
HETATM   27  C2  UNL     1      28.754   1.123  53.544  1.00  0.00     0.046 A 
HETATM   28  C1  UNL     1      28.973  -0.210  53.294  1.00  0.00     0.138 A 
HETATM   29  F1  UNL     1      30.187  -0.767  53.175  1.00  0.00    -0.204 F 
HETATM   30  C23 UNL     1      27.881  -1.015  53.162  1.00  0.00     0.074 A 
HETATM   31  C22 UNL     1      26.631  -0.480  53.278  1.00  0.00     0.056 A 
HETATM   32 CL1  UNL     1      28.083  -2.723  52.844  1.00  0.00    -0.081 Cl
ENDBRANCH  23  25
ENDBRANCH   1  23
TORSDOF 2
ENDMDL
MODEL 6
REMARK VINA RESULT:      -9.1      7.446      9.503
REMARK  2 active torsions:
REMARK  status: ('A' for Active; 'I' for Inactive)
REMARK    1  A    between atoms: C4_5  and  N1_6 
REMARK    2  A    between atoms: N1_6  and  C5_7 
ROOT
HETATM    1  C5  UNL     1      25.049   5.148  50.258  1.00  0.00     0.142 A 
HETATM    2  N2  UNL     1      23.993   5.427  50.995  1.00  0.00    -0.224 NA
HETATM    3  C6  UNL     1      23.535   6.656  51.243  1.00  0.00     0.236 A 
HETATM    4  N3  UNL     1      24.142   7.743  50.737  1.00  0.00    -0.241 NA
HETATM    5  C7  UNL     1      25.239   7.535  49.964  1.00  0.00     0.074 A 
HETATM    6  C8  UNL     1      25.837   8.671  49.461  1.00  0.00     0.070 A 
HETATM    7  C9  UNL     1      26.945   8.565  48.676  1.00  0.00     0.080 A 
HETATM    8  C10 UNL     1      27.438   7.307  48.408  1.00  0.00    -0.016 A 
HETATM    9  C11 UNL     1      26.787   6.216  48.945  1.00  0.00     0.028 A 
HETATM   10  C12 UNL     1      25.674   6.244  49.739  1.00  0.00     0.039 A 
HETATM   11  C13 UNL     1      28.627   6.982  47.578  1.00  0.00     0.057 C 
HETATM   12  C14 UNL     1      29.907   7.185  48.324  1.00  0.00     0.130 C 
HETATM   13  N4  UNL     1      30.507   8.455  48.244  1.00  0.00    -0.392 N 
HETATM   14  C15 UNL     1      30.808   9.155  49.406  1.00  0.00     0.119 C 
HETATM   15  C16 UNL     1      30.770  10.644  49.333  1.00  0.00     0.020 C 
HETATM   16  C17 UNL     1      31.279  11.215  48.051  1.00  0.00     0.005 C 
HETATM   17  C18 UNL     1      31.053  10.391  46.831  1.00  0.00     0.046 C 
HETATM   18  C19 UNL     1      30.339   9.104  47.006  1.00  0.00     0.178 C 
HETATM   19  N5  UNL     1      28.976   9.158  46.520  1.00  0.00    -0.370 N 
HETATM   20  C20 UNL     1      28.139  10.125  47.088  1.00  0.00     0.297 C 
HETATM   21  O1  UNL     1      27.432   9.779  48.248  1.00  0.00    -0.332 OA
HETATM   22  C21 UNL     1      28.493   7.845  46.340  1.00  0.00     0.132 C 
ENDROOT
BRANCH   1  23
HETATM   23  N1  UNL     1      25.560   3.873  49.977  1.00  0.00    -0.340 N 
HETATM   24  H3  UNL     1      25.983   3.630  49.082  1.00  0.00     0.167 HD
BRANCH  23  25
HETATM   25  C4  UNL     1      25.585   2.742  50.832  1.00  0.00     0.035 A 
HETATM   26  C3  UNL     1      26.748   2.153  51.269  1.00  0.00     0.032 A 
HETATM   27  C2  UNL     1      26.804   1.063  52.103  1.00  0.00     0.046 A 
HETATM   28  C1  UNL     1      25.649   0.481  52.563  1.00  0.00     0.138 A 
HETATM   29  F1  UNL     1      25.611  -0.583  53.379  1.00  0.00    -0.204 F 
HETATM   30  C23 UNL     1      24.465   1.025  52.162  1.00  0.00     0.074 A 
HETATM   31  C22 UNL     1      24.468   2.108  51.332  1.00  0.00     0.056 A 
HETATM   32 CL1  UNL     1      22.953   0.336  52.708  1.00  0.00    -0.081 Cl
ENDBRANCH  23  25
ENDBRANCH   1  23
TORSDOF 2
ENDMDL
MODEL 7
REMARK VINA RESULT:      -9.0      7.995     10.027
REMARK  2 active torsions:
REMARK  status: ('A' for Active; 'I' for Inactive)
REMARK    1  A    between atoms: C4_5  and  N1_6 
REMARK    2  A    between atoms: N1_6  and  C5_7 
ROOT
HETATM    1  C5  UNL     1      25.971   4.982  49.217  1.00  0.00     0.142 A 
HETATM    2  N2  UNL     1      24.667   5.140  49.102  1.00  0.00    -0.224 NA
HETATM    3  C6  UNL     1      24.071   6.137  48.444  1.00  0.00     0.236 A 
HETATM    4  N3  UNL     1      24.786   7.092  47.826  1.00  0.00    -0.241 NA
HETATM    5  C7  UNL     1      26.139   6.998  47.900  1.00  0.00     0.074 A 
HETATM    6  C8  UNL     1      26.842   7.993  47.256  1.00  0.00     0.070 A 
HETATM    7  C9  UNL     1      28.204   7.985  47.275  1.00  0.00     0.080 A 
HETATM    8  C10 UNL     1      28.842   6.967  47.948  1.00  0.00    -0.016 A 
HETATM    9  C11 UNL     1      28.073   6.004  48.570  1.00  0.00     0.028 A 
HETATM   10  C12 UNL     1      26.707   5.947  48.594  1.00  0.00     0.039 A 
HETATM   11  C13 UNL     1      30.310   6.781  48.084  1.00  0.00     0.057 C 
HETATM   12  C14 UNL     1      30.896   7.670  49.133  1.00  0.00     0.130 C 
HETATM   13  N4  UNL     1      31.344   8.940  48.728  1.00  0.00    -0.392 N 
HETATM   14  C15 UNL     1      30.863  10.081  49.358  1.00  0.00     0.119 C 
HETATM   15  C16 UNL     1      30.777  11.325  48.541  1.00  0.00     0.020 C 
HETATM   16  C17 UNL     1      31.900  11.512  47.576  1.00  0.00     0.005 C 
HETATM   17  C18 UNL     1      32.485  10.268  47.003  1.00  0.00     0.046 C 
HETATM   18  C19 UNL     1      31.889   8.980  47.430  1.00  0.00     0.178 C 
HETATM   19  N5  UNL     1      31.067   8.381  46.399  1.00  0.00    -0.370 N 
HETATM   20  C20 UNL     1      29.996   9.144  45.922  1.00  0.00     0.297 C 
HETATM   21  O1  UNL     1      28.768   9.038  46.592  1.00  0.00    -0.332 OA
HETATM   22  C21 UNL     1      30.869   7.017  46.696  1.00  0.00     0.132 C 
ENDROOT
BRANCH   1  23
HETATM   23  N1  UNL     1      26.631   3.951  49.898  1.00  0.00    -0.340 N 
HETATM   24  H3  UNL     1      27.622   3.750  49.773  1.00  0.00     0.167 HD
BRANCH  23  25
HETATM   25  C4  UNL     1      26.081   3.042  50.838  1.00  0.00     0.035 A 
HETATM   26  C3  UNL     1      24.935   3.299  51.553  1.00  0.00     0.032 A 
HETATM   27  C2  UNL     1      24.375   2.438  52.463  1.00  0.00     0.046 A 
HETATM   28  C1  UNL     1      24.957   1.220  52.716  1.00  0.00     0.138 A 
HETATM   29  F1  UNL     1      24.479   0.319  53.586  1.00  0.00    -0.204 F 
HETATM   30  C23 UNL     1      26.097   0.913  52.034  1.00  0.00     0.074 A 
HETATM   31  C22 UNL     1      26.610   1.807  51.141  1.00  0.00     0.056 A 
HETATM   32 CL1  UNL     1      26.895  -0.621  52.305  1.00  0.00    -0.081 Cl
ENDBRANCH  23  25
ENDBRANCH   1  23
TORSDOF 2
ENDMDL
MODEL 8
REMARK VINA RESULT:      -8.9     10.138     11.731
REMARK  2 active torsions:
REMARK  status: ('A' for Active; 'I' for Inactive)
REMARK    1  A    between atoms: C4_5  and  N1_6 
REMARK    2  A    between atoms: N1_6  and  C5_7 
ROOT
HETATM    1  C5  UNL     1      28.280   9.008  49.172  1.00  0.00     0.142 A 
HETATM    2  N2  UNL     1      26.986   8.757  49.179  1.00  0.00    -0.224 NA
HETATM    3  C6  UNL     1      26.431   7.587  48.854  1.00  0.00     0.236 A 
HETATM    4  N3  UNL     1      27.182   6.537  48.483  1.00  0.00    -0.241 NA
HETATM    5  C7  UNL     1      28.528   6.718  48.452  1.00  0.00     0.074 A 
HETATM    6  C8  UNL     1      29.268   5.622  48.066  1.00  0.00     0.070 A 
HETATM    7  C9  UNL     1      30.627   5.706  48.003  1.00  0.00     0.080 A 
HETATM    8  C10 UNL     1      31.222   6.904  48.332  1.00  0.00    -0.016 A 
HETATM    9  C11 UNL     1      30.418   7.959  48.709  1.00  0.00     0.028 A 
HETATM   10  C12 UNL     1      29.053   7.949  48.796  1.00  0.00     0.039 A 
HETATM   11  C13 UNL     1      32.679   7.197  48.327  1.00  0.00     0.057 C 
HETATM   12  C14 UNL     1      33.196   7.464  46.950  1.00  0.00     0.130 C 
HETATM   13  N4  UNL     1      33.667   6.363  46.212  1.00  0.00    -0.392 N 
HETATM   14  C15 UNL     1      33.145   6.097  44.952  1.00  0.00     0.119 C 
HETATM   15  C16 UNL     1      33.108   4.671  44.518  1.00  0.00     0.020 C 
HETATM   16  C17 UNL     1      34.290   3.864  44.941  1.00  0.00     0.005 C 
HETATM   17  C18 UNL     1      34.912   4.244  46.240  1.00  0.00     0.046 C 
HETATM   18  C19 UNL     1      34.293   5.367  46.984  1.00  0.00     0.178 C 
HETATM   19  N5  UNL     1      33.539   4.917  48.136  1.00  0.00    -0.370 N 
HETATM   20  C20 UNL     1      32.498   4.013  47.897  1.00  0.00     0.297 C 
HETATM   21  O1  UNL     1      31.231   4.537  47.604  1.00  0.00    -0.332 OA
HETATM   22  C21 UNL     1      33.324   6.006  49.006  1.00  0.00     0.132 C 
ENDROOT
BRANCH   1  23
HETATM   23  N1  UNL     1      28.898  10.221  49.505  1.00  0.00    -0.340 N 
HETATM   24  H3  UNL     1      29.335  10.391  50.410  1.00  0.00     0.167 HD
BRANCH  23  25
HETATM   25  C4  UNL     1      29.028  11.378  48.695  1.00  0.00     0.035 A 
HETATM   26  C3  UNL     1      28.326  12.539  48.921  1.00  0.00     0.032 A 
HETATM   27  C2  UNL     1      28.435  13.677  48.160  1.00  0.00     0.046 A 
HETATM   28  C1  UNL     1      29.290  13.714  47.086  1.00  0.00     0.138 A 
HETATM   29  F1  UNL     1      29.460  14.780  46.290  1.00  0.00    -0.204 F 
HETATM   30  C23 UNL     1      30.012  12.589  46.816  1.00  0.00     0.074 A 
HETATM   31  C22 UNL     1      29.864  11.487  47.605  1.00  0.00     0.056 A 
HETATM   32 CL1  UNL     1      31.121  12.563  45.463  1.00  0.00    -0.081 Cl
ENDBRANCH  23  25
ENDBRANCH   1  23
TORSDOF 2
ENDMDL
MODEL 9
REMARK VINA RESULT:      -8.8      4.605      7.854
REMARK  2 active torsions:
REMARK  status: ('A' for Active; 'I' for Inactive)
REMARK    1  A    between atoms: C4_5  and  N1_6 
REMARK    2  A    between atoms: N1_6  and  C5_7 
ROOT
HETATM    1  C5  UNL     1      22.959   1.491  51.654  1.00  0.00     0.142 A 
HETATM    2  N2  UNL     1      22.108   0.543  51.316  1.00  0.00    -0.224 NA
HETATM    3  C6  UNL     1      21.342   0.555  50.222  1.00  0.00     0.236 A 
HETATM    4  N3  UNL     1      21.386   1.578  49.351  1.00  0.00    -0.241 NA
HETATM    5  C7  UNL     1      22.241   2.594  49.632  1.00  0.00     0.074 A 
HETATM    6  C8  UNL     1      22.260   3.626  48.718  1.00  0.00     0.070 A 
HETATM    7  C9  UNL     1      23.085   4.693  48.914  1.00  0.00     0.080 A 
HETATM    8  C10 UNL     1      23.884   4.703  50.036  1.00  0.00    -0.016 A 
HETATM    9  C11 UNL     1      23.811   3.635  50.907  1.00  0.00     0.028 A 
HETATM   10  C12 UNL     1      23.011   2.535  50.777  1.00  0.00     0.039 A 
HETATM   11  C13 UNL     1      24.845   5.767  50.426  1.00  0.00     0.057 C 
HETATM   12  C14 UNL     1      24.164   6.939  51.056  1.00  0.00     0.130 C 
HETATM   13  N4  UNL     1      23.744   7.977  50.204  1.00  0.00    -0.392 N 
HETATM   14  C15 UNL     1      22.417   8.389  50.215  1.00  0.00     0.119 C 
HETATM   15  C16 UNL     1      21.860   8.921  48.937  1.00  0.00     0.020 C 
HETATM   16  C17 UNL     1      22.815   9.744  48.140  1.00  0.00     0.005 C 
HETATM   17  C18 UNL     1      24.251   9.361  48.238  1.00  0.00     0.046 C 
HETATM   18  C19 UNL     1      24.585   8.201  49.099  1.00  0.00     0.178 C 
HETATM   19  N5  UNL     1      24.919   7.020  48.330  1.00  0.00    -0.370 N 
HETATM   20  C20 UNL     1      23.949   6.552  47.437  1.00  0.00     0.297 C 
HETATM   21  O1  UNL     1      22.997   5.643  47.923  1.00  0.00    -0.332 OA
HETATM   22  C21 UNL     1      25.600   6.103  49.157  1.00  0.00     0.132 C 
ENDROOT
BRANCH   1  23
HETATM   23  N1  UNL     1      23.776   1.513  52.792  1.00  0.00    -0.340 N 
HETATM   24  H3  UNL     1      23.471   1.894  53.687  1.00  0.00     0.167 HD
BRANCH  23  25
HETATM   25  C4  UNL     1      25.107   1.037  52.912  1.00  0.00     0.035 A 
HETATM   26  C3  UNL     1      25.457  -0.279  52.723  1.00  0.00     0.032 A 
HETATM   27  C2  UNL     1      26.736  -0.768  52.824  1.00  0.00     0.046 A 
HETATM   28  C1  UNL     1      27.777   0.072  53.134  1.00  0.00     0.138 A 
HETATM   29  F1  UNL     1      29.055  -0.319  53.253  1.00  0.00    -0.204 F 
HETATM   30  C23 UNL     1      27.488   1.389  53.332  1.00  0.00     0.074 A 
HETATM   31  C22 UNL     1      26.199   1.821  53.219  1.00  0.00     0.056 A 
HETATM   32 CL1  UNL     1      28.764   2.518  53.730  1.00  0.00    -0.081 Cl
ENDBRANCH  23  25
ENDBRANCH   1  23
TORSDOF 2
ENDMDL
