MODEL 1
REMARK VINA RESULT:      -8.9      0.000      0.000
REMARK  6 active torsions:
REMARK  status: ('A' for Active; 'I' for Inactive)
REMARK    1  A    between atoms: C3_3  and  O1_4 
REMARK    2  A    between atoms: C3_3  and  C4_5 
REMARK    3  A    between atoms: C5_6  and  C6_7 
REMARK    4  A    between atoms: C9_10  and  N1_11 
REMARK    5  A    between atoms: N1_11  and  C10_12 
REMARK    6  A    between atoms: C10_12  and  C12_14 
ROOT
HETATM    1  C6  UNL     1      24.869   0.042  53.623  1.00  0.00    -0.005 A 
HETATM    2  C7  UNL     1      24.708   0.454  52.358  1.00  0.00     0.031 A 
HETATM    3  C8  UNL     1      25.917   1.237  52.370  1.00  0.00     0.040 A 
HETATM    4  C9  UNL     1      26.745   2.076  51.639  1.00  0.00     0.138 A 
HETATM    5  N2  UNL     1      27.842   2.517  52.310  1.00  0.00    -0.224 NA
HETATM    6  C19 UNL     1      28.033   2.121  53.582  1.00  0.00     0.236 A 
HETATM    7  N3  UNL     1      27.200   1.308  54.239  1.00  0.00    -0.240 NA
HETATM    8  C20 UNL     1      26.102   0.826  53.669  1.00  0.00     0.082 A 
ENDROOT
BRANCH   4   9
HETATM    9  N1  UNL     1      26.447   2.432  50.296  1.00  0.00    -0.366 N 
HETATM   10  H9  UNL     1      26.865   1.870  49.545  1.00  0.00     0.161 HD
BRANCH   9  11
HETATM   11  C10 UNL     1      25.572   3.570  50.130  1.00  0.00     0.112 C 
HETATM   12  C11 UNL     1      24.265   3.115  49.529  1.00  0.00     0.037 C 
BRANCH  11  13
HETATM   13  C12 UNL     1      26.193   4.680  49.393  1.00  0.00    -0.035 A 
HETATM   14  C13 UNL     1      25.373   5.741  49.064  1.00  0.00     0.009 A 
HETATM   15  C14 UNL     1      25.868   6.833  48.368  1.00  0.00     0.001 A 
HETATM   16  C15 UNL     1      27.193   6.885  47.989  1.00  0.00     0.007 A 
HETATM   17  C16 UNL     1      28.036   5.828  48.310  1.00  0.00    -0.061 A 
HETATM   18  C17 UNL     1      29.482   5.706  47.987  1.00  0.00     0.048 C 
HETATM   19  C18 UNL     1      27.519   4.737  49.010  1.00  0.00     0.016 A 
ENDBRANCH  11  13
ENDBRANCH   9  11
ENDBRANCH   4   9
BRANCH   1  20
HETATM   20  C5  UNL     1      24.069  -0.825  54.465  1.00  0.00     0.016 C 
HETATM   21  C4  UNL     1      22.783  -0.916  54.570  1.00  0.00     0.037 C 
BRANCH  21  22
HETATM   22  C3  UNL     1      21.438  -0.540  54.226  1.00  0.00     0.061 C 
HETATM   23  C2  UNL     1      20.669   0.301  53.578  1.00  0.00     0.005 C 
HETATM   24  C1  UNL     1      21.338   1.388  52.830  1.00  0.00     0.038 C 
BRANCH  22  25
HETATM   25  O1  UNL     1      20.876  -1.570  54.939  1.00  0.00    -0.361 OA
HETATM   26  H5  UNL     1      20.011  -2.015  54.683  1.00  0.00     0.217 HD
ENDBRANCH  22  25
ENDBRANCH  21  22
ENDBRANCH   1  20
TORSDOF 6
ENDMDL
MODEL 2
REMARK VINA RESULT:      -8.6      2.917      6.920
REMARK  6 active torsions:
REMARK  status: ('A' for Active; 'I' for Inactive)
REMARK    1  A    between atoms: C3_3  and  O1_4 
REMARK    2  A    between atoms: C3_3  and  C4_5 
REMARK    3  A    between atoms: C5_6  and  C6_7 
REMARK    4  A    between atoms: C9_10  and  N1_11 
REMARK    5  A    between atoms: N1_11  and  C10_12 
REMARK    6  A    between atoms: C10_12  and  C12_14 
ROOT
HETATM    1  C6  UNL     1      27.144   1.865  52.782  1.00  0.00    -0.005 A 
HETATM    2  C7  UNL     1      25.846   1.673  53.062  1.00  0.00     0.031 A 
HETATM    3  C8  UNL     1      25.404   2.313  51.849  1.00  0.00     0.040 A 
HETATM    4  C9  UNL     1      24.308   2.689  51.088  1.00  0.00     0.138 A 
HETATM    5  N2  UNL     1      24.614   3.325  49.926  1.00  0.00    -0.224 NA
HETATM    6  C19 UNL     1      25.907   3.533  49.616  1.00  0.00     0.236 A 
HETATM    7  N3  UNL     1      26.926   3.147  50.390  1.00  0.00    -0.240 NA
HETATM    8  C20 UNL     1      26.728   2.520  51.543  1.00  0.00     0.082 A 
ENDROOT
BRANCH   4   9
HETATM    9  N1  UNL     1      22.978   2.419  51.511  1.00  0.00    -0.366 N 
HETATM   10  H9  UNL     1      22.491   3.141  52.055  1.00  0.00     0.161 HD
BRANCH   9  11
HETATM   11  C10 UNL     1      22.446   1.132  51.123  1.00  0.00     0.112 C 
HETATM   12  C11 UNL     1      21.447   1.319  50.008  1.00  0.00     0.037 C 
BRANCH  11  13
HETATM   13  C12 UNL     1      21.916   0.356  52.252  1.00  0.00    -0.035 A 
HETATM   14  C13 UNL     1      20.554   0.128  52.262  1.00  0.00     0.009 A 
HETATM   15  C14 UNL     1      19.962  -0.594  53.287  1.00  0.00     0.001 A 
HETATM   16  C15 UNL     1      20.720  -1.102  54.321  1.00  0.00     0.007 A 
HETATM   17  C16 UNL     1      22.093  -0.884  54.330  1.00  0.00    -0.061 A 
HETATM   18  C17 UNL     1      23.067  -1.350  55.353  1.00  0.00     0.048 C 
HETATM   19  C18 UNL     1      22.671  -0.155  53.291  1.00  0.00     0.016 A 
ENDBRANCH  11  13
ENDBRANCH   9  11
ENDBRANCH   4   9
BRANCH   1  20
HETATM   20  C5  UNL     1      28.349   1.513  53.505  1.00  0.00     0.016 C 
HETATM   21  C4  UNL     1      28.920   0.360  53.646  1.00  0.00     0.037 C 
BRANCH  21  22
HETATM   22  C3  UNL     1      29.023  -1.057  53.422  1.00  0.00     0.061 C 
HETATM   23  C2  UNL     1      28.425  -2.143  52.996  1.00  0.00     0.005 C 
HETATM   24  C1  UNL     1      27.038  -2.000  52.501  1.00  0.00     0.038 C 
BRANCH  22  25
HETATM   25  O1  UNL     1      30.310  -1.125  53.894  1.00  0.00    -0.361 OA
HETATM   26  H5  UNL     1      30.831  -1.982  53.963  1.00  0.00     0.217 HD
ENDBRANCH  22  25
ENDBRANCH  21  22
ENDBRANCH   1  20
TORSDOF 6
ENDMDL
MODEL 3
REMARK VINA RESULT:      -8.4      2.874      6.955
REMARK  6 active torsions:
REMARK  status: ('A' for Active; 'I' for Inactive)
REMARK    1  A    between atoms: C3_3  and  O1_4 
REMARK    2  A    between atoms: C3_3  and  C4_5 
REMARK    3  A    between atoms: C5_6  and  C6_7 
REMARK    4  A    between atoms: C9_10  and  N1_11 
REMARK    5  A    between atoms: N1_11  and  C10_12 
REMARK    6  A    between atoms: C10_12  and  C12_14 
ROOT
HETATM    1  C6  UNL     1      26.645   2.349  51.220  1.00  0.00    -0.005 A 
HETATM    2  C7  UNL     1      25.801   1.373  51.587  1.00  0.00     0.031 A 
HETATM    3  C8  UNL     1      26.647   0.934  52.667  1.00  0.00     0.040 A 
HETATM    4  C9  UNL     1      26.799   0.028  53.706  1.00  0.00     0.138 A 
HETATM    5  N2  UNL     1      27.949   0.169  54.419  1.00  0.00    -0.224 NA
HETATM    6  C19 UNL     1      28.816   1.138  54.076  1.00  0.00     0.236 A 
HETATM    7  N3  UNL     1      28.617   1.986  53.062  1.00  0.00    -0.240 NA
HETATM    8  C20 UNL     1      27.526   1.928  52.307  1.00  0.00     0.082 A 
ENDROOT
BRANCH   4   9
HETATM    9  N1  UNL     1      25.817  -0.961  53.983  1.00  0.00    -0.366 N 
HETATM   10  H9  UNL     1      25.921  -1.880  53.536  1.00  0.00     0.161 HD
BRANCH   9  11
HETATM   11  C10 UNL     1      24.757  -0.557  54.878  1.00  0.00     0.112 C 
HETATM   12  C11 UNL     1      24.873  -1.328  56.171  1.00  0.00     0.037 C 
BRANCH  11  13
HETATM   13  C12 UNL     1      23.421  -0.638  54.274  1.00  0.00    -0.035 A 
HETATM   14  C13 UNL     1      22.464  -1.344  54.976  1.00  0.00     0.009 A 
HETATM   15  C14 UNL     1      21.174  -1.475  54.485  1.00  0.00     0.001 A 
HETATM   16  C15 UNL     1      20.816  -0.903  53.283  1.00  0.00     0.007 A 
HETATM   17  C16 UNL     1      21.763  -0.188  52.559  1.00  0.00    -0.061 A 
HETATM   18  C17 UNL     1      21.565   0.494  51.253  1.00  0.00     0.048 C 
HETATM   19  C18 UNL     1      23.056  -0.067  53.069  1.00  0.00     0.016 A 
ENDBRANCH  11  13
ENDBRANCH   9  11
ENDBRANCH   4   9
BRANCH   1  20
HETATM   20  C5  UNL     1      26.576   3.336  50.161  1.00  0.00     0.016 C 
HETATM   21  C4  UNL     1      25.823   4.383  50.056  1.00  0.00     0.037 C 
BRANCH  21  22
HETATM   22  C3  UNL     1      24.803   5.282  50.525  1.00  0.00     0.061 C 
HETATM   23  C2  UNL     1      23.562   5.414  50.928  1.00  0.00     0.005 C 
HETATM   24  C1  UNL     1      22.731   4.190  50.967  1.00  0.00     0.038 C 
BRANCH  22  25
HETATM   25  O1  UNL     1      25.623   6.381  50.467  1.00  0.00    -0.361 OA
HETATM   26  H5  UNL     1      26.006   6.744  49.611  1.00  0.00     0.217 HD
ENDBRANCH  22  25
ENDBRANCH  21  22
ENDBRANCH   1  20
TORSDOF 6
ENDMDL
MODEL 4
REMARK VINA RESULT:      -8.4      1.637      3.100
REMARK  6 active torsions:
REMARK  status: ('A' for Active; 'I' for Inactive)
REMARK    1  A    between atoms: C3_3  and  O1_4 
REMARK    2  A    between atoms: C3_3  and  C4_5 
REMARK    3  A    between atoms: C5_6  and  C6_7 
REMARK    4  A    between atoms: C9_10  and  N1_11 
REMARK    5  A    between atoms: N1_11  and  C10_12 
REMARK    6  A    between atoms: C10_12  and  C12_14 
ROOT
HETATM    1  C6  UNL     1      24.163   0.134  53.444  1.00  0.00    -0.005 A 
HETATM    2  C7  UNL     1      24.115   1.291  52.769  1.00  0.00     0.031 A 
HETATM    3  C8  UNL     1      25.548   1.391  52.672  1.00  0.00     0.040 A 
HETATM    4  C9  UNL     1      26.614   2.143  52.202  1.00  0.00     0.138 A 
HETATM    5  N2  UNL     1      27.841   1.623  52.474  1.00  0.00    -0.224 NA
HETATM    6  C19 UNL     1      27.924   0.463  53.150  1.00  0.00     0.236 A 
HETATM    7  N3  UNL     1      26.859  -0.222  53.579  1.00  0.00    -0.240 NA
HETATM    8  C20 UNL     1      25.621   0.205  53.363  1.00  0.00     0.082 A 
ENDROOT
BRANCH   4   9
HETATM    9  N1  UNL     1      26.414   3.360  51.496  1.00  0.00    -0.366 N 
HETATM   10  H9  UNL     1      26.581   4.240  51.997  1.00  0.00     0.161 HD
BRANCH   9  11
HETATM   11  C10 UNL     1      25.985   3.224  50.122  1.00  0.00     0.112 C 
HETATM   12  C11 UNL     1      26.894   4.036  49.231  1.00  0.00     0.037 C 
BRANCH  11  13
HETATM   13  C12 UNL     1      24.561   3.522  49.923  1.00  0.00    -0.035 A 
HETATM   14  C13 UNL     1      23.993   4.441  50.784  1.00  0.00     0.009 A 
HETATM   15  C14 UNL     1      22.655   4.786  50.674  1.00  0.00     0.001 A 
HETATM   16  C15 UNL     1      21.859   4.220  49.701  1.00  0.00     0.007 A 
HETATM   17  C16 UNL     1      22.410   3.293  48.824  1.00  0.00    -0.061 A 
HETATM   18  C17 UNL     1      21.714   2.583  47.719  1.00  0.00     0.048 C 
HETATM   19  C18 UNL     1      23.758   2.958  48.950  1.00  0.00     0.016 A 
ENDBRANCH  11  13
ENDBRANCH   9  11
ENDBRANCH   4   9
BRANCH   1  20
HETATM   20  C5  UNL     1      23.118  -0.720  53.972  1.00  0.00     0.016 C 
HETATM   21  C4  UNL     1      21.848  -0.721  53.721  1.00  0.00     0.037 C 
BRANCH  21  22
HETATM   22  C3  UNL     1      20.670  -0.226  53.061  1.00  0.00     0.061 C 
HETATM   23  C2  UNL     1      20.161   0.275  51.962  1.00  0.00     0.005 C 
HETATM   24  C1  UNL     1      21.083   0.473  50.822  1.00  0.00     0.038 C 
BRANCH  22  25
HETATM   25  O1  UNL     1      19.866  -0.434  54.154  1.00  0.00    -0.361 OA
HETATM   26  H5  UNL     1      19.545   0.305  54.757  1.00  0.00     0.217 HD
ENDBRANCH  22  25
ENDBRANCH  21  22
ENDBRANCH   1  20
TORSDOF 6
ENDMDL
MODEL 5
REMARK VINA RESULT:      -8.4      3.287      7.569
REMARK  6 active torsions:
REMARK  status: ('A' for Active; 'I' for Inactive)
REMARK    1  A    between atoms: C3_3  and  O1_4 
REMARK    2  A    between atoms: C3_3  and  C4_5 
REMARK    3  A    between atoms: C5_6  and  C6_7 
REMARK    4  A    between atoms: C9_10  and  N1_11 
REMARK    5  A    between atoms: N1_11  and  C10_12 
REMARK    6  A    between atoms: C10_12  and  C12_14 
ROOT
HETATM    1  C6  UNL     1      26.481   3.768  49.591  1.00  0.00    -0.005 A 
HETATM    2  C7  UNL     1      26.582   3.150  50.777  1.00  0.00     0.031 A 
HETATM    3  C8  UNL     1      25.181   2.816  50.815  1.00  0.00     0.040 A 
HETATM    4  C9  UNL     1      24.171   2.199  51.538  1.00  0.00     0.138 A 
HETATM    5  N2  UNL     1      22.945   2.241  50.951  1.00  0.00    -0.224 NA
HETATM    6  C19 UNL     1      22.811   2.854  49.761  1.00  0.00     0.236 A 
HETATM    7  N3  UNL     1      23.823   3.434  49.108  1.00  0.00    -0.240 NA
HETATM    8  C20 UNL     1      25.056   3.445  49.599  1.00  0.00     0.082 A 
ENDROOT
BRANCH   4   9
HETATM    9  N1  UNL     1      24.423   1.579  52.791  1.00  0.00    -0.366 N 
HETATM   10  H9  UNL     1      24.256   2.128  53.642  1.00  0.00     0.161 HD
BRANCH   9  11
HETATM   11  C10 UNL     1      24.897   0.215  52.731  1.00  0.00     0.112 C 
HETATM   12  C11 UNL     1      23.953  -0.679  53.497  1.00  0.00     0.037 C 
BRANCH  11  13
HETATM   13  C12 UNL     1      26.300   0.066  53.144  1.00  0.00    -0.035 A 
HETATM   14  C13 UNL     1      26.875   1.147  53.783  1.00  0.00     0.009 A 
HETATM   15  C14 UNL     1      28.194   1.101  54.208  1.00  0.00     0.001 A 
HETATM   16  C15 UNL     1      28.961  -0.026  54.006  1.00  0.00     0.007 A 
HETATM   17  C16 UNL     1      28.401  -1.126  53.366  1.00  0.00    -0.061 A 
HETATM   18  C17 UNL     1      29.067  -2.420  53.061  1.00  0.00     0.048 C 
HETATM   19  C18 UNL     1      27.073  -1.061  52.944  1.00  0.00     0.016 A 
ENDBRANCH  11  13
ENDBRANCH   9  11
ENDBRANCH   4   9
BRANCH   1  20
HETATM   20  C5  UNL     1      27.467   4.435  48.764  1.00  0.00     0.016 C 
HETATM   21  C4  UNL     1      27.586   5.690  48.471  1.00  0.00     0.037 C 
BRANCH  21  22
HETATM   22  C3  UNL     1      27.179   7.067  48.540  1.00  0.00     0.061 C 
HETATM   23  C2  UNL     1      26.268   7.956  48.226  1.00  0.00     0.005 C 
HETATM   24  C1  UNL     1      25.089   7.475  47.471  1.00  0.00     0.038 C 
BRANCH  22  25
HETATM   25  O1  UNL     1      28.296   7.452  49.240  1.00  0.00    -0.361 OA
HETATM   26  H5  UNL     1      28.406   7.313  50.229  1.00  0.00     0.217 HD
ENDBRANCH  22  25
ENDBRANCH  21  22
ENDBRANCH   1  20
TORSDOF 6
ENDMDL
MODEL 6
REMARK VINA RESULT:      -8.3      2.692      4.571
REMARK  6 active torsions:
REMARK  status: ('A' for Active; 'I' for Inactive)
REMARK    1  A    between atoms: C3_3  and  O1_4 
REMARK    2  A    between atoms: C3_3  and  C4_5 
REMARK    3  A    between atoms: C5_6  and  C6_7 
REMARK    4  A    between atoms: C9_10  and  N1_11 
REMARK    5  A    between atoms: N1_11  and  C10_12 
REMARK    6  A    between atoms: C10_12  and  C12_14 
ROOT
HETATM    1  C6  UNL     1      24.750   0.376  53.339  1.00  0.00    -0.005 A 
HETATM    2  C7  UNL     1      25.022   1.002  52.185  1.00  0.00     0.031 A 
HETATM    3  C8  UNL     1      23.633   1.259  51.901  1.00  0.00     0.040 A 
HETATM    4  C9  UNL     1      22.731   1.822  51.010  1.00  0.00     0.138 A 
HETATM    5  N2  UNL     1      21.426   1.710  51.375  1.00  0.00    -0.224 NA
HETATM    6  C19 UNL     1      21.121   1.087  52.528  1.00  0.00     0.236 A 
HETATM    7  N3  UNL     1      22.034   0.563  53.351  1.00  0.00    -0.240 NA
HETATM    8  C20 UNL     1      23.333   0.621  53.082  1.00  0.00     0.082 A 
ENDROOT
BRANCH   4   9
HETATM    9  N1  UNL     1      23.164   2.458  49.815  1.00  0.00    -0.366 N 
HETATM   10  H9  UNL     1      23.358   1.867  48.999  1.00  0.00     0.161 HD
BRANCH   9  11
HETATM   11  C10 UNL     1      23.286   3.897  49.882  1.00  0.00     0.112 C 
HETATM   12  C11 UNL     1      22.146   4.533  49.123  1.00  0.00     0.037 C 
BRANCH  11  13
HETATM   13  C12 UNL     1      24.606   4.390  49.465  1.00  0.00    -0.035 A 
HETATM   14  C13 UNL     1      25.671   3.528  49.635  1.00  0.00     0.009 A 
HETATM   15  C14 UNL     1      26.955   3.905  49.272  1.00  0.00     0.001 A 
HETATM   16  C15 UNL     1      27.197   5.150  48.730  1.00  0.00     0.007 A 
HETATM   17  C16 UNL     1      26.139   6.033  48.551  1.00  0.00    -0.061 A 
HETATM   18  C17 UNL     1      26.205   7.407  47.987  1.00  0.00     0.048 C 
HETATM   19  C18 UNL     1      24.855   5.636  48.923  1.00  0.00     0.016 A 
ENDBRANCH  11  13
ENDBRANCH   9  11
ENDBRANCH   4   9
BRANCH   1  20
HETATM   20  C5  UNL     1      25.612  -0.239  54.329  1.00  0.00     0.016 C 
HETATM   21  C4  UNL     1      26.880  -0.080  54.532  1.00  0.00     0.037 C 
BRANCH  21  22
HETATM   22  C3  UNL     1      28.163   0.501  54.241  1.00  0.00     0.061 C 
HETATM   23  C2  UNL     1      29.403   0.288  53.873  1.00  0.00     0.005 C 
HETATM   24  C1  UNL     1      29.795  -1.114  53.605  1.00  0.00     0.038 C 
BRANCH  22  25
HETATM   25  O1  UNL     1      27.739   1.780  54.504  1.00  0.00    -0.361 OA
HETATM   26  H5  UNL     1      26.787   2.083  54.396  1.00  0.00     0.217 HD
ENDBRANCH  22  25
ENDBRANCH  21  22
ENDBRANCH   1  20
TORSDOF 6
ENDMDL
MODEL 7
REMARK VINA RESULT:      -8.2      3.306      8.493
REMARK  6 active torsions:
REMARK  status: ('A' for Active; 'I' for Inactive)
REMARK    1  A    between atoms: C3_3  and  O1_4 
REMARK    2  A    between atoms: C3_3  and  C4_5 
REMARK    3  A    between atoms: C5_6  and  C6_7 
REMARK    4  A    between atoms: C9_10  and  N1_11 
REMARK    5  A    between atoms: N1_11  and  C10_12 
REMARK    6  A    between atoms: C10_12  and  C12_14 
ROOT
HETATM    1  C6  UNL     1      26.722   4.315  49.297  1.00  0.00    -0.005 A 
HETATM    2  C7  UNL     1      26.396   3.048  49.591  1.00  0.00     0.031 A 
HETATM    3  C8  UNL     1      25.194   3.429  50.286  1.00  0.00     0.040 A 
HETATM    4  C9  UNL     1      24.085   2.980  50.988  1.00  0.00     0.138 A 
HETATM    5  N2  UNL     1      23.247   3.961  51.416  1.00  0.00    -0.224 NA
HETATM    6  C19 UNL     1      23.545   5.243  51.137  1.00  0.00     0.236 A 
HETATM    7  N3  UNL     1      24.630   5.620  50.454  1.00  0.00    -0.240 NA
HETATM    8  C20 UNL     1      25.508   4.736  49.995  1.00  0.00     0.082 A 
ENDROOT
BRANCH   4   9
HETATM    9  N1  UNL     1      23.866   1.596  51.228  1.00  0.00    -0.366 N 
HETATM   10  H9  UNL     1      23.475   1.032  50.465  1.00  0.00     0.161 HD
BRANCH   9  11
HETATM   11  C10 UNL     1      24.224   1.126  52.547  1.00  0.00     0.112 C 
HETATM   12  C11 UNL     1      25.557   0.421  52.484  1.00  0.00     0.037 C 
BRANCH  11  13
HETATM   13  C12 UNL     1      23.173   0.320  53.184  1.00  0.00    -0.035 A 
HETATM   14  C13 UNL     1      23.572  -0.534  54.193  1.00  0.00     0.009 A 
HETATM   15  C14 UNL     1      22.652  -1.335  54.852  1.00  0.00     0.001 A 
HETATM   16  C15 UNL     1      21.316  -1.297  54.515  1.00  0.00     0.007 A 
HETATM   17  C16 UNL     1      20.892  -0.445  53.502  1.00  0.00    -0.061 A 
HETATM   18  C17 UNL     1      19.503  -0.268  53.003  1.00  0.00     0.048 C 
HETATM   19  C18 UNL     1      21.832   0.353  52.850  1.00  0.00     0.016 A 
ENDBRANCH  11  13
ENDBRANCH   9  11
ENDBRANCH   4   9
BRANCH   1  20
HETATM   20  C5  UNL     1      27.845   4.880  48.577  1.00  0.00     0.016 C 
HETATM   21  C4  UNL     1      28.109   6.115  48.297  1.00  0.00     0.037 C 
BRANCH  21  22
HETATM   22  C3  UNL     1      27.827   7.526  48.325  1.00  0.00     0.061 C 
HETATM   23  C2  UNL     1      27.128   8.511  47.816  1.00  0.00     0.005 C 
HETATM   24  C1  UNL     1      26.175   8.175  46.735  1.00  0.00     0.038 C 
BRANCH  22  25
HETATM   25  O1  UNL     1      28.728   7.774  49.330  1.00  0.00    -0.361 OA
HETATM   26  H5  UNL     1      29.721   7.829  49.185  1.00  0.00     0.217 HD
ENDBRANCH  22  25
ENDBRANCH  21  22
ENDBRANCH   1  20
TORSDOF 6
ENDMDL
MODEL 8
REMARK VINA RESULT:      -8.1      3.232      8.609
REMARK  6 active torsions:
REMARK  status: ('A' for Active; 'I' for Inactive)
REMARK    1  A    between atoms: C3_3  and  O1_4 
REMARK    2  A    between atoms: C3_3  and  C4_5 
REMARK    3  A    between atoms: C5_6  and  C6_7 
REMARK    4  A    between atoms: C9_10  and  N1_11 
REMARK    5  A    between atoms: N1_11  and  C10_12 
REMARK    6  A    between atoms: C10_12  and  C12_14 
ROOT
HETATM    1  C6  UNL     1      27.417   5.778  48.604  1.00  0.00    -0.005 A 
HETATM    2  C7  UNL     1      27.179   4.482  48.853  1.00  0.00     0.031 A 
HETATM    3  C8  UNL     1      25.983   4.761  49.607  1.00  0.00     0.040 A 
HETATM    4  C9  UNL     1      24.931   4.215  50.328  1.00  0.00     0.138 A 
HETATM    5  N2  UNL     1      24.054   5.125  50.829  1.00  0.00    -0.224 NA
HETATM    6  C19 UNL     1      24.265   6.433  50.597  1.00  0.00     0.236 A 
HETATM    7  N3  UNL     1      25.299   6.904  49.893  1.00  0.00    -0.240 NA
HETATM    8  C20 UNL     1      26.209   6.095  49.363  1.00  0.00     0.082 A 
ENDROOT
BRANCH   4   9
HETATM    9  N1  UNL     1      24.803   2.812  50.514  1.00  0.00    -0.366 N 
HETATM   10  H9  UNL     1      24.392   2.262  49.751  1.00  0.00     0.161 HD
BRANCH   9  11
HETATM   11  C10 UNL     1      25.275   2.304  51.782  1.00  0.00     0.112 C 
HETATM   12  C11 UNL     1      26.617   1.641  51.589  1.00  0.00     0.037 C 
BRANCH  11  13
HETATM   13  C12 UNL     1      24.298   1.445  52.465  1.00  0.00    -0.035 A 
HETATM   14  C13 UNL     1      24.796   0.323  53.100  1.00  0.00     0.009 A 
HETATM   15  C14 UNL     1      23.950  -0.547  53.770  1.00  0.00     0.001 A 
HETATM   16  C15 UNL     1      22.593  -0.313  53.820  1.00  0.00     0.007 A 
HETATM   17  C16 UNL     1      22.071   0.809  53.188  1.00  0.00    -0.061 A 
HETATM   18  C17 UNL     1      20.644   1.224  53.133  1.00  0.00     0.048 C 
HETATM   19  C18 UNL     1      22.936   1.674  52.518  1.00  0.00     0.016 A 
ENDBRANCH  11  13
ENDBRANCH   9  11
ENDBRANCH   4   9
BRANCH   1  20
HETATM   20  C5  UNL     1      28.476   6.440  47.869  1.00  0.00     0.016 C 
HETATM   21  C4  UNL     1      29.752   6.224  47.885  1.00  0.00     0.037 C 
BRANCH  21  22
HETATM   22  C3  UNL     1      30.931   5.534  48.336  1.00  0.00     0.061 C 
HETATM   23  C2  UNL     1      32.027   4.903  47.992  1.00  0.00     0.005 C 
HETATM   24  C1  UNL     1      32.301   4.765  46.544  1.00  0.00     0.038 C 
BRANCH  22  25
HETATM   25  O1  UNL     1      30.622   5.695  49.664  1.00  0.00    -0.361 OA
HETATM   26  H5  UNL     1      29.803   6.178  49.989  1.00  0.00     0.217 HD
ENDBRANCH  22  25
ENDBRANCH  21  22
ENDBRANCH   1  20
TORSDOF 6
ENDMDL
MODEL 9
REMARK VINA RESULT:      -8.0      3.229      8.146
REMARK  6 active torsions:
REMARK  status: ('A' for Active; 'I' for Inactive)
REMARK    1  A    between atoms: C3_3  and  O1_4 
REMARK    2  A    between atoms: C3_3  and  C4_5 
REMARK    3  A    between atoms: C5_6  and  C6_7 
REMARK    4  A    between atoms: C9_10  and  N1_11 
REMARK    5  A    between atoms: N1_11  and  C10_12 
REMARK    6  A    between atoms: C10_12  and  C12_14 
ROOT
HETATM    1  C6  UNL     1      26.614   4.015  49.454  1.00  0.00    -0.005 A 
HETATM    2  C7  UNL     1      25.276   3.934  49.443  1.00  0.00     0.031 A 
HETATM    3  C8  UNL     1      25.236   3.051  50.580  1.00  0.00     0.040 A 
HETATM    4  C9  UNL     1      24.423   2.330  51.442  1.00  0.00     0.138 A 
HETATM    5  N2  UNL     1      25.089   1.632  52.400  1.00  0.00    -0.224 NA
HETATM    6  C19 UNL     1      26.432   1.692  52.439  1.00  0.00     0.236 A 
HETATM    7  N3  UNL     1      27.167   2.406  51.580  1.00  0.00    -0.240 NA
HETATM    8  C20 UNL     1      26.609   3.120  50.609  1.00  0.00     0.082 A 
ENDROOT
BRANCH   4   9
HETATM    9  N1  UNL     1      23.008   2.336  51.312  1.00  0.00    -0.366 N 
HETATM   10  H9  UNL     1      22.501   3.178  51.608  1.00  0.00     0.161 HD
BRANCH   9  11
HETATM   11  C10 UNL     1      22.425   1.131  50.766  1.00  0.00     0.112 C 
HETATM   12  C11 UNL     1      21.901   1.412  49.378  1.00  0.00     0.037 C 
BRANCH  11  13
HETATM   13  C12 UNL     1      21.424   0.516  51.649  1.00  0.00    -0.035 A 
HETATM   14  C13 UNL     1      21.893  -0.043  52.822  1.00  0.00     0.009 A 
HETATM   15  C14 UNL     1      21.024  -0.647  53.717  1.00  0.00     0.001 A 
HETATM   16  C15 UNL     1      19.671  -0.702  53.458  1.00  0.00     0.007 A 
HETATM   17  C16 UNL     1      19.178  -0.145  52.284  1.00  0.00    -0.061 A 
HETATM   18  C17 UNL     1      17.761  -0.109  51.836  1.00  0.00     0.048 C 
HETATM   19  C18 UNL     1      20.067   0.458  51.395  1.00  0.00     0.016 A 
ENDBRANCH  11  13
ENDBRANCH   9  11
ENDBRANCH   4   9
BRANCH   1  20
HETATM   20  C5  UNL     1      27.544   4.734  48.606  1.00  0.00     0.016 C 
HETATM   21  C4  UNL     1      27.648   6.004  48.387  1.00  0.00     0.037 C 
BRANCH  21  22
HETATM   22  C3  UNL     1      27.253   7.375  48.571  1.00  0.00     0.061 C 
HETATM   23  C2  UNL     1      26.338   8.288  48.354  1.00  0.00     0.005 C 
HETATM   24  C1  UNL     1      25.132   7.870  47.605  1.00  0.00     0.038 C 
BRANCH  22  25
HETATM   25  O1  UNL     1      28.395   7.701  49.260  1.00  0.00    -0.361 OA
HETATM   26  H5  UNL     1      28.895   7.054  49.845  1.00  0.00     0.217 HD
ENDBRANCH  22  25
ENDBRANCH  21  22
ENDBRANCH   1  20
TORSDOF 6
ENDMDL
