MODEL 1
REMARK VINA RESULT:      -9.3      0.000      0.000
REMARK  5 active torsions:
REMARK  status: ('A' for Active; 'I' for Inactive)
REMARK       I    between atoms: C1_2  and  N1_3 
REMARK    1  A    between atoms: C1_2  and  C17_22 
REMARK    2  A    between atoms: N1_3  and  C2_4 
REMARK    3  A    between atoms: C6_8  and  N2_9 
REMARK    4  A    between atoms: N2_9  and  C7_10 
REMARK    5  A    between atoms: C10_13  and  C11_14 
ROOT
HETATM    1  C2  UNL     1      29.155   5.903  47.826  1.00  0.00     0.036 A 
HETATM    2  C3  UNL     1      28.826   7.183  47.415  1.00  0.00     0.029 A 
HETATM    3  C4  UNL     1      27.632   7.805  47.723  1.00  0.00     0.004 A 
HETATM    4  C5  UNL     1      26.750   7.046  48.496  1.00  0.00     0.029 A 
HETATM    5  C6  UNL     1      27.061   5.768  48.916  1.00  0.00     0.032 A 
HETATM    6  C16 UNL     1      28.262   5.179  48.589  1.00  0.00     0.058 A 
ENDROOT
BRANCH   5   7
HETATM    7  N2  UNL     1      26.106   5.062  49.701  1.00  0.00    -0.364 N 
HETATM    8  H5  UNL     1      25.448   5.585  50.335  1.00  0.00     0.162 HD
BRANCH   7   9
HETATM    9  C7  UNL     1      26.031   3.623  49.633  1.00  0.00     0.230 A 
HETATM   10  C8  UNL     1      24.779   3.086  50.198  1.00  0.00     0.023 A 
HETATM   11  C9  UNL     1      25.027   2.332  51.248  1.00  0.00     0.032 A 
HETATM   12  C10 UNL     1      26.478   2.368  51.386  1.00  0.00     0.065 A 
HETATM   13  N4  UNL     1      27.069   3.086  50.492  1.00  0.00    -0.259 NA
BRANCH  12  14
HETATM   14  C11 UNL     1      27.196   1.645  52.457  1.00  0.00     0.010 A 
HETATM   15  C12 UNL     1      27.083   0.276  52.628  1.00  0.00     0.017 A 
HETATM   16  C13 UNL     1      27.778  -0.354  53.648  1.00  0.00     0.020 A 
HETATM   17  C14 UNL     1      28.580   0.373  54.493  1.00  0.00     0.116 A 
HETATM   18  N3  UNL     1      28.699   1.708  54.336  1.00  0.00    -0.272 NA
HETATM   19  C15 UNL     1      28.019   2.305  53.342  1.00  0.00     0.130 A 
ENDBRANCH  12  14
ENDBRANCH   7   9
ENDBRANCH   5   7
BRANCH   1  20
HETATM   20  N1  UNL     1      30.402   5.312  47.479  1.00  0.00    -0.327 N 
HETATM   21  C1  UNL     1      31.497   5.178  48.348  1.00  0.00     0.226 C 
HETATM   22  O1  UNL     1      31.305   5.635  49.515  1.00  0.00    -0.273 OA
HETATM   23  H1  UNL     1      30.250   5.037  46.467  1.00  0.00     0.169 HD
BRANCH  21  24
HETATM   24  C17 UNL     1      32.661   4.523  47.715  1.00  0.00     0.078 C 
HETATM   25  C18 UNL     1      33.970   5.067  48.200  1.00  0.00     0.014 C 
HETATM   26  C19 UNL     1      35.039   4.014  47.928  1.00  0.00     0.001 C 
HETATM   27  C20 UNL     1      34.648   3.249  46.695  1.00  0.00     0.000 C 
HETATM   28  C21 UNL     1      33.935   4.106  45.661  1.00  0.00     0.001 C 
HETATM   29  C22 UNL     1      32.645   4.673  46.210  1.00  0.00     0.014 C 
ENDBRANCH  21  24
ENDBRANCH   1  20
TORSDOF 5
ENDMDL
MODEL 2
REMARK VINA RESULT:      -9.3      4.148      6.631
REMARK  5 active torsions:
REMARK  status: ('A' for Active; 'I' for Inactive)
REMARK       I    between atoms: C1_2  and  N1_3 
REMARK    1  A    between atoms: C1_2  and  C17_22 
REMARK    2  A    between atoms: N1_3  and  C2_4 
REMARK    3  A    between atoms: C6_8  and  N2_9 
REMARK    4  A    between atoms: N2_9  and  C7_10 
REMARK    5  A    between atoms: C10_13  and  C11_14 
ROOT
HETATM    1  C2  UNL     1      23.105   2.366  49.916  1.00  0.00     0.036 A 
HETATM    2  C3  UNL     1      22.160   1.956  48.992  1.00  0.00     0.029 A 
HETATM    3  C4  UNL     1      21.137   1.074  49.280  1.00  0.00     0.004 A 
HETATM    4  C5  UNL     1      21.110   0.606  50.596  1.00  0.00     0.029 A 
HETATM    5  C6  UNL     1      22.043   1.004  51.533  1.00  0.00     0.032 A 
HETATM    6  C16 UNL     1      23.051   1.886  51.209  1.00  0.00     0.058 A 
ENDROOT
BRANCH   5   7
HETATM    7  N2  UNL     1      21.945   0.480  52.853  1.00  0.00    -0.364 N 
HETATM    8  H5  UNL     1      21.345   0.961  53.572  1.00  0.00     0.162 HD
BRANCH   7   9
HETATM    9  C7  UNL     1      22.667  -0.714  53.215  1.00  0.00     0.230 A 
HETATM   10  C8  UNL     1      22.701  -0.944  54.672  1.00  0.00     0.023 A 
HETATM   11  C9  UNL     1      23.936  -0.893  55.123  1.00  0.00     0.032 A 
HETATM   12  C10 UNL     1      24.744  -0.623  53.939  1.00  0.00     0.065 A 
HETATM   13  N4  UNL     1      24.057  -0.518  52.853  1.00  0.00    -0.259 NA
BRANCH  12  14
HETATM   14  C11 UNL     1      26.215  -0.484  53.992  1.00  0.00     0.010 A 
HETATM   15  C12 UNL     1      27.049  -1.108  53.080  1.00  0.00     0.017 A 
HETATM   16  C13 UNL     1      28.421  -0.944  53.173  1.00  0.00     0.020 A 
HETATM   17  C14 UNL     1      28.962  -0.166  54.167  1.00  0.00     0.116 A 
HETATM   18  N3  UNL     1      28.160   0.448  55.061  1.00  0.00    -0.272 NA
HETATM   19  C15 UNL     1      26.830   0.280  54.958  1.00  0.00     0.130 A 
ENDBRANCH  12  14
ENDBRANCH   7   9
ENDBRANCH   5   7
BRANCH   1  20
HETATM   20  N1  UNL     1      24.138   3.279  49.564  1.00  0.00    -0.327 N 
HETATM   21  C1  UNL     1      23.960   4.657  49.368  1.00  0.00     0.226 C 
HETATM   22  O1  UNL     1      22.770   5.065  49.530  1.00  0.00    -0.273 OA
HETATM   23  H1  UNL     1      24.988   2.649  49.505  1.00  0.00     0.169 HD
BRANCH  21  24
HETATM   24  C17 UNL     1      25.211   5.358  49.009  1.00  0.00     0.078 C 
HETATM   25  C18 UNL     1      26.439   4.614  49.437  1.00  0.00     0.014 C 
HETATM   26  C19 UNL     1      27.601   5.107  48.582  1.00  0.00     0.001 C 
HETATM   27  C20 UNL     1      27.354   6.546  48.230  1.00  0.00     0.000 C 
HETATM   28  C21 UNL     1      26.649   7.318  49.333  1.00  0.00     0.001 C 
HETATM   29  C22 UNL     1      25.285   6.736  49.629  1.00  0.00     0.014 C 
ENDBRANCH  21  24
ENDBRANCH   1  20
TORSDOF 5
ENDMDL
MODEL 3
REMARK VINA RESULT:      -9.2      3.274      7.554
REMARK  5 active torsions:
REMARK  status: ('A' for Active; 'I' for Inactive)
REMARK       I    between atoms: C1_2  and  N1_3 
REMARK    1  A    between atoms: C1_2  and  C17_22 
REMARK    2  A    between atoms: N1_3  and  C2_4 
REMARK    3  A    between atoms: C6_8  and  N2_9 
REMARK    4  A    between atoms: N2_9  and  C7_10 
REMARK    5  A    between atoms: C10_13  and  C11_14 
ROOT
HETATM    1  C2  UNL     1      24.084   1.971  52.766  1.00  0.00     0.036 A 
HETATM    2  C3  UNL     1      22.880   1.307  52.617  1.00  0.00     0.029 A 
HETATM    3  C4  UNL     1      21.684   1.939  52.335  1.00  0.00     0.004 A 
HETATM    4  C5  UNL     1      21.764   3.328  52.205  1.00  0.00     0.029 A 
HETATM    5  C6  UNL     1      22.956   4.008  52.350  1.00  0.00     0.032 A 
HETATM    6  C16 UNL     1      24.130   3.344  52.631  1.00  0.00     0.058 A 
ENDROOT
BRANCH   5   7
HETATM    7  N2  UNL     1      22.951   5.424  52.202  1.00  0.00    -0.364 N 
HETATM    8  H5  UNL     1      22.858   6.046  53.047  1.00  0.00     0.162 HD
BRANCH   7   9
HETATM    9  C7  UNL     1      23.074   6.019  50.894  1.00  0.00     0.230 A 
HETATM   10  C8  UNL     1      22.783   5.070  49.803  1.00  0.00     0.023 A 
HETATM   11  C9  UNL     1      23.848   4.878  49.055  1.00  0.00     0.032 A 
HETATM   12  C10 UNL     1      24.874   5.718  49.662  1.00  0.00     0.065 A 
HETATM   13  N4  UNL     1      24.466   6.371  50.697  1.00  0.00    -0.259 NA
BRANCH  12  14
HETATM   14  C11 UNL     1      26.251   5.806  49.132  1.00  0.00     0.010 A 
HETATM   15  C12 UNL     1      26.817   7.006  48.740  1.00  0.00     0.017 A 
HETATM   16  C13 UNL     1      28.112   7.034  48.251  1.00  0.00     0.020 A 
HETATM   17  C14 UNL     1      28.841   5.874  48.150  1.00  0.00     0.116 A 
HETATM   18  N3  UNL     1      28.301   4.697  48.529  1.00  0.00    -0.272 NA
HETATM   19  C15 UNL     1      27.043   4.687  49.003  1.00  0.00     0.130 A 
ENDBRANCH  12  14
ENDBRANCH   7   9
ENDBRANCH   5   7
BRANCH   1  20
HETATM   20  N1  UNL     1      25.287   1.268  53.056  1.00  0.00    -0.327 N 
HETATM   21  C1  UNL     1      26.394   1.182  52.197  1.00  0.00     0.226 C 
HETATM   22  O1  UNL     1      26.257   1.795  51.094  1.00  0.00    -0.273 OA
HETATM   23  H1  UNL     1      25.095   0.877  54.022  1.00  0.00     0.169 HD
BRANCH  21  24
HETATM   24  C17 UNL     1      27.504   0.385  52.761  1.00  0.00     0.078 C 
HETATM   25  C18 UNL     1      27.159  -1.063  52.922  1.00  0.00     0.014 C 
HETATM   26  C19 UNL     1      28.465  -1.848  52.977  1.00  0.00     0.001 C 
HETATM   27  C20 UNL     1      29.516  -0.976  53.604  1.00  0.00     0.000 C 
HETATM   28  C21 UNL     1      28.965  -0.056  54.681  1.00  0.00     0.001 C 
HETATM   29  C22 UNL     1      27.933   0.896  54.119  1.00  0.00     0.014 C 
ENDBRANCH  21  24
ENDBRANCH   1  20
TORSDOF 5
ENDMDL
MODEL 4
REMARK VINA RESULT:      -8.8      4.669      6.617
REMARK  5 active torsions:
REMARK  status: ('A' for Active; 'I' for Inactive)
REMARK       I    between atoms: C1_2  and  N1_3 
REMARK    1  A    between atoms: C1_2  and  C17_22 
REMARK    2  A    between atoms: N1_3  and  C2_4 
REMARK    3  A    between atoms: C6_8  and  N2_9 
REMARK    4  A    between atoms: N2_9  and  C7_10 
REMARK    5  A    between atoms: C10_13  and  C11_14 
ROOT
HETATM    1  C2  UNL     1      25.841   3.184  50.147  1.00  0.00     0.036 A 
HETATM    2  C3  UNL     1      26.415   4.378  49.748  1.00  0.00     0.029 A 
HETATM    3  C4  UNL     1      25.730   5.373  49.078  1.00  0.00     0.004 A 
HETATM    4  C5  UNL     1      24.385   5.096  48.819  1.00  0.00     0.029 A 
HETATM    5  C6  UNL     1      23.795   3.911  49.210  1.00  0.00     0.032 A 
HETATM    6  C16 UNL     1      24.510   2.941  49.877  1.00  0.00     0.058 A 
ENDROOT
BRANCH   5   7
HETATM    7  N2  UNL     1      22.419   3.707  48.907  1.00  0.00    -0.364 N 
HETATM    8  H5  UNL     1      22.113   3.540  47.913  1.00  0.00     0.162 HD
BRANCH   7   9
HETATM    9  C7  UNL     1      21.433   3.726  49.959  1.00  0.00     0.230 A 
HETATM   10  C8  UNL     1      21.817   4.591  51.090  1.00  0.00     0.023 A 
HETATM   11  C9  UNL     1      21.967   3.883  52.189  1.00  0.00     0.032 A 
HETATM   12  C10 UNL     1      21.675   2.513  51.780  1.00  0.00     0.065 A 
HETATM   13  N4  UNL     1      21.372   2.396  50.532  1.00  0.00    -0.259 NA
BRANCH  12  14
HETATM   14  C11 UNL     1      21.726   1.372  52.719  1.00  0.00     0.010 A 
HETATM   15  C12 UNL     1      22.860   0.594  52.874  1.00  0.00     0.017 A 
HETATM   16  C13 UNL     1      22.856  -0.464  53.769  1.00  0.00     0.020 A 
HETATM   17  C14 UNL     1      21.731  -0.748  54.503  1.00  0.00     0.116 A 
HETATM   18  N3  UNL     1      20.619   0.004  54.361  1.00  0.00    -0.272 NA
HETATM   19  C15 UNL     1      20.639   1.027  53.490  1.00  0.00     0.130 A 
ENDBRANCH  12  14
ENDBRANCH   7   9
ENDBRANCH   5   7
BRANCH   1  20
HETATM   20  N1  UNL     1      26.596   2.194  50.837  1.00  0.00    -0.327 N 
HETATM   21  C1  UNL     1      26.489   1.913  52.208  1.00  0.00     0.226 C 
HETATM   22  O1  UNL     1      25.641   2.624  52.830  1.00  0.00    -0.273 OA
HETATM   23  H1  UNL     1      27.195   1.786  50.064  1.00  0.00     0.169 HD
BRANCH  21  24
HETATM   24  C17 UNL     1      27.396   0.832  52.650  1.00  0.00     0.078 C 
HETATM   25  C18 UNL     1      26.672  -0.435  52.986  1.00  0.00     0.014 C 
HETATM   26  C19 UNL     1      27.675  -1.580  52.895  1.00  0.00     0.001 C 
HETATM   27  C20 UNL     1      29.031  -1.053  53.268  1.00  0.00     0.000 C 
HETATM   28  C21 UNL     1      28.980   0.025  54.339  1.00  0.00     0.001 C 
HETATM   29  C22 UNL     1      28.194   1.230  53.872  1.00  0.00     0.014 C 
ENDBRANCH  21  24
ENDBRANCH   1  20
TORSDOF 5
ENDMDL
MODEL 5
REMARK VINA RESULT:      -8.8      4.845      8.367
REMARK  5 active torsions:
REMARK  status: ('A' for Active; 'I' for Inactive)
REMARK       I    between atoms: C1_2  and  N1_3 
REMARK    1  A    between atoms: C1_2  and  C17_22 
REMARK    2  A    between atoms: N1_3  and  C2_4 
REMARK    3  A    between atoms: C6_8  and  N2_9 
REMARK    4  A    between atoms: N2_9  and  C7_10 
REMARK    5  A    between atoms: C10_13  and  C11_14 
ROOT
HETATM    1  C2  UNL     1      23.438  -0.514  53.656  1.00  0.00     0.036 A 
HETATM    2  C3  UNL     1      22.678  -0.570  54.811  1.00  0.00     0.029 A 
HETATM    3  C4  UNL     1      21.308  -0.396  54.838  1.00  0.00     0.004 A 
HETATM    4  C5  UNL     1      20.717  -0.153  53.595  1.00  0.00     0.029 A 
HETATM    5  C6  UNL     1      21.458  -0.095  52.432  1.00  0.00     0.032 A 
HETATM    6  C16 UNL     1      22.824  -0.273  52.444  1.00  0.00     0.058 A 
ENDROOT
BRANCH   5   7
HETATM    7  N2  UNL     1      20.779   0.158  51.207  1.00  0.00    -0.364 N 
HETATM    8  H5  UNL     1      20.337  -0.634  50.672  1.00  0.00     0.162 HD
BRANCH   7   9
HETATM    9  C7  UNL     1      20.689   1.501  50.689  1.00  0.00     0.230 A 
HETATM   10  C8  UNL     1      20.637   1.545  49.215  1.00  0.00     0.023 A 
HETATM   11  C9  UNL     1      21.689   2.168  48.730  1.00  0.00     0.032 A 
HETATM   12  C10 UNL     1      22.461   2.548  49.908  1.00  0.00     0.065 A 
HETATM   13  N4  UNL     1      21.923   2.185  51.022  1.00  0.00    -0.259 NA
BRANCH  12  14
HETATM   14  C11 UNL     1      23.742   3.281  49.820  1.00  0.00     0.010 A 
HETATM   15  C12 UNL     1      23.890   4.421  49.050  1.00  0.00     0.017 A 
HETATM   16  C13 UNL     1      25.113   5.071  49.003  1.00  0.00     0.020 A 
HETATM   17  C14 UNL     1      26.183   4.589  49.717  1.00  0.00     0.116 A 
HETATM   18  N3  UNL     1      26.051   3.479  50.472  1.00  0.00    -0.272 NA
HETATM   19  C15 UNL     1      24.858   2.860  50.508  1.00  0.00     0.130 A 
ENDBRANCH  12  14
ENDBRANCH   7   9
ENDBRANCH   5   7
BRANCH   1  20
HETATM   20  N1  UNL     1      24.848  -0.702  53.688  1.00  0.00    -0.327 N 
HETATM   21  C1  UNL     1      25.797   0.333  53.702  1.00  0.00     0.226 C 
HETATM   22  O1  UNL     1      25.304   1.502  53.684  1.00  0.00    -0.273 OA
HETATM   23  H1  UNL     1      24.937  -1.758  53.697  1.00  0.00     0.169 HD
BRANCH  21  24
HETATM   24  C17 UNL     1      27.190  -0.159  53.736  1.00  0.00     0.078 C 
HETATM   25  C18 UNL     1      28.167   0.818  53.157  1.00  0.00     0.014 C 
HETATM   26  C19 UNL     1      29.546   0.480  53.714  1.00  0.00     0.001 C 
HETATM   27  C20 UNL     1      29.610  -1.001  53.956  1.00  0.00     0.000 C 
HETATM   28  C21 UNL     1      28.821  -1.808  52.937  1.00  0.00     0.001 C 
HETATM   29  C22 UNL     1      27.350  -1.456  52.974  1.00  0.00     0.014 C 
ENDBRANCH  21  24
ENDBRANCH   1  20
TORSDOF 5
ENDMDL
MODEL 6
REMARK VINA RESULT:      -8.8      4.880      8.069
REMARK  5 active torsions:
REMARK  status: ('A' for Active; 'I' for Inactive)
REMARK       I    between atoms: C1_2  and  N1_3 
REMARK    1  A    between atoms: C1_2  and  C17_22 
REMARK    2  A    between atoms: N1_3  and  C2_4 
REMARK    3  A    between atoms: C6_8  and  N2_9 
REMARK    4  A    between atoms: N2_9  and  C7_10 
REMARK    5  A    between atoms: C10_13  and  C11_14 
ROOT
HETATM    1  C2  UNL     1      26.079   2.327  51.892  1.00  0.00     0.036 A 
HETATM    2  C3  UNL     1      27.263   1.802  52.379  1.00  0.00     0.029 A 
HETATM    3  C4  UNL     1      27.355   0.587  53.028  1.00  0.00     0.004 A 
HETATM    4  C5  UNL     1      26.149  -0.103  53.169  1.00  0.00     0.029 A 
HETATM    5  C6  UNL     1      24.957   0.403  52.689  1.00  0.00     0.032 A 
HETATM    6  C16 UNL     1      24.903   1.620  52.046  1.00  0.00     0.058 A 
ENDROOT
BRANCH   5   7
HETATM    7  N2  UNL     1      23.772  -0.363  52.874  1.00  0.00    -0.364 N 
HETATM    8  H5  UNL     1      23.665  -1.299  52.403  1.00  0.00     0.162 HD
BRANCH   7   9
HETATM    9  C7  UNL     1      22.707   0.136  53.710  1.00  0.00     0.230 A 
HETATM   10  C8  UNL     1      22.277  -0.836  54.733  1.00  0.00     0.023 A 
HETATM   11  C9  UNL     1      21.025  -1.192  54.541  1.00  0.00     0.032 A 
HETATM   12  C10 UNL     1      20.611  -0.439  53.362  1.00  0.00     0.065 A 
HETATM   13  N4  UNL     1      21.536   0.315  52.874  1.00  0.00    -0.259 NA
BRANCH  12  14
HETATM   14  C11 UNL     1      19.253  -0.541  52.787  1.00  0.00     0.010 A 
HETATM   15  C12 UNL     1      18.288  -1.380  53.314  1.00  0.00     0.017 A 
HETATM   16  C13 UNL     1      17.029  -1.437  52.738  1.00  0.00     0.020 A 
HETATM   17  C14 UNL     1      16.732  -0.664  51.642  1.00  0.00     0.116 A 
HETATM   18  N3  UNL     1      17.664   0.159  51.119  1.00  0.00    -0.272 NA
HETATM   19  C15 UNL     1      18.880   0.203  51.689  1.00  0.00     0.130 A 
ENDBRANCH  12  14
ENDBRANCH   7   9
ENDBRANCH   5   7
BRANCH   1  20
HETATM   20  N1  UNL     1      26.043   3.585  51.229  1.00  0.00    -0.327 N 
HETATM   21  C1  UNL     1      26.467   3.811  49.910  1.00  0.00     0.226 C 
HETATM   22  O1  UNL     1      26.905   2.782  49.312  1.00  0.00    -0.273 OA
HETATM   23  H1  UNL     1      25.638   4.222  51.973  1.00  0.00     0.169 HD
BRANCH  21  24
HETATM   24  C17 UNL     1      26.313   5.218  49.485  1.00  0.00     0.078 C 
HETATM   25  C18 UNL     1      24.983   5.495  48.855  1.00  0.00     0.014 C 
HETATM   26  C19 UNL     1      24.723   6.994  48.957  1.00  0.00     0.001 C 
HETATM   27  C20 UNL     1      26.044   7.708  48.903  1.00  0.00     0.000 C 
HETATM   28  C21 UNL     1      27.057   7.023  48.000  1.00  0.00     0.001 C 
HETATM   29  C22 UNL     1      27.374   5.626  48.487  1.00  0.00     0.014 C 
ENDBRANCH  21  24
ENDBRANCH   1  20
TORSDOF 5
ENDMDL
MODEL 7
REMARK VINA RESULT:      -8.6      3.128      4.713
REMARK  5 active torsions:
REMARK  status: ('A' for Active; 'I' for Inactive)
REMARK       I    between atoms: C1_2  and  N1_3 
REMARK    1  A    between atoms: C1_2  and  C17_22 
REMARK    2  A    between atoms: N1_3  and  C2_4 
REMARK    3  A    between atoms: C6_8  and  N2_9 
REMARK    4  A    between atoms: N2_9  and  C7_10 
REMARK    5  A    between atoms: C10_13  and  C11_14 
ROOT
HETATM    1  C2  UNL     1      25.210   5.601  50.304  1.00  0.00     0.036 A 
HETATM    2  C3  UNL     1      24.132   6.370  50.707  1.00  0.00     0.029 A 
HETATM    3  C4  UNL     1      22.980   5.845  51.260  1.00  0.00     0.004 A 
HETATM    4  C5  UNL     1      22.965   4.455  51.393  1.00  0.00     0.029 A 
HETATM    5  C6  UNL     1      24.031   3.671  50.997  1.00  0.00     0.032 A 
HETATM    6  C16 UNL     1      25.165   4.229  50.449  1.00  0.00     0.058 A 
ENDROOT
BRANCH   5   7
HETATM    7  N2  UNL     1      23.935   2.261  51.166  1.00  0.00    -0.364 N 
HETATM    8  H5  UNL     1      23.726   1.640  50.342  1.00  0.00     0.162 HD
BRANCH   7   9
HETATM    9  C7  UNL     1      24.125   1.671  52.468  1.00  0.00     0.230 A 
HETATM   10  C8  UNL     1      24.872   2.546  53.391  1.00  0.00     0.023 A 
HETATM   11  C9  UNL     1      26.014   1.992  53.738  1.00  0.00     0.032 A 
HETATM   12  C10 UNL     1      26.029   0.718  53.029  1.00  0.00     0.065 A 
HETATM   13  N4  UNL     1      24.980   0.511  52.307  1.00  0.00    -0.259 NA
BRANCH  12  14
HETATM   14  C11 UNL     1      27.149  -0.241  53.133  1.00  0.00     0.010 A 
HETATM   15  C12 UNL     1      28.431   0.155  53.470  1.00  0.00     0.017 A 
HETATM   16  C13 UNL     1      29.446  -0.784  53.556  1.00  0.00     0.020 A 
HETATM   17  C14 UNL     1      29.187  -2.110  53.307  1.00  0.00     0.116 A 
HETATM   18  N3  UNL     1      27.941  -2.509  52.978  1.00  0.00    -0.272 NA
HETATM   19  C15 UNL     1      26.967  -1.586  52.900  1.00  0.00     0.130 A 
ENDBRANCH  12  14
ENDBRANCH   7   9
ENDBRANCH   5   7
BRANCH   1  20
HETATM   20  N1  UNL     1      26.374   6.195  49.740  1.00  0.00    -0.327 N 
HETATM   21  C1  UNL     1      26.433   6.807  48.478  1.00  0.00     0.226 C 
HETATM   22  O1  UNL     1      25.339   6.801  47.835  1.00  0.00    -0.273 OA
HETATM   23  H1  UNL     1      27.097   6.043  50.499  1.00  0.00     0.169 HD
BRANCH  21  24
HETATM   24  C17 UNL     1      27.773   7.339  48.154  1.00  0.00     0.078 C 
HETATM   25  C18 UNL     1      28.833   6.281  48.144  1.00  0.00     0.014 C 
HETATM   26  C19 UNL     1      29.996   6.798  47.304  1.00  0.00     0.001 C 
HETATM   27  C20 UNL     1      30.052   8.293  47.440  1.00  0.00     0.000 C 
HETATM   28  C21 UNL     1      29.641   8.783  48.820  1.00  0.00     0.001 C 
HETATM   29  C22 UNL     1      28.212   8.402  49.137  1.00  0.00     0.014 C 
ENDBRANCH  21  24
ENDBRANCH   1  20
TORSDOF 5
ENDMDL
MODEL 8
REMARK VINA RESULT:      -8.6      5.817      8.860
REMARK  5 active torsions:
REMARK  status: ('A' for Active; 'I' for Inactive)
REMARK       I    between atoms: C1_2  and  N1_3 
REMARK    1  A    between atoms: C1_2  and  C17_22 
REMARK    2  A    between atoms: N1_3  and  C2_4 
REMARK    3  A    between atoms: C6_8  and  N2_9 
REMARK    4  A    between atoms: N2_9  and  C7_10 
REMARK    5  A    between atoms: C10_13  and  C11_14 
ROOT
HETATM    1  C2  UNL     1      23.515   0.040  53.801  1.00  0.00     0.036 A 
HETATM    2  C3  UNL     1      22.931  -0.979  54.533  1.00  0.00     0.029 A 
HETATM    3  C4  UNL     1      21.598  -1.328  54.434  1.00  0.00     0.004 A 
HETATM    4  C5  UNL     1      20.852  -0.572  53.527  1.00  0.00     0.029 A 
HETATM    5  C6  UNL     1      21.417   0.448  52.788  1.00  0.00     0.032 A 
HETATM    6  C16 UNL     1      22.751   0.769  52.912  1.00  0.00     0.058 A 
ENDROOT
BRANCH   5   7
HETATM    7  N2  UNL     1      20.587   1.171  51.885  1.00  0.00    -0.364 N 
HETATM    8  H5  UNL     1      20.357   0.772  50.939  1.00  0.00     0.162 HD
BRANCH   7   9
HETATM    9  C7  UNL     1      20.054   2.458  52.261  1.00  0.00     0.230 A 
HETATM   10  C8  UNL     1      19.144   3.020  51.245  1.00  0.00     0.023 A 
HETATM   11  C9  UNL     1      19.630   4.139  50.752  1.00  0.00     0.032 A 
HETATM   12  C10 UNL     1      20.894   4.327  51.456  1.00  0.00     0.065 A 
HETATM   13  N4  UNL     1      21.157   3.396  52.310  1.00  0.00    -0.259 NA
BRANCH  12  14
HETATM   14  C11 UNL     1      21.784   5.480  51.205  1.00  0.00     0.010 A 
HETATM   15  C12 UNL     1      21.333   6.644  50.608  1.00  0.00     0.017 A 
HETATM   16  C13 UNL     1      22.208   7.697  50.397  1.00  0.00     0.020 A 
HETATM   17  C14 UNL     1      23.525   7.592  50.775  1.00  0.00     0.116 A 
HETATM   18  N3  UNL     1      23.976   6.462  51.358  1.00  0.00    -0.272 NA
HETATM   19  C15 UNL     1      23.115   5.450  51.557  1.00  0.00     0.130 A 
ENDBRANCH  12  14
ENDBRANCH   7   9
ENDBRANCH   5   7
BRANCH   1  20
HETATM   20  N1  UNL     1      24.895   0.356  53.942  1.00  0.00    -0.327 N 
HETATM   21  C1  UNL     1      25.945  -0.329  53.310  1.00  0.00     0.226 C 
HETATM   22  O1  UNL     1      25.578  -1.292  52.570  1.00  0.00    -0.273 OA
HETATM   23  H1  UNL     1      24.872   1.182  54.605  1.00  0.00     0.169 HD
BRANCH  21  24
HETATM   24  C17 UNL     1      27.277   0.220  53.641  1.00  0.00     0.078 C 
HETATM   25  C18 UNL     1      27.606   1.459  52.865  1.00  0.00     0.014 C 
HETATM   26  C19 UNL     1      28.685   2.214  53.633  1.00  0.00     0.001 C 
HETATM   27  C20 UNL     1      29.535   1.214  54.363  1.00  0.00     0.000 C 
HETATM   28  C21 UNL     1      29.709  -0.091  53.603  1.00  0.00     0.001 C 
HETATM   29  C22 UNL     1      28.381  -0.779  53.378  1.00  0.00     0.014 C 
ENDBRANCH  21  24
ENDBRANCH   1  20
TORSDOF 5
ENDMDL
MODEL 9
REMARK VINA RESULT:      -8.5      2.242      3.112
REMARK  5 active torsions:
REMARK  status: ('A' for Active; 'I' for Inactive)
REMARK       I    between atoms: C1_2  and  N1_3 
REMARK    1  A    between atoms: C1_2  and  C17_22 
REMARK    2  A    between atoms: N1_3  and  C2_4 
REMARK    3  A    between atoms: C6_8  and  N2_9 
REMARK    4  A    between atoms: N2_9  and  C7_10 
REMARK    5  A    between atoms: C10_13  and  C11_14 
ROOT
HETATM    1  C2  UNL     1      28.688   5.662  48.126  1.00  0.00     0.036 A 
HETATM    2  C3  UNL     1      28.174   6.932  47.934  1.00  0.00     0.029 A 
HETATM    3  C4  UNL     1      26.872   7.286  48.232  1.00  0.00     0.004 A 
HETATM    4  C5  UNL     1      26.082   6.259  48.753  1.00  0.00     0.029 A 
HETATM    5  C6  UNL     1      26.578   4.986  48.953  1.00  0.00     0.032 A 
HETATM    6  C16 UNL     1      27.882   4.668  48.644  1.00  0.00     0.058 A 
ENDROOT
BRANCH   5   7
HETATM    7  N2  UNL     1      25.706   3.996  49.489  1.00  0.00    -0.364 N 
HETATM    8  H5  UNL     1      25.006   3.512  48.868  1.00  0.00     0.162 HD
BRANCH   7   9
HETATM    9  C7  UNL     1      25.775   3.647  50.887  1.00  0.00     0.230 A 
HETATM   10  C8  UNL     1      26.691   2.521  51.153  1.00  0.00     0.023 A 
HETATM   11  C9  UNL     1      26.034   1.491  51.639  1.00  0.00     0.032 A 
HETATM   12  C10 UNL     1      24.647   1.939  51.699  1.00  0.00     0.065 A 
HETATM   13  N4  UNL     1      24.473   3.147  51.282  1.00  0.00    -0.259 NA
BRANCH  12  14
HETATM   14  C11 UNL     1      23.551   1.080  52.193  1.00  0.00     0.010 A 
HETATM   15  C12 UNL     1      23.683   0.288  53.320  1.00  0.00     0.017 A 
HETATM   16  C13 UNL     1      22.624  -0.499  53.742  1.00  0.00     0.020 A 
HETATM   17  C14 UNL     1      21.440  -0.500  53.046  1.00  0.00     0.116 A 
HETATM   18  N3  UNL     1      21.298   0.268  51.945  1.00  0.00    -0.272 NA
HETATM   19  C15 UNL     1      22.334   1.027  51.549  1.00  0.00     0.130 A 
ENDBRANCH  12  14
ENDBRANCH   7   9
ENDBRANCH   5   7
BRANCH   1  20
HETATM   20  N1  UNL     1      30.038   5.353  47.803  1.00  0.00    -0.327 N 
HETATM   21  C1  UNL     1      31.163   5.935  48.408  1.00  0.00     0.226 C 
HETATM   22  O1  UNL     1      30.897   6.793  49.303  1.00  0.00    -0.273 OA
HETATM   23  H1  UNL     1      29.929   4.623  47.042  1.00  0.00     0.169 HD
BRANCH  21  24
HETATM   24  C17 UNL     1      32.441   5.421  47.871  1.00  0.00     0.078 C 
HETATM   25  C18 UNL     1      32.440   3.934  47.687  1.00  0.00     0.014 C 
HETATM   26  C19 UNL     1      33.523   3.593  46.670  1.00  0.00     0.001 C 
HETATM   27  C20 UNL     1      34.629   4.601  46.797  1.00  0.00     0.000 C 
HETATM   28  C21 UNL     1      34.843   5.076  48.226  1.00  0.00     0.001 C 
HETATM   29  C22 UNL     1      33.609   5.759  48.771  1.00  0.00     0.014 C 
ENDBRANCH  21  24
ENDBRANCH   1  20
TORSDOF 5
ENDMDL
