MODEL 1
REMARK VINA RESULT:      -8.1      0.000      0.000
REMARK  4 active torsions:
REMARK  status: ('A' for Active; 'I' for Inactive)
REMARK    1  A    between atoms: O1_2  and  C2_3 
REMARK    2  A    between atoms: C6_9  and  C7_10 
REMARK    3  A    between atoms: C15_19  and  O2_20 
REMARK    4  A    between atoms: O2_20  and  C16_21 
ROOT
HETATM    1  C2  UNL     1      23.277   2.978  51.555  1.00  0.00     0.103 A 
HETATM    2  C3  UNL     1      22.464   2.154  52.330  1.00  0.00     0.072 A 
HETATM    3  C4  UNL     1      22.995   1.099  53.043  1.00  0.00     0.073 A 
HETATM    4  N1  UNL     1      22.301   0.244  53.810  1.00  0.00    -0.241 NA
HETATM    5  C5  UNL     1      22.934  -0.766  54.459  1.00  0.00     0.234 A 
HETATM    6  N2  UNL     1      24.265  -0.915  54.338  1.00  0.00    -0.240 NA
HETATM    7  C6  UNL     1      25.026  -0.077  53.574  1.00  0.00     0.081 A 
HETATM    8  C13 UNL     1      24.358   0.938  52.925  1.00  0.00     0.025 A 
HETATM    9  C14 UNL     1      25.186   1.736  52.166  1.00  0.00     0.055 A 
HETATM   10  C15 UNL     1      24.637   2.786  51.459  1.00  0.00     0.104 A 
ENDROOT
BRANCH   7  11
HETATM   11  C7  UNL     1      26.433  -0.436  53.597  1.00  0.00    -0.006 A 
HETATM   12  C8  UNL     1      27.227   0.264  54.513  1.00  0.00     0.017 A 
HETATM   13  C9  UNL     1      28.588   0.087  54.678  1.00  0.00     0.043 A 
HETATM   14  C10 UNL     1      29.204  -0.853  53.876  1.00  0.00     0.116 A 
HETATM   15  F1  UNL     1      30.537  -1.076  53.989  1.00  0.00    -0.206 F 
HETATM   16  C11 UNL     1      28.467  -1.569  52.958  1.00  0.00     0.043 A 
HETATM   17  C12 UNL     1      27.114  -1.356  52.830  1.00  0.00     0.017 A 
ENDBRANCH   7  11
BRANCH  10  18
HETATM   18  O2  UNL     1      25.358   3.641  50.676  1.00  0.00    -0.334 OA
BRANCH  18  19
HETATM   19  C16 UNL     1      26.411   3.232  49.820  1.00  0.00     0.290 C 
HETATM   20 CL1  UNL     1      27.169   4.575  48.959  1.00  0.00    -0.102 Cl
ENDBRANCH  18  19
ENDBRANCH  10  18
BRANCH   1  21
HETATM   21  O1  UNL     1      22.684   4.018  50.864  1.00  0.00    -0.353 OA
HETATM   22  C1  UNL     1      22.139   5.136  51.541  1.00  0.00     0.210 C 
ENDBRANCH   1  21
TORSDOF 4
ENDMDL
MODEL 2
REMARK VINA RESULT:      -7.8      3.122      4.000
REMARK  4 active torsions:
REMARK  status: ('A' for Active; 'I' for Inactive)
REMARK    1  A    between atoms: O1_2  and  C2_3 
REMARK    2  A    between atoms: C6_9  and  C7_10 
REMARK    3  A    between atoms: C15_19  and  O2_20 
REMARK    4  A    between atoms: O2_20  and  C16_21 
ROOT
HETATM    1  C2  UNL     1      22.090   2.182  52.179  1.00  0.00     0.103 A 
HETATM    2  C3  UNL     1      22.689   3.015  51.238  1.00  0.00     0.072 A 
HETATM    3  C4  UNL     1      24.048   2.964  51.004  1.00  0.00     0.073 A 
HETATM    4  N1  UNL     1      24.723   3.725  50.129  1.00  0.00    -0.241 NA
HETATM    5  C5  UNL     1      26.065   3.590  49.993  1.00  0.00     0.234 A 
HETATM    6  N2  UNL     1      26.731   2.687  50.735  1.00  0.00    -0.240 NA
HETATM    7  C6  UNL     1      26.101   1.882  51.641  1.00  0.00     0.081 A 
HETATM    8  C13 UNL     1      24.738   2.041  51.760  1.00  0.00     0.025 A 
HETATM    9  C14 UNL     1      24.173   1.205  52.698  1.00  0.00     0.055 A 
HETATM   10  C15 UNL     1      22.812   1.272  52.918  1.00  0.00     0.104 A 
ENDROOT
BRANCH   7  11
HETATM   11  C7  UNL     1      27.024   0.991  52.321  1.00  0.00    -0.006 A 
HETATM   12  C8  UNL     1      28.071   1.611  53.015  1.00  0.00     0.017 A 
HETATM   13  C9  UNL     1      29.064   0.945  53.708  1.00  0.00     0.043 A 
HETATM   14  C10 UNL     1      29.013  -0.434  53.715  1.00  0.00     0.116 A 
HETATM   15  F1  UNL     1      29.957  -1.147  54.379  1.00  0.00    -0.206 F 
HETATM   16  C11 UNL     1      28.003  -1.093  53.048  1.00  0.00     0.043 A 
HETATM   17  C12 UNL     1      27.037  -0.386  52.370  1.00  0.00     0.017 A 
ENDBRANCH   7  11
BRANCH  10  18
HETATM   18  O2  UNL     1      22.144   0.495  53.820  1.00  0.00    -0.334 OA
BRANCH  18  19
HETATM   19  C16 UNL     1      22.305  -0.910  53.926  1.00  0.00     0.290 C 
HETATM   20 CL1  UNL     1      23.043  -1.411  55.450  1.00  0.00    -0.102 Cl
ENDBRANCH  18  19
ENDBRANCH  10  18
BRANCH   1  21
HETATM   21  O1  UNL     1      20.724   2.283  52.367  1.00  0.00    -0.353 OA
HETATM   22  C1  UNL     1      20.007   3.434  51.960  1.00  0.00     0.210 C 
ENDBRANCH   1  21
TORSDOF 4
ENDMDL
MODEL 3
REMARK VINA RESULT:      -7.7      4.340      6.849
REMARK  4 active torsions:
REMARK  status: ('A' for Active; 'I' for Inactive)
REMARK    1  A    between atoms: O1_2  and  C2_3 
REMARK    2  A    between atoms: C6_9  and  C7_10 
REMARK    3  A    between atoms: C15_19  and  O2_20 
REMARK    4  A    between atoms: O2_20  and  C16_21 
ROOT
HETATM    1  C2  UNL     1      27.119   0.045  53.582  1.00  0.00     0.103 A 
HETATM    2  C3  UNL     1      27.525   1.040  52.698  1.00  0.00     0.072 A 
HETATM    3  C4  UNL     1      26.608   1.732  51.934  1.00  0.00     0.073 A 
HETATM    4  N1  UNL     1      26.895   2.699  51.049  1.00  0.00    -0.241 NA
HETATM    5  C5  UNL     1      25.904   3.304  50.347  1.00  0.00     0.234 A 
HETATM    6  N2  UNL     1      24.624   2.937  50.535  1.00  0.00    -0.240 NA
HETATM    7  C6  UNL     1      24.268   1.961  51.422  1.00  0.00     0.081 A 
HETATM    8  C13 UNL     1      25.294   1.363  52.120  1.00  0.00     0.025 A 
HETATM    9  C14 UNL     1      24.862   0.383  52.987  1.00  0.00     0.055 A 
HETATM   10  C15 UNL     1      25.795  -0.299  53.742  1.00  0.00     0.104 A 
ENDROOT
BRANCH   7  11
HETATM   11  C7  UNL     1      22.833   1.740  51.450  1.00  0.00    -0.006 A 
HETATM   12  C8  UNL     1      22.103   2.576  52.305  1.00  0.00     0.017 A 
HETATM   13  C9  UNL     1      20.735   2.516  52.491  1.00  0.00     0.043 A 
HETATM   14  C10 UNL     1      20.042   1.559  51.779  1.00  0.00     0.116 A 
HETATM   15  F1  UNL     1      18.697   1.448  51.916  1.00  0.00    -0.206 F 
HETATM   16  C11 UNL     1      20.713   0.711  50.924  1.00  0.00     0.043 A 
HETATM   17  C12 UNL     1      22.077   0.809  50.773  1.00  0.00     0.017 A 
ENDBRANCH   7  11
BRANCH  10  18
HETATM   18  O2  UNL     1      25.485  -1.287  54.631  1.00  0.00    -0.334 OA
BRANCH  18  19
HETATM   19  C16 UNL     1      24.613  -1.112  55.735  1.00  0.00     0.290 C 
HETATM   20 CL1  UNL     1      22.914  -1.372  55.328  1.00  0.00    -0.102 Cl
ENDBRANCH  18  19
ENDBRANCH  10  18
BRANCH   1  21
HETATM   21  O1  UNL     1      28.087  -0.612  54.319  1.00  0.00    -0.353 OA
HETATM   22  C1  UNL     1      29.396  -0.801  53.813  1.00  0.00     0.210 C 
ENDBRANCH   1  21
TORSDOF 4
ENDMDL
MODEL 4
REMARK VINA RESULT:      -7.5      3.366      5.763
REMARK  4 active torsions:
REMARK  status: ('A' for Active; 'I' for Inactive)
REMARK    1  A    between atoms: O1_2  and  C2_3 
REMARK    2  A    between atoms: C6_9  and  C7_10 
REMARK    3  A    between atoms: C15_19  and  O2_20 
REMARK    4  A    between atoms: O2_20  and  C16_21 
ROOT
HETATM    1  C2  UNL     1      26.990   0.646  53.241  1.00  0.00     0.103 A 
HETATM    2  C3  UNL     1      26.651  -0.127  54.348  1.00  0.00     0.072 A 
HETATM    3  C4  UNL     1      25.349  -0.532  54.563  1.00  0.00     0.073 A 
HETATM    4  N1  UNL     1      24.918  -1.268  55.598  1.00  0.00    -0.241 NA
HETATM    5  C5  UNL     1      23.607  -1.597  55.708  1.00  0.00     0.234 A 
HETATM    6  N2  UNL     1      22.729  -1.188  54.774  1.00  0.00    -0.240 NA
HETATM    7  C6  UNL     1      23.106  -0.439  53.696  1.00  0.00     0.081 A 
HETATM    8  C13 UNL     1      24.443  -0.117  53.611  1.00  0.00     0.025 A 
HETATM    9  C14 UNL     1      24.749   0.647  52.506  1.00  0.00     0.055 A 
HETATM   10  C15 UNL     1      26.056   1.043  52.310  1.00  0.00     0.104 A 
ENDROOT
BRANCH   7  11
HETATM   11  C7  UNL     1      21.987  -0.118  52.829  1.00  0.00    -0.006 A 
HETATM   12  C8  UNL     1      20.714  -0.361  53.361  1.00  0.00     0.017 A 
HETATM   13  C9  UNL     1      19.524  -0.142  52.693  1.00  0.00     0.043 A 
HETATM   14  C10 UNL     1      19.602   0.352  51.407  1.00  0.00     0.116 A 
HETATM   15  F1  UNL     1      18.470   0.589  50.698  1.00  0.00    -0.206 F 
HETATM   16  C11 UNL     1      20.831   0.607  50.838  1.00  0.00     0.043 A 
HETATM   17  C12 UNL     1      21.989   0.373  51.542  1.00  0.00     0.017 A 
ENDBRANCH   7  11
BRANCH  10  18
HETATM   18  O2  UNL     1      26.476   1.800  51.254  1.00  0.00    -0.334 OA
BRANCH  18  19
HETATM   19  C16 UNL     1      25.784   2.940  50.774  1.00  0.00     0.290 C 
HETATM   20 CL1  UNL     1      26.554   3.680  49.368  1.00  0.00    -0.102 Cl
ENDBRANCH  18  19
ENDBRANCH  10  18
BRANCH   1  21
HETATM   21  O1  UNL     1      28.312   1.019  53.083  1.00  0.00    -0.353 OA
HETATM   22  C1  UNL     1      29.344   0.412  53.838  1.00  0.00     0.210 C 
ENDBRANCH   1  21
TORSDOF 4
ENDMDL
MODEL 5
REMARK VINA RESULT:      -7.4      3.447      6.004
REMARK  4 active torsions:
REMARK  status: ('A' for Active; 'I' for Inactive)
REMARK    1  A    between atoms: O1_2  and  C2_3 
REMARK    2  A    between atoms: C6_9  and  C7_10 
REMARK    3  A    between atoms: C15_19  and  O2_20 
REMARK    4  A    between atoms: O2_20  and  C16_21 
ROOT
HETATM    1  C2  UNL     1      26.103  -0.340  53.695  1.00  0.00     0.103 A 
HETATM    2  C3  UNL     1      25.139  -0.914  54.519  1.00  0.00     0.072 A 
HETATM    3  C4  UNL     1      23.794  -0.698  54.300  1.00  0.00     0.073 A 
HETATM    4  N1  UNL     1      22.789  -1.195  55.037  1.00  0.00    -0.241 NA
HETATM    5  C5  UNL     1      21.501  -0.905  54.728  1.00  0.00     0.234 A 
HETATM    6  N2  UNL     1      21.222  -0.115  53.676  1.00  0.00    -0.240 NA
HETATM    7  C6  UNL     1      22.200   0.420  52.886  1.00  0.00     0.081 A 
HETATM    8  C13 UNL     1      23.499   0.110  53.224  1.00  0.00     0.025 A 
HETATM    9  C14 UNL     1      24.430   0.692  52.391  1.00  0.00     0.055 A 
HETATM   10  C15 UNL     1      25.771   0.464  52.628  1.00  0.00     0.104 A 
ENDROOT
BRANCH   7  11
HETATM   11  C7  UNL     1      21.657   1.237  51.816  1.00  0.00    -0.006 A 
HETATM   12  C8  UNL     1      21.339   0.560  50.632  1.00  0.00     0.017 A 
HETATM   13  C9  UNL     1      20.831   1.155  49.492  1.00  0.00     0.043 A 
HETATM   14  C10 UNL     1      20.624   2.518  49.531  1.00  0.00     0.116 A 
HETATM   15  F1  UNL     1      20.127   3.163  48.445  1.00  0.00    -0.206 F 
HETATM   16  C11 UNL     1      20.921   3.232  50.672  1.00  0.00     0.043 A 
HETATM   17  C12 UNL     1      21.426   2.595  51.782  1.00  0.00     0.017 A 
ENDBRANCH   7  11
BRANCH  10  18
HETATM   18  O2  UNL     1      26.780   0.986  51.871  1.00  0.00    -0.334 OA
BRANCH  18  19
HETATM   19  C16 UNL     1      26.956   2.373  51.636  1.00  0.00     0.290 C 
HETATM   20 CL1  UNL     1      26.482   2.868  50.009  1.00  0.00    -0.102 Cl
ENDBRANCH  18  19
ENDBRANCH  10  18
BRANCH   1  21
HETATM   21  O1  UNL     1      27.434  -0.595  53.968  1.00  0.00    -0.353 OA
HETATM   22  C1  UNL     1      28.171   0.218  54.863  1.00  0.00     0.210 C 
ENDBRANCH   1  21
TORSDOF 4
ENDMDL
MODEL 6
REMARK VINA RESULT:      -7.1      2.068      2.403
REMARK  4 active torsions:
REMARK  status: ('A' for Active; 'I' for Inactive)
REMARK    1  A    between atoms: O1_2  and  C2_3 
REMARK    2  A    between atoms: C6_9  and  C7_10 
REMARK    3  A    between atoms: C15_19  and  O2_20 
REMARK    4  A    between atoms: O2_20  and  C16_21 
ROOT
HETATM    1  C2  UNL     1      21.006   2.125  51.457  1.00  0.00     0.103 A 
HETATM    2  C3  UNL     1      20.541   1.254  52.438  1.00  0.00     0.072 A 
HETATM    3  C4  UNL     1      21.415   0.490  53.185  1.00  0.00     0.073 A 
HETATM    4  N1  UNL     1      21.072  -0.382  54.144  1.00  0.00    -0.241 NA
HETATM    5  C5  UNL     1      22.024  -1.085  54.806  1.00  0.00     0.234 A 
HETATM    6  N2  UNL     1      23.323  -0.909  54.505  1.00  0.00    -0.240 NA
HETATM    7  C6  UNL     1      23.736  -0.035  53.541  1.00  0.00     0.081 A 
HETATM    8  C13 UNL     1      22.748   0.664  52.883  1.00  0.00     0.025 A 
HETATM    9  C14 UNL     1      23.237   1.519  51.918  1.00  0.00     0.055 A 
HETATM   10  C15 UNL     1      22.347   2.272  51.181  1.00  0.00     0.104 A 
ENDROOT
BRANCH   7  11
HETATM   11  C7  UNL     1      25.181  -0.018  53.395  1.00  0.00    -0.006 A 
HETATM   12  C8  UNL     1      25.842   1.063  53.990  1.00  0.00     0.017 A 
HETATM   13  C9  UNL     1      27.207   1.274  53.950  1.00  0.00     0.043 A 
HETATM   14  C10 UNL     1      27.970   0.346  53.271  1.00  0.00     0.116 A 
HETATM   15  F1  UNL     1      29.317   0.495  53.196  1.00  0.00    -0.206 F 
HETATM   16  C11 UNL     1      27.368  -0.737  52.668  1.00  0.00     0.043 A 
HETATM   17  C12 UNL     1      26.004  -0.903  52.734  1.00  0.00     0.017 A 
ENDBRANCH   7  11
BRANCH  10  18
HETATM   18  O2  UNL     1      22.714   3.150  50.203  1.00  0.00    -0.334 OA
BRANCH  18  19
HETATM   19  C16 UNL     1      23.418   2.777  49.030  1.00  0.00     0.290 C 
HETATM   20 CL1  UNL     1      22.403   1.958  47.840  1.00  0.00    -0.102 Cl
ENDBRANCH  18  19
ENDBRANCH  10  18
BRANCH   1  21
HETATM   21  O1  UNL     1      20.078   2.862  50.743  1.00  0.00    -0.353 OA
HETATM   22  C1  UNL     1      19.223   2.250  49.796  1.00  0.00     0.210 C 
ENDBRANCH   1  21
TORSDOF 4
ENDMDL
MODEL 7
REMARK VINA RESULT:      -7.1      4.538      7.122
REMARK  4 active torsions:
REMARK  status: ('A' for Active; 'I' for Inactive)
REMARK    1  A    between atoms: O1_2  and  C2_3 
REMARK    2  A    between atoms: C6_9  and  C7_10 
REMARK    3  A    between atoms: C15_19  and  O2_20 
REMARK    4  A    between atoms: O2_20  and  C16_21 
ROOT
HETATM    1  C2  UNL     1      26.087   0.453  53.484  1.00  0.00     0.103 A 
HETATM    2  C3  UNL     1      26.838   1.311  52.684  1.00  0.00     0.072 A 
HETATM    3  C4  UNL     1      26.243   2.062  51.691  1.00  0.00     0.073 A 
HETATM    4  N1  UNL     1      26.875   2.908  50.863  1.00  0.00    -0.241 NA
HETATM    5  C5  UNL     1      26.182   3.587  49.915  1.00  0.00     0.234 A 
HETATM    6  N2  UNL     1      24.853   3.417  49.800  1.00  0.00    -0.240 NA
HETATM    7  C6  UNL     1      24.153   2.572  50.613  1.00  0.00     0.081 A 
HETATM    8  C13 UNL     1      24.882   1.894  51.566  1.00  0.00     0.025 A 
HETATM    9  C14 UNL     1      24.113   1.053  52.341  1.00  0.00     0.055 A 
HETATM   10  C15 UNL     1      24.726   0.310  53.329  1.00  0.00     0.104 A 
ENDROOT
BRANCH   7  11
HETATM   11  C7  UNL     1      22.736   2.555  50.300  1.00  0.00    -0.006 A 
HETATM   12  C8  UNL     1      22.357   1.732  49.231  1.00  0.00     0.017 A 
HETATM   13  C9  UNL     1      21.065   1.590  48.762  1.00  0.00     0.043 A 
HETATM   14  C10 UNL     1      20.078   2.315  49.400  1.00  0.00     0.116 A 
HETATM   15  F1  UNL     1      18.789   2.218  48.989  1.00  0.00    -0.206 F 
HETATM   16  C11 UNL     1      20.398   3.139  50.457  1.00  0.00     0.043 A 
HETATM   17  C12 UNL     1      21.700   3.248  50.887  1.00  0.00     0.017 A 
ENDBRANCH   7  11
BRANCH  10  18
HETATM   18  O2  UNL     1      24.068  -0.553  54.157  1.00  0.00    -0.334 OA
BRANCH  18  19
HETATM   19  C16 UNL     1      22.772  -1.066  53.896  1.00  0.00     0.290 C 
HETATM   20 CL1  UNL     1      21.520  -0.340  54.908  1.00  0.00    -0.102 Cl
ENDBRANCH  18  19
ENDBRANCH  10  18
BRANCH   1  21
HETATM   21  O1  UNL     1      26.742  -0.272  54.461  1.00  0.00    -0.353 OA
HETATM   22  C1  UNL     1      28.075   0.030  54.834  1.00  0.00     0.210 C 
ENDBRANCH   1  21
TORSDOF 4
ENDMDL
MODEL 8
REMARK VINA RESULT:      -7.1      3.073      5.033
REMARK  4 active torsions:
REMARK  status: ('A' for Active; 'I' for Inactive)
REMARK    1  A    between atoms: O1_2  and  C2_3 
REMARK    2  A    between atoms: C6_9  and  C7_10 
REMARK    3  A    between atoms: C15_19  and  O2_20 
REMARK    4  A    between atoms: O2_20  and  C16_21 
ROOT
HETATM    1  C2  UNL     1      25.688   3.548  50.511  1.00  0.00     0.103 A 
HETATM    2  C3  UNL     1      26.650   2.723  51.088  1.00  0.00     0.072 A 
HETATM    3  C4  UNL     1      26.288   1.625  51.841  1.00  0.00     0.073 A 
HETATM    4  N1  UNL     1      27.133   0.775  52.444  1.00  0.00    -0.241 NA
HETATM    5  C5  UNL     1      26.657  -0.269  53.169  1.00  0.00     0.234 A 
HETATM    6  N2  UNL     1      25.331  -0.459  53.286  1.00  0.00    -0.240 NA
HETATM    7  C6  UNL     1      24.420   0.371  52.694  1.00  0.00     0.081 A 
HETATM    8  C13 UNL     1      24.931   1.423  51.966  1.00  0.00     0.025 A 
HETATM    9  C14 UNL     1      23.957   2.221  51.408  1.00  0.00     0.055 A 
HETATM   10  C15 UNL     1      24.339   3.315  50.659  1.00  0.00     0.104 A 
ENDROOT
BRANCH   7  11
HETATM   11  C7  UNL     1      23.052  -0.034  52.962  1.00  0.00    -0.006 A 
HETATM   12  C8  UNL     1      22.855  -0.790  54.124  1.00  0.00     0.017 A 
HETATM   13  C9  UNL     1      21.637  -1.288  54.546  1.00  0.00     0.043 A 
HETATM   14  C10 UNL     1      20.536  -1.015  53.760  1.00  0.00     0.116 A 
HETATM   15  F1  UNL     1      19.311  -1.474  54.121  1.00  0.00    -0.206 F 
HETATM   16  C11 UNL     1      20.676  -0.275  52.606  1.00  0.00     0.043 A 
HETATM   17  C12 UNL     1      21.910   0.199  52.226  1.00  0.00     0.017 A 
ENDBRANCH   7  11
BRANCH  10  18
HETATM   18  O2  UNL     1      23.465   4.175  50.059  1.00  0.00    -0.334 OA
BRANCH  18  19
HETATM   19  C16 UNL     1      22.368   3.760  49.262  1.00  0.00     0.290 C 
HETATM   20 CL1  UNL     1      22.796   2.514  48.086  1.00  0.00    -0.102 Cl
ENDBRANCH  18  19
ENDBRANCH  10  18
BRANCH   1  21
HETATM   21  O1  UNL     1      26.116   4.632  49.769  1.00  0.00    -0.353 OA
HETATM   22  C1  UNL     1      27.234   4.539  48.904  1.00  0.00     0.210 C 
ENDBRANCH   1  21
TORSDOF 4
ENDMDL
MODEL 9
REMARK VINA RESULT:      -7.0      3.655      5.738
REMARK  4 active torsions:
REMARK  status: ('A' for Active; 'I' for Inactive)
REMARK    1  A    between atoms: O1_2  and  C2_3 
REMARK    2  A    between atoms: C6_9  and  C7_10 
REMARK    3  A    between atoms: C15_19  and  O2_20 
REMARK    4  A    between atoms: O2_20  and  C16_21 
ROOT
HETATM    1  C2  UNL     1      22.295   0.089  53.809  1.00  0.00     0.103 A 
HETATM    2  C3  UNL     1      23.523  -0.557  53.922  1.00  0.00     0.072 A 
HETATM    3  C4  UNL     1      24.642  -0.082  53.269  1.00  0.00     0.073 A 
HETATM    4  N1  UNL     1      25.864  -0.633  53.305  1.00  0.00    -0.241 NA
HETATM    5  C5  UNL     1      26.889  -0.078  52.611  1.00  0.00     0.234 A 
HETATM    6  N2  UNL     1      26.685   1.033  51.881  1.00  0.00    -0.240 NA
HETATM    7  C6  UNL     1      25.464   1.642  51.805  1.00  0.00     0.081 A 
HETATM    8  C13 UNL     1      24.442   1.056  52.518  1.00  0.00     0.025 A 
HETATM    9  C14 UNL     1      23.240   1.717  52.387  1.00  0.00     0.055 A 
HETATM   10  C15 UNL     1      22.132   1.225  53.048  1.00  0.00     0.104 A 
ENDROOT
BRANCH   7  11
HETATM   11  C7  UNL     1      25.489   2.821  50.959  1.00  0.00    -0.006 A 
HETATM   12  C8  UNL     1      26.597   2.941  50.111  1.00  0.00     0.017 A 
HETATM   13  C9  UNL     1      26.819   3.994  49.244  1.00  0.00     0.043 A 
HETATM   14  C10 UNL     1      25.874   4.999  49.216  1.00  0.00     0.116 A 
HETATM   15  F1  UNL     1      26.033   6.061  48.386  1.00  0.00    -0.206 F 
HETATM   16  C11 UNL     1      24.765   4.930  50.031  1.00  0.00     0.043 A 
HETATM   17  C12 UNL     1      24.588   3.861  50.879  1.00  0.00     0.017 A 
ENDBRANCH   7  11
BRANCH  10  18
HETATM   18  O2  UNL     1      20.893   1.795  52.992  1.00  0.00    -0.334 OA
BRANCH  18  19
HETATM   19  C16 UNL     1      20.057   1.760  51.848  1.00  0.00     0.290 C 
HETATM   20 CL1  UNL     1      19.072   0.298  51.750  1.00  0.00    -0.102 Cl
ENDBRANCH  18  19
ENDBRANCH  10  18
BRANCH   1  21
HETATM   21  O1  UNL     1      21.213  -0.437  54.488  1.00  0.00    -0.353 OA
HETATM   22  C1  UNL     1      20.809  -1.782  54.302  1.00  0.00     0.210 C 
ENDBRANCH   1  21
TORSDOF 4
ENDMDL
