MODEL 1
REMARK VINA RESULT:      -7.3      0.000      0.000
REMARK  4 active torsions:
REMARK  status: ('A' for Active; 'I' for Inactive)
REMARK    1  A    between atoms: C2_2  and  C3_3 
REMARK    2  A    between atoms: C4_4  and  C5_5 
REMARK    3  A    between atoms: C4_4  and  N4_17 
REMARK    4  A    between atoms: C6_6  and  C7_7 
REMARK       I    between atoms: N4_17  and  C13_18 
ROOT
HETATM    1  C7  UNL     1      26.393   3.236  50.661  1.00  0.00     0.127 A 
HETATM    2  N1  UNL     1      27.188   3.608  49.718  1.00  0.00    -0.225 NA
HETATM    3  C8  UNL     1      26.858   4.750  48.940  1.00  0.00     0.232 A 
HETATM    4  N2  UNL     1      25.824   5.513  49.044  1.00  0.00    -0.246 NA
HETATM    5  C9  UNL     1      24.831   5.223  50.065  1.00  0.00     0.152 A 
HETATM    6  C10 UNL     1      24.539   6.414  50.839  1.00  0.00     0.043 A 
HETATM    7  C11 UNL     1      23.287   6.422  50.461  1.00  0.00    -0.006 A 
HETATM    8 BR1  UNL     1      21.622   7.357  50.627  1.00  0.00    -0.056 Br
HETATM    9  C12 UNL     1      23.421   5.218  49.629  1.00  0.00     0.106 A 
HETATM   10  N3  UNL     1      25.236   4.048  50.813  1.00  0.00    -0.343 N 
HETATM   11  H11 UNL     1      24.522   3.856  51.530  1.00  0.00     0.164 HD
ENDROOT
BRANCH   1  12
HETATM   12  C6  UNL     1      26.647   2.087  51.503  1.00  0.00     0.052 C 
HETATM   13  C5  UNL     1      25.795   1.182  51.949  1.00  0.00     0.033 C 
BRANCH  13  14
HETATM   14  C4  UNL     1      26.100   0.044  52.794  1.00  0.00     0.034 C 
HETATM   15  C3  UNL     1      25.083  -0.428  53.470  1.00  0.00     0.029 C 
BRANCH  15  16
HETATM   16  C2  UNL     1      23.855   0.309  53.217  1.00  0.00    -0.008 C 
HETATM   17  C1  UNL     1      22.636  -0.189  53.476  1.00  0.00     0.011 C 
ENDBRANCH  15  16
BRANCH  14  18
HETATM   18  N4  UNL     1      27.418  -0.470  52.836  1.00  0.00    -0.328 N 
HETATM   19  C13 UNL     1      28.389  -0.190  53.830  1.00  0.00     0.218 C 
HETATM   20  C14 UNL     1      29.757  -0.731  53.864  1.00  0.00     0.117 C 
HETATM   21  O1  UNL     1      28.121   0.574  54.788  1.00  0.00    -0.274 OA
HETATM   22  H12 UNL     1      27.804  -1.116  52.122  1.00  0.00     0.169 HD
ENDBRANCH  14  18
ENDBRANCH  13  14
ENDBRANCH   1  12
TORSDOF 4
ENDMDL
MODEL 2
REMARK VINA RESULT:      -7.2      1.703      2.104
REMARK  4 active torsions:
REMARK  status: ('A' for Active; 'I' for Inactive)
REMARK    1  A    between atoms: C2_2  and  C3_3 
REMARK    2  A    between atoms: C4_4  and  C5_5 
REMARK    3  A    between atoms: C4_4  and  N4_17 
REMARK    4  A    between atoms: C6_6  and  C7_7 
REMARK       I    between atoms: N4_17  and  C13_18 
ROOT
HETATM    1  C7  UNL     1      25.327   3.288  50.577  1.00  0.00     0.127 A 
HETATM    2  N1  UNL     1      24.307   3.117  49.808  1.00  0.00    -0.225 NA
HETATM    3  C8  UNL     1      23.847   4.200  49.012  1.00  0.00     0.232 A 
HETATM    4  N2  UNL     1      24.326   5.395  48.941  1.00  0.00    -0.246 NA
HETATM    5  C9  UNL     1      25.481   5.745  49.750  1.00  0.00     0.152 A 
HETATM    6  C10 UNL     1      26.504   6.366  48.931  1.00  0.00     0.043 A 
HETATM    7  C11 UNL     1      26.437   7.489  49.598  1.00  0.00    -0.006 A 
HETATM    8 BR1  UNL     1      27.154   9.261  49.727  1.00  0.00    -0.056 Br
HETATM    9  C12 UNL     1      25.393   7.004  50.513  1.00  0.00     0.106 A 
HETATM   10  N3  UNL     1      25.889   4.593  50.532  1.00  0.00    -0.343 N 
HETATM   11  H11 UNL     1      26.706   4.857  51.101  1.00  0.00     0.164 HD
ENDROOT
BRANCH   1  12
HETATM   12  C6  UNL     1      25.865   2.243  51.422  1.00  0.00     0.052 C 
HETATM   13  C5  UNL     1      25.271   1.153  51.873  1.00  0.00     0.033 C 
BRANCH  13  14
HETATM   14  C4  UNL     1      25.854   0.133  52.720  1.00  0.00     0.034 C 
HETATM   15  C3  UNL     1      24.996  -0.532  53.453  1.00  0.00     0.029 C 
BRANCH  15  16
HETATM   16  C2  UNL     1      23.626  -0.089  53.247  1.00  0.00    -0.008 C 
HETATM   17  C1  UNL     1      22.559  -0.840  53.560  1.00  0.00     0.011 C 
ENDBRANCH  15  16
BRANCH  14  18
HETATM   18  N4  UNL     1      27.253  -0.080  52.708  1.00  0.00    -0.328 N 
HETATM   19  C13 UNL     1      28.174   0.379  53.684  1.00  0.00     0.218 C 
HETATM   20  C14 UNL     1      29.627   0.152  53.660  1.00  0.00     0.117 C 
HETATM   21  O1  UNL     1      27.778   1.037  54.676  1.00  0.00    -0.274 OA
HETATM   22  H12 UNL     1      27.747  -0.604  51.960  1.00  0.00     0.169 HD
ENDBRANCH  14  18
ENDBRANCH  13  14
ENDBRANCH   1  12
TORSDOF 4
ENDMDL
MODEL 3
REMARK VINA RESULT:      -7.0      4.040      7.509
REMARK  4 active torsions:
REMARK  status: ('A' for Active; 'I' for Inactive)
REMARK    1  A    between atoms: C2_2  and  C3_3 
REMARK    2  A    between atoms: C4_4  and  C5_5 
REMARK    3  A    between atoms: C4_4  and  N4_17 
REMARK    4  A    between atoms: C6_6  and  C7_7 
REMARK       I    between atoms: N4_17  and  C13_18 
ROOT
HETATM    1  C7  UNL     1      23.997   1.123  52.169  1.00  0.00     0.127 A 
HETATM    2  N1  UNL     1      23.190   0.476  52.938  1.00  0.00    -0.225 NA
HETATM    3  C8  UNL     1      23.714  -0.475  53.854  1.00  0.00     0.232 A 
HETATM    4  N2  UNL     1      24.946  -0.805  54.041  1.00  0.00    -0.246 NA
HETATM    5  C9  UNL     1      25.980  -0.161  53.248  1.00  0.00     0.152 A 
HETATM    6  C10 UNL     1      27.032   0.348  54.106  1.00  0.00     0.043 A 
HETATM    7  C11 UNL     1      27.930  -0.434  53.564  1.00  0.00    -0.006 A 
HETATM    8 BR1  UNL     1      29.779  -0.936  53.608  1.00  0.00    -0.056 Br
HETATM    9  C12 UNL     1      26.980  -1.048  52.626  1.00  0.00     0.106 A 
HETATM   10  N3  UNL     1      25.369   0.791  52.340  1.00  0.00    -0.343 N 
HETATM   11  H11 UNL     1      26.113   1.236  51.785  1.00  0.00     0.164 HD
ENDROOT
BRANCH   1  12
HETATM   12  C6  UNL     1      23.554   2.108  51.206  1.00  0.00     0.052 C 
HETATM   13  C5  UNL     1      24.276   2.847  50.383  1.00  0.00     0.033 C 
BRANCH  13  14
HETATM   14  C4  UNL     1      23.783   3.824  49.433  1.00  0.00     0.034 C 
HETATM   15  C3  UNL     1      24.677   4.684  49.015  1.00  0.00     0.029 C 
BRANCH  15  16
HETATM   16  C2  UNL     1      25.986   4.462  49.608  1.00  0.00    -0.008 C 
HETATM   17  C1  UNL     1      27.132   4.606  48.925  1.00  0.00     0.011 C 
ENDBRANCH  15  16
BRANCH  14  18
HETATM   18  N4  UNL     1      22.427   3.793  49.029  1.00  0.00    -0.328 N 
HETATM   19  C13 UNL     1      21.869   2.932  48.050  1.00  0.00     0.218 C 
HETATM   20  C14 UNL     1      20.457   2.910  47.638  1.00  0.00     0.117 C 
HETATM   21  O1  UNL     1      22.587   2.096  47.451  1.00  0.00    -0.274 OA
HETATM   22  H12 UNL     1      21.698   4.418  49.423  1.00  0.00     0.169 HD
ENDBRANCH  14  18
ENDBRANCH  13  14
ENDBRANCH   1  12
TORSDOF 4
ENDMDL
MODEL 4
REMARK VINA RESULT:      -7.0      5.050      7.859
REMARK  4 active torsions:
REMARK  status: ('A' for Active; 'I' for Inactive)
REMARK    1  A    between atoms: C2_2  and  C3_3 
REMARK    2  A    between atoms: C4_4  and  C5_5 
REMARK    3  A    between atoms: C4_4  and  N4_17 
REMARK    4  A    between atoms: C6_6  and  C7_7 
REMARK       I    between atoms: N4_17  and  C13_18 
ROOT
HETATM    1  C7  UNL     1      22.850  -0.520  53.755  1.00  0.00     0.127 A 
HETATM    2  N1  UNL     1      22.665  -1.198  54.835  1.00  0.00    -0.225 NA
HETATM    3  C8  UNL     1      23.781  -1.527  55.650  1.00  0.00     0.232 A 
HETATM    4  N2  UNL     1      25.021  -1.231  55.458  1.00  0.00    -0.246 NA
HETATM    5  C9  UNL     1      25.393  -0.466  54.280  1.00  0.00     0.152 A 
HETATM    6  C10 UNL     1      26.220   0.665  54.651  1.00  0.00     0.043 A 
HETATM    7  C11 UNL     1      27.237   0.222  53.958  1.00  0.00    -0.006 A 
HETATM    8 BR1  UNL     1      29.048   0.591  53.451  1.00  0.00    -0.056 Br
HETATM    9  C12 UNL     1      26.530  -0.980  53.493  1.00  0.00     0.106 A 
HETATM   10  N3  UNL     1      24.204  -0.171  53.502  1.00  0.00    -0.343 N 
HETATM   11  H11 UNL     1      24.485   0.369  52.671  1.00  0.00     0.164 HD
ENDROOT
BRANCH   1  12
HETATM   12  C6  UNL     1      21.774  -0.140  52.865  1.00  0.00     0.052 C 
HETATM   13  C5  UNL     1      20.471  -0.265  53.039  1.00  0.00     0.033 C 
BRANCH  13  14
HETATM   14  C4  UNL     1      19.429   0.133  52.114  1.00  0.00     0.034 C 
HETATM   15  C3  UNL     1      18.267  -0.439  52.314  1.00  0.00     0.029 C 
BRANCH  15  16
HETATM   16  C2  UNL     1      18.285  -1.360  53.439  1.00  0.00    -0.008 C 
HETATM   17  C1  UNL     1      17.675  -2.554  53.417  1.00  0.00     0.011 C 
ENDBRANCH  15  16
BRANCH  14  18
HETATM   18  N4  UNL     1      19.711   1.074  51.095  1.00  0.00    -0.328 N 
HETATM   19  C13 UNL     1      19.754   2.483  51.252  1.00  0.00     0.218 C 
HETATM   20  C14 UNL     1      20.049   3.451  50.184  1.00  0.00     0.117 C 
HETATM   21  O1  UNL     1      19.534   3.008  52.369  1.00  0.00    -0.274 OA
HETATM   22  H12 UNL     1      19.916   0.810  50.113  1.00  0.00     0.169 HD
ENDBRANCH  14  18
ENDBRANCH  13  14
ENDBRANCH   1  12
TORSDOF 4
ENDMDL
MODEL 5
REMARK VINA RESULT:      -6.7      3.172      5.498
REMARK  4 active torsions:
REMARK  status: ('A' for Active; 'I' for Inactive)
REMARK    1  A    between atoms: C2_2  and  C3_3 
REMARK    2  A    between atoms: C4_4  and  C5_5 
REMARK    3  A    between atoms: C4_4  and  N4_17 
REMARK    4  A    between atoms: C6_6  and  C7_7 
REMARK       I    between atoms: N4_17  and  C13_18 
ROOT
HETATM    1  C7  UNL     1      23.190   0.197  53.134  1.00  0.00     0.127 A 
HETATM    2  N1  UNL     1      22.837  -0.644  54.045  1.00  0.00    -0.225 NA
HETATM    3  C8  UNL     1      21.455  -0.876  54.280  1.00  0.00     0.232 A 
HETATM    4  N2  UNL     1      20.445  -0.340  53.683  1.00  0.00    -0.246 NA
HETATM    5  C9  UNL     1      20.680   0.631  52.627  1.00  0.00     0.152 A 
HETATM    6  C10 UNL     1      19.919   0.285  51.443  1.00  0.00     0.043 A 
HETATM    7  C11 UNL     1      19.224   1.392  51.497  1.00  0.00    -0.006 A 
HETATM    8 BR1  UNL     1      17.834   2.395  50.639  1.00  0.00    -0.056 Br
HETATM    9  C12 UNL     1      19.905   1.884  52.702  1.00  0.00     0.106 A 
HETATM   10  N3  UNL     1      22.108   0.814  52.449  1.00  0.00    -0.343 N 
HETATM   11  H11 UNL     1      22.257   1.505  51.700  1.00  0.00     0.164 HD
ENDROOT
BRANCH   1  12
HETATM   12  C6  UNL     1      24.572   0.495  52.826  1.00  0.00     0.052 C 
HETATM   13  C5  UNL     1      25.066   1.492  52.114  1.00  0.00     0.033 C 
BRANCH  13  14
HETATM   14  C4  UNL     1      26.464   1.750  51.833  1.00  0.00     0.034 C 
HETATM   15  C3  UNL     1      26.683   2.653  50.910  1.00  0.00     0.029 C 
BRANCH  15  16
HETATM   16  C2  UNL     1      25.452   3.205  50.366  1.00  0.00    -0.008 C 
HETATM   17  C1  UNL     1      25.430   4.205  49.473  1.00  0.00     0.011 C 
ENDBRANCH  15  16
BRANCH  14  18
HETATM   18  N4  UNL     1      27.467   1.044  52.539  1.00  0.00    -0.328 N 
HETATM   19  C13 UNL     1      28.203   1.531  53.649  1.00  0.00     0.218 C 
HETATM   20  C14 UNL     1      29.245   0.788  54.376  1.00  0.00     0.117 C 
HETATM   21  O1  UNL     1      27.994   2.685  54.097  1.00  0.00    -0.274 OA
HETATM   22  H12 UNL     1      27.765   0.079  52.301  1.00  0.00     0.169 HD
ENDBRANCH  14  18
ENDBRANCH  13  14
ENDBRANCH   1  12
TORSDOF 4
ENDMDL
MODEL 6
REMARK VINA RESULT:      -6.7      4.844      7.626
REMARK  4 active torsions:
REMARK  status: ('A' for Active; 'I' for Inactive)
REMARK    1  A    between atoms: C2_2  and  C3_3 
REMARK    2  A    between atoms: C4_4  and  C5_5 
REMARK    3  A    between atoms: C4_4  and  N4_17 
REMARK    4  A    between atoms: C6_6  and  C7_7 
REMARK       I    between atoms: N4_17  and  C13_18 
ROOT
HETATM    1  C7  UNL     1      23.146  -0.199  53.348  1.00  0.00     0.127 A 
HETATM    2  N1  UNL     1      22.757  -0.844  54.393  1.00  0.00    -0.225 NA
HETATM    3  C8  UNL     1      23.724  -1.319  55.318  1.00  0.00     0.232 A 
HETATM    4  N2  UNL     1      25.006  -1.194  55.263  1.00  0.00    -0.246 NA
HETATM    5  C9  UNL     1      25.602  -0.488  54.141  1.00  0.00     0.152 A 
HETATM    6  C10 UNL     1      26.529   0.522  54.613  1.00  0.00     0.043 A 
HETATM    7  C11 UNL     1      27.546  -0.056  54.027  1.00  0.00    -0.006 A 
HETATM    8 BR1  UNL     1      29.434   0.064  53.720  1.00  0.00    -0.056 Br
HETATM    9  C12 UNL     1      26.737  -1.152  53.474  1.00  0.00     0.106 A 
HETATM   10  N3  UNL     1      24.554  -0.036  53.245  1.00  0.00    -0.343 N 
HETATM   11  H11 UNL     1      24.993   0.459  52.455  1.00  0.00     0.164 HD
ENDROOT
BRANCH   1  12
HETATM   12  C6  UNL     1      22.233   0.322  52.353  1.00  0.00     0.052 C 
HETATM   13  C5  UNL     1      20.922   0.465  52.426  1.00  0.00     0.033 C 
BRANCH  13  14
HETATM   14  C4  UNL     1      20.047   0.994  51.398  1.00  0.00     0.034 C 
HETATM   15  C3  UNL     1      18.850   0.464  51.367  1.00  0.00     0.029 C 
BRANCH  15  16
HETATM   16  C2  UNL     1      18.664  -0.553  52.390  1.00  0.00    -0.008 C 
HETATM   17  C1  UNL     1      17.456  -0.997  52.770  1.00  0.00     0.011 C 
ENDBRANCH  15  16
BRANCH  14  18
HETATM   18  N4  UNL     1      20.514   2.007  50.527  1.00  0.00    -0.328 N 
HETATM   19  C13 UNL     1      21.181   1.801  49.292  1.00  0.00     0.218 C 
HETATM   20  C14 UNL     1      21.663   2.863  48.395  1.00  0.00     0.117 C 
HETATM   21  O1  UNL     1      21.408   0.640  48.875  1.00  0.00    -0.274 OA
HETATM   22  H12 UNL     1      20.410   3.021  50.719  1.00  0.00     0.169 HD
ENDBRANCH  14  18
ENDBRANCH  13  14
ENDBRANCH   1  12
TORSDOF 4
ENDMDL
MODEL 7
REMARK VINA RESULT:      -6.6      3.677      7.454
REMARK  4 active torsions:
REMARK  status: ('A' for Active; 'I' for Inactive)
REMARK    1  A    between atoms: C2_2  and  C3_3 
REMARK    2  A    between atoms: C4_4  and  C5_5 
REMARK    3  A    between atoms: C4_4  and  N4_17 
REMARK    4  A    between atoms: C6_6  and  C7_7 
REMARK       I    between atoms: N4_17  and  C13_18 
ROOT
HETATM    1  C7  UNL     1      24.416   2.733  51.577  1.00  0.00     0.127 A 
HETATM    2  N1  UNL     1      23.374   2.187  52.103  1.00  0.00    -0.225 NA
HETATM    3  C8  UNL     1      23.530   1.041  52.928  1.00  0.00     0.232 A 
HETATM    4  N2  UNL     1      24.620   0.432  53.247  1.00  0.00    -0.246 NA
HETATM    5  C9  UNL     1      25.885   0.928  52.731  1.00  0.00     0.152 A 
HETATM    6  C10 UNL     1      26.843   1.088  53.808  1.00  0.00     0.043 A 
HETATM    7  C11 UNL     1      27.656   0.203  53.293  1.00  0.00    -0.006 A 
HETATM    8 BR1  UNL     1      29.334  -0.690  53.538  1.00  0.00    -0.056 Br
HETATM    9  C12 UNL     1      26.791  -0.072  52.137  1.00  0.00     0.106 A 
HETATM   10  N3  UNL     1      25.644   2.093  51.901  1.00  0.00    -0.343 N 
HETATM   11  H11 UNL     1      26.549   2.431  51.543  1.00  0.00     0.164 HD
ENDROOT
BRANCH   1  12
HETATM   12  C6  UNL     1      24.354   3.901  50.725  1.00  0.00     0.052 C 
HETATM   13  C5  UNL     1      25.325   4.487  50.050  1.00  0.00     0.033 C 
BRANCH  13  14
HETATM   14  C4  UNL     1      25.212   5.660  49.207  1.00  0.00     0.034 C 
HETATM   15  C3  UNL     1      26.313   6.002  48.587  1.00  0.00     0.029 C 
BRANCH  15  16
HETATM   16  C2  UNL     1      27.423   5.111  48.890  1.00  0.00    -0.008 C 
HETATM   17  C1  UNL     1      28.622   5.207  48.295  1.00  0.00     0.011 C 
ENDBRANCH  15  16
BRANCH  14  18
HETATM   18  N4  UNL     1      23.974   6.338  49.104  1.00  0.00    -0.328 N 
HETATM   19  C13 UNL     1      23.490   7.330  49.995  1.00  0.00     0.218 C 
HETATM   20  C14 UNL     1      22.200   8.028  49.878  1.00  0.00     0.117 C 
HETATM   21  O1  UNL     1      24.174   7.686  50.985  1.00  0.00    -0.274 OA
HETATM   22  H12 UNL     1      23.286   6.165  48.346  1.00  0.00     0.169 HD
ENDBRANCH  14  18
ENDBRANCH  13  14
ENDBRANCH   1  12
TORSDOF 4
ENDMDL
MODEL 8
REMARK VINA RESULT:      -6.5      2.510      3.017
REMARK  4 active torsions:
REMARK  status: ('A' for Active; 'I' for Inactive)
REMARK    1  A    between atoms: C2_2  and  C3_3 
REMARK    2  A    between atoms: C4_4  and  C5_5 
REMARK    3  A    between atoms: C4_4  and  N4_17 
REMARK    4  A    between atoms: C6_6  and  C7_7 
REMARK       I    between atoms: N4_17  and  C13_18 
ROOT
HETATM    1  C7  UNL     1      23.703   3.257  52.114  1.00  0.00     0.127 A 
HETATM    2  N1  UNL     1      23.460   4.398  52.662  1.00  0.00    -0.225 NA
HETATM    3  C8  UNL     1      22.878   5.434  51.884  1.00  0.00     0.232 A 
HETATM    4  N2  UNL     1      22.537   5.400  50.641  1.00  0.00    -0.246 NA
HETATM    5  C9  UNL     1      22.748   4.179  49.882  1.00  0.00     0.152 A 
HETATM    6  C10 UNL     1      21.533   3.799  49.188  1.00  0.00     0.043 A 
HETATM    7  C11 UNL     1      22.097   3.925  48.014  1.00  0.00    -0.006 A 
HETATM    8 BR1  UNL     1      21.800   3.776  46.126  1.00  0.00    -0.056 Br
HETATM    9  C12 UNL     1      23.398   4.326  48.566  1.00  0.00     0.106 A 
HETATM   10  N3  UNL     1      23.344   3.173  50.741  1.00  0.00    -0.343 N 
HETATM   11  H11 UNL     1      23.488   2.317  50.189  1.00  0.00     0.164 HD
ENDROOT
BRANCH   1  12
HETATM   12  C6  UNL     1      24.294   2.146  52.828  1.00  0.00     0.052 C 
HETATM   13  C5  UNL     1      23.949   0.871  52.810  1.00  0.00     0.033 C 
BRANCH  13  14
HETATM   14  C4  UNL     1      24.574  -0.209  53.547  1.00  0.00     0.034 C 
HETATM   15  C3  UNL     1      23.759  -0.912  54.292  1.00  0.00     0.029 C 
BRANCH  15  16
HETATM   16  C2  UNL     1      22.385  -0.443  54.211  1.00  0.00    -0.008 C 
HETATM   17  C1  UNL     1      21.332  -1.197  54.562  1.00  0.00     0.011 C 
ENDBRANCH  15  16
BRANCH  14  18
HETATM   18  N4  UNL     1      25.966  -0.433  53.423  1.00  0.00    -0.328 N 
HETATM   19  C13 UNL     1      26.973   0.099  54.268  1.00  0.00     0.218 C 
HETATM   20  C14 UNL     1      28.418  -0.141  54.130  1.00  0.00     0.117 C 
HETATM   21  O1  UNL     1      26.671   0.842  55.233  1.00  0.00    -0.274 OA
HETATM   22  H12 UNL     1      26.388  -1.022  52.681  1.00  0.00     0.169 HD
ENDBRANCH  14  18
ENDBRANCH  13  14
ENDBRANCH   1  12
TORSDOF 4
ENDMDL
MODEL 9
REMARK VINA RESULT:      -6.5      2.084      2.505
REMARK  4 active torsions:
REMARK  status: ('A' for Active; 'I' for Inactive)
REMARK    1  A    between atoms: C2_2  and  C3_3 
REMARK    2  A    between atoms: C4_4  and  C5_5 
REMARK    3  A    between atoms: C4_4  and  N4_17 
REMARK    4  A    between atoms: C6_6  and  C7_7 
REMARK       I    between atoms: N4_17  and  C13_18 
ROOT
HETATM    1  C7  UNL     1      24.756   2.673  50.823  1.00  0.00     0.127 A 
HETATM    2  N1  UNL     1      25.492   3.687  50.524  1.00  0.00    -0.225 NA
HETATM    3  C8  UNL     1      25.027   4.624  49.563  1.00  0.00     0.232 A 
HETATM    4  N2  UNL     1      23.916   4.610  48.909  1.00  0.00    -0.246 NA
HETATM    5  C9  UNL     1      22.974   3.526  49.137  1.00  0.00     0.152 A 
HETATM    6  C10 UNL     1      21.650   4.054  49.403  1.00  0.00     0.043 A 
HETATM    7  C11 UNL     1      21.146   3.479  48.341  1.00  0.00    -0.006 A 
HETATM    8 BR1  UNL     1      19.539   3.230  47.328  1.00  0.00    -0.056 Br
HETATM    9  C12 UNL     1      22.421   2.872  47.936  1.00  0.00     0.106 A 
HETATM   10  N3  UNL     1      23.519   2.614  50.125  1.00  0.00    -0.343 N 
HETATM   11  H11 UNL     1      22.841   1.853  50.273  1.00  0.00     0.164 HD
ENDROOT
BRANCH   1  12
HETATM   12  C6  UNL     1      25.147   1.669  51.789  1.00  0.00     0.052 C 
HETATM   13  C5  UNL     1      24.384   0.843  52.482  1.00  0.00     0.033 C 
BRANCH  13  14
HETATM   14  C4  UNL     1      24.825  -0.149  53.441  1.00  0.00     0.034 C 
HETATM   15  C3  UNL     1      23.867  -0.710  54.135  1.00  0.00     0.029 C 
BRANCH  15  16
HETATM   16  C2  UNL     1      22.551  -0.202  53.780  1.00  0.00    -0.008 C 
HETATM   17  C1  UNL     1      21.482  -0.314  54.583  1.00  0.00     0.011 C 
ENDBRANCH  15  16
BRANCH  14  18
HETATM   18  N4  UNL     1      26.204  -0.444  53.568  1.00  0.00    -0.328 N 
HETATM   19  C13 UNL     1      27.118   0.206  54.435  1.00  0.00     0.218 C 
HETATM   20  C14 UNL     1      28.550  -0.110  54.558  1.00  0.00     0.117 C 
HETATM   21  O1  UNL     1      26.736   1.134  55.187  1.00  0.00    -0.274 OA
HETATM   22  H12 UNL     1      26.685  -1.183  53.020  1.00  0.00     0.169 HD
ENDBRANCH  14  18
ENDBRANCH  13  14
ENDBRANCH   1  12
TORSDOF 4
ENDMDL
