MODEL 1
REMARK VINA RESULT:      -7.8      0.000      0.000
REMARK  5 active torsions:
REMARK  status: ('A' for Active; 'I' for Inactive)
REMARK    1  A    between atoms: S1_2  and  C2_3 
REMARK    2  A    between atoms: S1_2  and  N2_11 
REMARK    3  A    between atoms: C2_3  and  C3_4 
REMARK    4  A    between atoms: C3_4  and  N1_5 
REMARK    5  A    between atoms: C14_22  and  N5_23 
ROOT
HETATM    1  N2  UNL     1      24.472  -0.176  53.708  1.00  0.00    -0.258 N 
HETATM    2  C8  UNL     1      24.914  -0.796  54.914  1.00  0.00     0.258 C 
HETATM    3  O2  UNL     1      26.173  -0.802  55.075  1.00  0.00    -0.270 OA
HETATM    4  C9  UNL     1      24.076  -1.419  55.971  1.00  0.00     0.280 C 
HETATM    5  O3  UNL     1      22.732  -1.530  55.553  1.00  0.00    -0.340 OA
HETATM    6  C10 UNL     1      22.255  -0.937  54.385  1.00  0.00     0.099 A 
HETATM    7  C11 UNL     1      20.875  -1.070  54.213  1.00  0.00     0.071 A 
HETATM    8  C12 UNL     1      20.309  -0.505  53.068  1.00  0.00     0.075 A 
HETATM    9  N3  UNL     1      18.962  -0.634  52.899  1.00  0.00    -0.241 NA
HETATM   10  C13 UNL     1      18.438  -0.083  51.789  1.00  0.00     0.236 A 
HETATM   11  N4  UNL     1      19.191   0.566  50.880  1.00  0.00    -0.220 NA
HETATM   12  C14 UNL     1      20.518   0.699  51.035  1.00  0.00     0.193 A 
HETATM   13  C15 UNL     1      21.110   0.157  52.151  1.00  0.00     0.045 A 
HETATM   14  C16 UNL     1      22.465   0.272  52.345  1.00  0.00     0.051 A 
HETATM   15  C17 UNL     1      23.052  -0.277  53.471  1.00  0.00     0.083 A 
ENDROOT
BRANCH   1  16
HETATM   16  S1  UNL     1      25.403   0.643  52.560  1.00  0.00    -0.101 SA
HETATM   17  C1  UNL     1      26.574  -0.095  51.842  1.00  0.00     0.075 C 
BRANCH  16  18
HETATM   18  C2  UNL     1      25.547   2.394  52.764  1.00  0.00     0.119 C 
BRANCH  18  19
HETATM   19  C3  UNL     1      24.675   3.067  51.727  1.00  0.00     0.283 C 
BRANCH  19  20
HETATM   20  N1  UNL     1      25.094   2.817  50.368  1.00  0.00     0.093 N 
HETATM   21  C4  UNL     1      24.259   3.494  49.408  1.00  0.00     0.298 C 
HETATM   22  C5  UNL     1      24.279   4.985  49.541  1.00  0.00     0.198 C 
HETATM   23  O1  UNL     1      25.576   5.493  49.632  1.00  0.00    -0.388 OA
HETATM   24  C6  UNL     1      26.531   4.539  49.329  1.00  0.00     0.198 C 
HETATM   25  C7  UNL     1      26.454   3.334  50.253  1.00  0.00     0.298 C 
ENDBRANCH  19  20
ENDBRANCH  18  19
ENDBRANCH  16  18
ENDBRANCH   1  16
BRANCH  12  26
HETATM   26  N5  UNL     1      21.260   1.398  50.036  1.00  0.00    -0.077 NA
HETATM   27  O4  UNL     1      21.458   0.737  48.976  1.00  0.00    -0.059 OA
ENDBRANCH  12  26
TORSDOF 5
ENDMDL
MODEL 2
REMARK VINA RESULT:      -7.7      2.451      4.942
REMARK  5 active torsions:
REMARK  status: ('A' for Active; 'I' for Inactive)
REMARK    1  A    between atoms: S1_2  and  C2_3 
REMARK    2  A    between atoms: S1_2  and  N2_11 
REMARK    3  A    between atoms: C2_3  and  C3_4 
REMARK    4  A    between atoms: C3_4  and  N1_5 
REMARK    5  A    between atoms: C14_22  and  N5_23 
ROOT
HETATM    1  N2  UNL     1      21.648   0.346  52.881  1.00  0.00    -0.258 N 
HETATM    2  C8  UNL     1      20.663  -0.523  53.434  1.00  0.00     0.258 C 
HETATM    3  O2  UNL     1      19.477  -0.296  53.042  1.00  0.00    -0.270 OA
HETATM    4  C9  UNL     1      20.874  -1.637  54.394  1.00  0.00     0.280 C 
HETATM    5  O3  UNL     1      22.193  -1.627  54.899  1.00  0.00    -0.340 OA
HETATM    6  C10 UNL     1      23.190  -0.798  54.387  1.00  0.00     0.099 A 
HETATM    7  C11 UNL     1      24.449  -1.024  54.947  1.00  0.00     0.071 A 
HETATM    8  C12 UNL     1      25.510  -0.237  54.493  1.00  0.00     0.075 A 
HETATM    9  N3  UNL     1      26.739  -0.458  55.040  1.00  0.00    -0.241 NA
HETATM   10  C13 UNL     1      27.747   0.312  54.588  1.00  0.00     0.236 A 
HETATM   11  N4  UNL     1      27.567   1.256  53.645  1.00  0.00    -0.220 NA
HETATM   12  C14 UNL     1      26.361   1.482  53.100  1.00  0.00     0.193 A 
HETATM   13  C15 UNL     1      25.293   0.726  53.521  1.00  0.00     0.045 A 
HETATM   14  C16 UNL     1      24.044   0.928  52.988  1.00  0.00     0.051 A 
HETATM   15  C17 UNL     1      22.975   0.162  53.418  1.00  0.00     0.083 A 
ENDROOT
BRANCH   1  16
HETATM   16  S1  UNL     1      21.439   1.534  51.697  1.00  0.00    -0.101 SA
HETATM   17  C1  UNL     1      22.150   1.386  50.317  1.00  0.00     0.075 C 
BRANCH  16  18
HETATM   18  C2  UNL     1      21.113   3.173  52.273  1.00  0.00     0.119 C 
BRANCH  18  19
HETATM   19  C3  UNL     1      22.417   3.940  52.292  1.00  0.00     0.283 C 
BRANCH  19  20
HETATM   20  N1  UNL     1      22.315   5.269  51.734  1.00  0.00     0.093 N 
HETATM   21  C4  UNL     1      23.560   5.716  51.163  1.00  0.00     0.298 C 
HETATM   22  C5  UNL     1      24.037   4.865  50.027  1.00  0.00     0.198 C 
HETATM   23  O1  UNL     1      23.033   4.616  49.090  1.00  0.00    -0.388 OA
HETATM   24  C6  UNL     1      21.918   5.409  49.299  1.00  0.00     0.198 C 
HETATM   25  C7  UNL     1      21.312   5.197  50.677  1.00  0.00     0.298 C 
ENDBRANCH  19  20
ENDBRANCH  18  19
ENDBRANCH  16  18
ENDBRANCH   1  16
BRANCH  12  26
HETATM   26  N5  UNL     1      26.236   2.498  52.104  1.00  0.00    -0.077 NA
HETATM   27  O4  UNL     1      27.188   2.532  51.273  1.00  0.00    -0.059 OA
ENDBRANCH  12  26
TORSDOF 5
ENDMDL
MODEL 3
REMARK VINA RESULT:      -7.7      2.777      5.662
REMARK  5 active torsions:
REMARK  status: ('A' for Active; 'I' for Inactive)
REMARK    1  A    between atoms: S1_2  and  C2_3 
REMARK    2  A    between atoms: S1_2  and  N2_11 
REMARK    3  A    between atoms: C2_3  and  C3_4 
REMARK    4  A    between atoms: C3_4  and  N1_5 
REMARK    5  A    between atoms: C14_22  and  N5_23 
ROOT
HETATM    1  N2  UNL     1      22.762   2.430  52.402  1.00  0.00    -0.258 N 
HETATM    2  C8  UNL     1      21.428   1.952  52.558  1.00  0.00     0.258 C 
HETATM    3  O2  UNL     1      20.529   2.833  52.395  1.00  0.00    -0.270 OA
HETATM    4  C9  UNL     1      20.994   0.570  52.882  1.00  0.00     0.280 C 
HETATM    5  O3  UNL     1      22.095  -0.236  53.247  1.00  0.00    -0.340 OA
HETATM    6  C10 UNL     1      23.416   0.187  53.108  1.00  0.00     0.099 A 
HETATM    7  C11 UNL     1      24.355  -0.799  53.416  1.00  0.00     0.071 A 
HETATM    8  C12 UNL     1      25.706  -0.463  53.305  1.00  0.00     0.075 A 
HETATM    9  N3  UNL     1      26.624  -1.426  53.606  1.00  0.00    -0.241 NA
HETATM   10  C13 UNL     1      27.920  -1.080  53.493  1.00  0.00     0.236 A 
HETATM   11  N4  UNL     1      28.308   0.149  53.104  1.00  0.00    -0.220 NA
HETATM   12  C14 UNL     1      27.413   1.105  52.805  1.00  0.00     0.193 A 
HETATM   13  C15 UNL     1      26.074   0.811  52.902  1.00  0.00     0.045 A 
HETATM   14  C16 UNL     1      25.129   1.762  52.605  1.00  0.00     0.051 A 
HETATM   15  C17 UNL     1      23.783   1.456  52.705  1.00  0.00     0.083 A 
ENDROOT
BRANCH   1  16
HETATM   16  S1  UNL     1      23.265   3.967  51.913  1.00  0.00    -0.101 SA
HETATM   17  C1  UNL     1      23.411   5.107  52.967  1.00  0.00     0.075 C 
BRANCH  16  18
HETATM   18  C2  UNL     1      22.867   4.437  50.255  1.00  0.00     0.119 C 
BRANCH  18  19
HETATM   19  C3  UNL     1      23.314   3.330  49.326  1.00  0.00     0.283 C 
BRANCH  19  20
HETATM   20  N1  UNL     1      22.520   3.227  48.124  1.00  0.00     0.093 N 
HETATM   21  C4  UNL     1      22.289   1.858  47.739  1.00  0.00     0.298 C 
HETATM   22  C5  UNL     1      21.532   1.068  48.760  1.00  0.00     0.198 C 
HETATM   23  O1  UNL     1      20.392   1.736  49.212  1.00  0.00    -0.388 OA
HETATM   24  C6  UNL     1      20.099   2.845  48.438  1.00  0.00     0.198 C 
HETATM   25  C7  UNL     1      21.236   3.854  48.422  1.00  0.00     0.298 C 
ENDBRANCH  19  20
ENDBRANCH  18  19
ENDBRANCH  16  18
ENDBRANCH   1  16
BRANCH  12  26
HETATM   26  N5  UNL     1      27.889   2.389  52.399  1.00  0.00    -0.077 NA
HETATM   27  O4  UNL     1      28.912   2.788  53.025  1.00  0.00    -0.059 OA
ENDBRANCH  12  26
TORSDOF 5
ENDMDL
MODEL 4
REMARK VINA RESULT:      -7.5      2.597      5.336
REMARK  5 active torsions:
REMARK  status: ('A' for Active; 'I' for Inactive)
REMARK    1  A    between atoms: S1_2  and  C2_3 
REMARK    2  A    between atoms: S1_2  and  N2_11 
REMARK    3  A    between atoms: C2_3  and  C3_4 
REMARK    4  A    between atoms: C3_4  and  N1_5 
REMARK    5  A    between atoms: C14_22  and  N5_23 
ROOT
HETATM    1  N2  UNL     1      22.779   2.482  52.164  1.00  0.00    -0.258 N 
HETATM    2  C8  UNL     1      21.437   2.013  52.276  1.00  0.00     0.258 C 
HETATM    3  O2  UNL     1      20.549   2.890  52.045  1.00  0.00    -0.270 OA
HETATM    4  C9  UNL     1      20.984   0.643  52.627  1.00  0.00     0.280 C 
HETATM    5  O3  UNL     1      22.065  -0.153  53.065  1.00  0.00    -0.340 OA
HETATM    6  C10 UNL     1      23.392   0.262  52.971  1.00  0.00     0.099 A 
HETATM    7  C11 UNL     1      24.314  -0.716  53.352  1.00  0.00     0.071 A 
HETATM    8  C12 UNL     1      25.669  -0.386  53.289  1.00  0.00     0.075 A 
HETATM    9  N3  UNL     1      26.569  -1.341  53.662  1.00  0.00    -0.241 NA
HETATM   10  C13 UNL     1      27.870  -1.002  53.594  1.00  0.00     0.236 A 
HETATM   11  N4  UNL     1      28.280   0.212  53.182  1.00  0.00    -0.220 NA
HETATM   12  C14 UNL     1      27.403   1.160  52.813  1.00  0.00     0.193 A 
HETATM   13  C15 UNL     1      26.060   0.872  52.861  1.00  0.00     0.045 A 
HETATM   14  C16 UNL     1      25.132   1.815  52.492  1.00  0.00     0.051 A 
HETATM   15  C17 UNL     1      23.782   1.516  52.543  1.00  0.00     0.083 A 
ENDROOT
BRANCH   1  16
HETATM   16  S1  UNL     1      23.309   4.001  51.647  1.00  0.00    -0.101 SA
HETATM   17  C1  UNL     1      22.835   5.283  52.396  1.00  0.00     0.075 C 
BRANCH  16  18
HETATM   18  C2  UNL     1      23.697   4.158  49.928  1.00  0.00     0.119 C 
BRANCH  18  19
HETATM   19  C3  UNL     1      25.082   4.754  49.805  1.00  0.00     0.283 C 
BRANCH  19  20
HETATM   20  N1  UNL     1      25.197   5.744  48.759  1.00  0.00     0.093 N 
HETATM   21  C4  UNL     1      24.455   6.942  49.059  1.00  0.00     0.298 C 
HETATM   22  C5  UNL     1      24.924   7.643  50.297  1.00  0.00     0.198 C 
HETATM   23  O1  UNL     1      26.310   7.806  50.322  1.00  0.00    -0.388 OA
HETATM   24  C6  UNL     1      26.891   7.510  49.102  1.00  0.00     0.198 C 
HETATM   25  C7  UNL     1      26.613   6.081  48.664  1.00  0.00     0.298 C 
ENDBRANCH  19  20
ENDBRANCH  18  19
ENDBRANCH  16  18
ENDBRANCH   1  16
BRANCH  12  26
HETATM   26  N5  UNL     1      27.901   2.428  52.386  1.00  0.00    -0.077 NA
HETATM   27  O4  UNL     1      28.928   2.821  53.008  1.00  0.00    -0.059 OA
ENDBRANCH  12  26
TORSDOF 5
ENDMDL
MODEL 5
REMARK VINA RESULT:      -7.4      2.249      3.301
REMARK  5 active torsions:
REMARK  status: ('A' for Active; 'I' for Inactive)
REMARK    1  A    between atoms: S1_2  and  C2_3 
REMARK    2  A    between atoms: S1_2  and  N2_11 
REMARK    3  A    between atoms: C2_3  and  C3_4 
REMARK    4  A    between atoms: C3_4  and  N1_5 
REMARK    5  A    between atoms: C14_22  and  N5_23 
ROOT
HETATM    1  N2  UNL     1      26.004   1.660  52.603  1.00  0.00    -0.258 N 
HETATM    2  C8  UNL     1      27.309   1.513  53.158  1.00  0.00     0.258 C 
HETATM    3  O2  UNL     1      28.210   2.191  52.576  1.00  0.00    -0.270 OA
HETATM    4  C9  UNL     1      27.711   0.672  54.314  1.00  0.00     0.280 C 
HETATM    5  O3  UNL     1      26.658  -0.180  54.712  1.00  0.00    -0.340 OA
HETATM    6  C10 UNL     1      25.366  -0.071  54.201  1.00  0.00     0.099 A 
HETATM    7  C11 UNL     1      24.447  -0.930  54.808  1.00  0.00     0.071 A 
HETATM    8  C12 UNL     1      23.127  -0.888  54.356  1.00  0.00     0.075 A 
HETATM    9  N3  UNL     1      22.230  -1.727  54.950  1.00  0.00    -0.241 NA
HETATM   10  C13 UNL     1      20.963  -1.671  54.499  1.00  0.00     0.236 A 
HETATM   11  N4  UNL     1      20.583  -0.835  53.514  1.00  0.00    -0.220 NA
HETATM   12  C14 UNL     1      21.457  -0.005  52.923  1.00  0.00     0.193 A 
HETATM   13  C15 UNL     1      22.766  -0.017  53.341  1.00  0.00     0.045 A 
HETATM   14  C16 UNL     1      23.690   0.817  52.761  1.00  0.00     0.051 A 
HETATM   15  C17 UNL     1      25.006   0.798  53.189  1.00  0.00     0.083 A 
ENDROOT
BRANCH   1  16
HETATM   16  S1  UNL     1      25.511   2.705  51.369  1.00  0.00    -0.101 SA
HETATM   17  C1  UNL     1      26.455   2.975  50.159  1.00  0.00     0.075 C 
BRANCH  16  18
HETATM   18  C2  UNL     1      24.386   3.990  51.827  1.00  0.00     0.119 C 
BRANCH  18  19
HETATM   19  C3  UNL     1      23.219   3.967  50.864  1.00  0.00     0.283 C 
BRANCH  19  20
HETATM   20  N1  UNL     1      23.281   4.997  49.854  1.00  0.00     0.093 N 
HETATM   21  C4  UNL     1      21.977   5.340  49.345  1.00  0.00     0.298 C 
HETATM   22  C5  UNL     1      21.052   5.888  50.388  1.00  0.00     0.198 C 
HETATM   23  O1  UNL     1      21.649   6.889  51.155  1.00  0.00    -0.388 OA
HETATM   24  C6  UNL     1      22.854   7.308  50.617  1.00  0.00     0.198 C 
HETATM   25  C7  UNL     1      23.857   6.172  50.498  1.00  0.00     0.298 C 
ENDBRANCH  19  20
ENDBRANCH  18  19
ENDBRANCH  16  18
ENDBRANCH   1  16
BRANCH  12  26
HETATM   26  N5  UNL     1      20.991   0.857  51.884  1.00  0.00    -0.077 NA
HETATM   27  O4  UNL     1      20.154   0.325  51.101  1.00  0.00    -0.059 OA
ENDBRANCH  12  26
TORSDOF 5
ENDMDL
MODEL 6
REMARK VINA RESULT:      -7.2      2.653      5.347
REMARK  5 active torsions:
REMARK  status: ('A' for Active; 'I' for Inactive)
REMARK    1  A    between atoms: S1_2  and  C2_3 
REMARK    2  A    between atoms: S1_2  and  N2_11 
REMARK    3  A    between atoms: C2_3  and  C3_4 
REMARK    4  A    between atoms: C3_4  and  N1_5 
REMARK    5  A    between atoms: C14_22  and  N5_23 
ROOT
HETATM    1  N2  UNL     1      22.128   0.547  52.961  1.00  0.00    -0.258 N 
HETATM    2  C8  UNL     1      21.250  -0.332  53.660  1.00  0.00     0.258 C 
HETATM    3  O2  UNL     1      20.016  -0.124  53.450  1.00  0.00    -0.270 OA
HETATM    4  C9  UNL     1      21.620  -1.436  54.583  1.00  0.00     0.280 C 
HETATM    5  O3  UNL     1      23.000  -1.404  54.884  1.00  0.00    -0.340 OA
HETATM    6  C10 UNL     1      23.896  -0.564  54.224  1.00  0.00     0.099 A 
HETATM    7  C11 UNL     1      25.228  -0.768  54.589  1.00  0.00     0.071 A 
HETATM    8  C12 UNL     1      26.196   0.030  53.977  1.00  0.00     0.075 A 
HETATM    9  N3  UNL     1      27.497  -0.169  54.334  1.00  0.00    -0.241 NA
HETATM   10  C13 UNL     1      28.413   0.612  53.732  1.00  0.00     0.236 A 
HETATM   11  N4  UNL     1      28.080   1.547  52.822  1.00  0.00    -0.220 NA
HETATM   12  C14 UNL     1      26.802   1.752  52.463  1.00  0.00     0.193 A 
HETATM   13  C15 UNL     1      25.822   0.984  53.044  1.00  0.00     0.045 A 
HETATM   14  C16 UNL     1      24.503   1.164  52.703  1.00  0.00     0.051 A 
HETATM   15  C17 UNL     1      23.523   0.386  53.293  1.00  0.00     0.083 A 
ENDROOT
BRANCH   1  16
HETATM   16  S1  UNL     1      21.725   1.723  51.815  1.00  0.00    -0.101 SA
HETATM   17  C1  UNL     1      21.069   3.060  52.275  1.00  0.00     0.075 C 
BRANCH  16  18
HETATM   18  C2  UNL     1      21.338   1.141  50.191  1.00  0.00     0.119 C 
BRANCH  18  19
HETATM   19  C3  UNL     1      21.842   2.156  49.188  1.00  0.00     0.283 C 
BRANCH  19  20
HETATM   20  N1  UNL     1      20.873   3.174  48.856  1.00  0.00     0.093 N 
HETATM   21  C4  UNL     1      21.459   4.489  48.807  1.00  0.00     0.298 C 
HETATM   22  C5  UNL     1      22.527   4.630  47.767  1.00  0.00     0.198 C 
HETATM   23  O1  UNL     1      22.128   4.134  46.525  1.00  0.00    -0.388 OA
HETATM   24  C6  UNL     1      20.773   3.860  46.484  1.00  0.00     0.198 C 
HETATM   25  C7  UNL     1      20.360   2.839  47.532  1.00  0.00     0.298 C 
ENDBRANCH  19  20
ENDBRANCH  18  19
ENDBRANCH  16  18
ENDBRANCH   1  16
BRANCH  12  26
HETATM   26  N5  UNL     1      26.514   2.759  51.492  1.00  0.00    -0.077 NA
HETATM   27  O4  UNL     1      26.863   2.461  50.314  1.00  0.00    -0.059 OA
ENDBRANCH  12  26
TORSDOF 5
ENDMDL
MODEL 7
REMARK VINA RESULT:      -7.2      2.566      6.920
REMARK  5 active torsions:
REMARK  status: ('A' for Active; 'I' for Inactive)
REMARK    1  A    between atoms: S1_2  and  C2_3 
REMARK    2  A    between atoms: S1_2  and  N2_11 
REMARK    3  A    between atoms: C2_3  and  C3_4 
REMARK    4  A    between atoms: C3_4  and  N1_5 
REMARK    5  A    between atoms: C14_22  and  N5_23 
ROOT
HETATM    1  N2  UNL     1      23.832   2.373  51.001  1.00  0.00    -0.258 N 
HETATM    2  C8  UNL     1      24.010   3.355  49.982  1.00  0.00     0.258 C 
HETATM    3  O2  UNL     1      22.974   3.590  49.288  1.00  0.00    -0.270 OA
HETATM    4  C9  UNL     1      25.248   4.109  49.659  1.00  0.00     0.280 C 
HETATM    5  O3  UNL     1      26.358   3.587  50.361  1.00  0.00    -0.340 OA
HETATM    6  C10 UNL     1      26.231   2.631  51.367  1.00  0.00     0.099 A 
HETATM    7  C11 UNL     1      27.433   2.334  52.013  1.00  0.00     0.071 A 
HETATM    8  C12 UNL     1      27.399   1.384  53.036  1.00  0.00     0.075 A 
HETATM    9  N3  UNL     1      28.573   1.094  53.667  1.00  0.00    -0.241 NA
HETATM   10  C13 UNL     1      28.518   0.175  54.649  1.00  0.00     0.236 A 
HETATM   11  N4  UNL     1      27.372  -0.435  55.004  1.00  0.00    -0.220 NA
HETATM   12  C14 UNL     1      26.211  -0.158  54.389  1.00  0.00     0.193 A 
HETATM   13  C15 UNL     1      26.204   0.773  53.378  1.00  0.00     0.045 A 
HETATM   14  C16 UNL     1      25.036   1.084  52.726  1.00  0.00     0.051 A 
HETATM   15  C17 UNL     1      25.039   2.022  51.709  1.00  0.00     0.083 A 
ENDROOT
BRANCH   1  16
HETATM   16  S1  UNL     1      22.401   1.599  51.459  1.00  0.00    -0.101 SA
HETATM   17  C1  UNL     1      21.772   0.518  50.528  1.00  0.00     0.075 C 
BRANCH  16  18
HETATM   18  C2  UNL     1      21.302   2.521  52.494  1.00  0.00     0.119 C 
BRANCH  18  19
HETATM   19  C3  UNL     1      19.885   2.267  52.030  1.00  0.00     0.283 C 
BRANCH  19  20
HETATM   20  N1  UNL     1      19.156   3.471  51.707  1.00  0.00     0.093 N 
HETATM   21  C4  UNL     1      19.619   4.076  50.484  1.00  0.00     0.298 C 
HETATM   22  C5  UNL     1      19.452   3.200  49.282  1.00  0.00     0.198 C 
HETATM   23  O1  UNL     1      18.173   2.648  49.200  1.00  0.00    -0.388 OA
HETATM   24  C6  UNL     1      17.296   3.229  50.098  1.00  0.00     0.198 C 
HETATM   25  C7  UNL     1      17.762   3.077  51.538  1.00  0.00     0.298 C 
ENDBRANCH  19  20
ENDBRANCH  18  19
ENDBRANCH  16  18
ENDBRANCH   1  16
BRANCH  12  26
HETATM   26  N5  UNL     1      25.029  -0.840  54.812  1.00  0.00    -0.077 NA
HETATM   27  O4  UNL     1      25.055  -1.229  56.015  1.00  0.00    -0.059 OA
ENDBRANCH  12  26
TORSDOF 5
ENDMDL
MODEL 8
REMARK VINA RESULT:      -7.1      2.385      3.922
REMARK  5 active torsions:
REMARK  status: ('A' for Active; 'I' for Inactive)
REMARK    1  A    between atoms: S1_2  and  C2_3 
REMARK    2  A    between atoms: S1_2  and  N2_11 
REMARK    3  A    between atoms: C2_3  and  C3_4 
REMARK    4  A    between atoms: C3_4  and  N1_5 
REMARK    5  A    between atoms: C14_22  and  N5_23 
ROOT
HETATM    1  N2  UNL     1      24.887   2.472  51.191  1.00  0.00    -0.258 N 
HETATM    2  C8  UNL     1      26.310   2.433  51.268  1.00  0.00     0.258 C 
HETATM    3  O2  UNL     1      26.904   3.231  50.479  1.00  0.00    -0.270 OA
HETATM    4  C9  UNL     1      27.145   1.581  52.151  1.00  0.00     0.280 C 
HETATM    5  O3  UNL     1      26.361   0.604  52.804  1.00  0.00    -0.340 OA
HETATM    6  C10 UNL     1      24.968   0.604  52.760  1.00  0.00     0.099 A 
HETATM    7  C11 UNL     1      24.381  -0.376  53.563  1.00  0.00     0.071 A 
HETATM    8  C12 UNL     1      22.987  -0.449  53.580  1.00  0.00     0.075 A 
HETATM    9  N3  UNL     1      22.414  -1.406  54.364  1.00  0.00    -0.241 NA
HETATM   10  C13 UNL     1      21.069  -1.459  54.365  1.00  0.00     0.236 A 
HETATM   11  N4  UNL     1      20.312  -0.618  53.635  1.00  0.00    -0.220 NA
HETATM   12  C14 UNL     1      20.865   0.328  52.859  1.00  0.00     0.193 A 
HETATM   13  C15 UNL     1      22.235   0.431  52.818  1.00  0.00     0.045 A 
HETATM   14  C16 UNL     1      22.839   1.386  52.036  1.00  0.00     0.051 A 
HETATM   15  C17 UNL     1      24.218   1.482  52.001  1.00  0.00     0.083 A 
ENDROOT
BRANCH   1  16
HETATM   16  S1  UNL     1      23.923   3.522  50.282  1.00  0.00    -0.101 SA
HETATM   17  C1  UNL     1      23.534   3.147  48.820  1.00  0.00     0.075 C 
BRANCH  16  18
HETATM   18  C2  UNL     1      24.041   5.242  50.677  1.00  0.00     0.119 C 
BRANCH  18  19
HETATM   19  C3  UNL     1      24.638   5.964  49.489  1.00  0.00     0.283 C 
BRANCH  19  20
HETATM   20  N1  UNL     1      25.967   6.476  49.730  1.00  0.00     0.093 N 
HETATM   21  C4  UNL     1      26.727   6.614  48.514  1.00  0.00     0.298 C 
HETATM   22  C5  UNL     1      26.123   7.574  47.536  1.00  0.00     0.198 C 
HETATM   23  O1  UNL     1      25.769   8.786  48.131  1.00  0.00    -0.388 OA
HETATM   24  C6  UNL     1      26.280   8.906  49.411  1.00  0.00     0.198 C 
HETATM   25  C7  UNL     1      25.798   7.795  50.330  1.00  0.00     0.298 C 
ENDBRANCH  19  20
ENDBRANCH  18  19
ENDBRANCH  16  18
ENDBRANCH   1  16
BRANCH  12  26
HETATM   26  N5  UNL     1      20.008   1.190  52.109  1.00  0.00    -0.077 NA
HETATM   27  O4  UNL     1      18.802   0.815  52.066  1.00  0.00    -0.059 OA
ENDBRANCH  12  26
TORSDOF 5
ENDMDL
MODEL 9
REMARK VINA RESULT:      -7.0      2.515      5.297
REMARK  5 active torsions:
REMARK  status: ('A' for Active; 'I' for Inactive)
REMARK    1  A    between atoms: S1_2  and  C2_3 
REMARK    2  A    between atoms: S1_2  and  N2_11 
REMARK    3  A    between atoms: C2_3  and  C3_4 
REMARK    4  A    between atoms: C3_4  and  N1_5 
REMARK    5  A    between atoms: C14_22  and  N5_23 
ROOT
HETATM    1  N2  UNL     1      23.671   2.327  50.659  1.00  0.00    -0.258 N 
HETATM    2  C8  UNL     1      24.673   3.077  49.976  1.00  0.00     0.258 C 
HETATM    3  O2  UNL     1      24.269   3.665  48.926  1.00  0.00    -0.270 OA
HETATM    4  C9  UNL     1      26.100   3.238  50.356  1.00  0.00     0.280 C 
HETATM    5  O3  UNL     1      26.447   2.360  51.407  1.00  0.00    -0.340 OA
HETATM    6  C10 UNL     1      25.502   1.611  52.105  1.00  0.00     0.099 A 
HETATM    7  C11 UNL     1      26.036   0.896  53.179  1.00  0.00     0.071 A 
HETATM    8  C12 UNL     1      25.160   0.116  53.937  1.00  0.00     0.075 A 
HETATM    9  N3  UNL     1      25.682  -0.582  54.986  1.00  0.00    -0.241 NA
HETATM   10  C13 UNL     1      24.820  -1.328  55.702  1.00  0.00     0.236 A 
HETATM   11  N4  UNL     1      23.507  -1.393  55.411  1.00  0.00    -0.220 NA
HETATM   12  C14 UNL     1      22.982  -0.711  54.381  1.00  0.00     0.193 A 
HETATM   13  C15 UNL     1      23.814   0.069  53.613  1.00  0.00     0.045 A 
HETATM   14  C16 UNL     1      23.315   0.782  52.550  1.00  0.00     0.051 A 
HETATM   15  C17 UNL     1      24.160   1.564  51.783  1.00  0.00     0.083 A 
ENDROOT
BRANCH   1  16
HETATM   16  S1  UNL     1      22.021   2.236  50.308  1.00  0.00    -0.101 SA
HETATM   17  C1  UNL     1      21.547   1.600  48.966  1.00  0.00     0.075 C 
BRANCH  16  18
HETATM   18  C2  UNL     1      20.992   3.483  51.026  1.00  0.00     0.119 C 
BRANCH  18  19
HETATM   19  C3  UNL     1      21.790   4.766  51.112  1.00  0.00     0.283 C 
BRANCH  19  20
HETATM   20  N1  UNL     1      21.151   5.890  50.468  1.00  0.00     0.093 N 
HETATM   21  C4  UNL     1      21.689   7.151  50.913  1.00  0.00     0.298 C 
HETATM   22  C5  UNL     1      23.146   7.320  50.612  1.00  0.00     0.198 C 
HETATM   23  O1  UNL     1      23.456   6.999  49.289  1.00  0.00    -0.388 OA
HETATM   24  C6  UNL     1      22.322   6.843  48.512  1.00  0.00     0.198 C 
HETATM   25  C7  UNL     1      21.409   5.748  49.039  1.00  0.00     0.298 C 
ENDBRANCH  19  20
ENDBRANCH  18  19
ENDBRANCH  16  18
ENDBRANCH   1  16
BRANCH  12  26
HETATM   26  N5  UNL     1      21.582  -0.822  54.124  1.00  0.00    -0.077 NA
HETATM   27  O4  UNL     1      21.029  -1.816  54.676  1.00  0.00    -0.059 OA
ENDBRANCH  12  26
TORSDOF 5
ENDMDL
