MODEL 1
REMARK VINA RESULT:      -8.8      0.000      0.000
REMARK  3 active torsions:
REMARK  status: ('A' for Active; 'I' for Inactive)
REMARK    1  A    between atoms: C3_3  and  C4_4 
REMARK    2  A    between atoms: C4_4  and  C5_6 
REMARK    3  A    between atoms: C5_6  and  C6_7 
ROOT
HETATM    1  C6  UNL     1      24.464   1.358  52.674  1.00  0.00     0.046 C 
HETATM    2  N1  UNL     1      23.774   0.340  53.022  1.00  0.00    -0.246 NA
HETATM    3  C7  UNL     1      22.490   0.075  52.524  1.00  0.00     0.228 C 
HETATM    4  N2  UNL     1      21.990   0.885  51.712  1.00  0.00    -0.267 NA
HETATM    5  C8  UNL     1      22.547   2.105  51.196  1.00  0.00     0.082 C 
HETATM    6  C9  UNL     1      22.614   1.903  49.719  1.00  0.00     0.046 C 
HETATM    7  C10 UNL     1      21.676   3.211  51.709  1.00  0.00     0.069 C 
HETATM    8  C11 UNL     1      21.250   4.165  50.585  1.00  0.00     0.126 C 
HETATM    9  C12 UNL     1      20.294   3.568  49.607  1.00  0.00     0.040 C 
HETATM   10  O1  UNL     1      20.801   5.409  51.031  1.00  0.00    -0.318 OA
HETATM   11  C13 UNL     1      21.549   6.553  50.978  1.00  0.00     0.493 A 
HETATM   12  O2  UNL     1      22.654   6.289  50.565  1.00  0.00    -0.114 OA
HETATM   13  N3  UNL     1      22.432   7.747  50.888  1.00  0.00     0.140 N 
HETATM   14  C14 UNL     1      23.835   7.808  50.519  1.00  0.00     0.257 C 
HETATM   15  C15 UNL     1      24.745   6.924  50.217  1.00  0.00     0.018 C 
HETATM   16  C16 UNL     1      25.019   5.507  50.059  1.00  0.00     0.073 C 
HETATM   17  C17 UNL     1      25.279   4.277  50.343  1.00  0.00    -0.047 C 
HETATM   18  C18 UNL     1      26.405   4.288  49.361  1.00  0.00     0.015 C 
HETATM   19  C19 UNL     1      26.593   5.469  48.714  1.00  0.00     0.051 C 
HETATM   20  S1  UNL     1      26.417   7.089  49.563  1.00  0.00    -0.104 SA
HETATM   21  C20 UNL     1      24.863   3.171  51.184  1.00  0.00     0.019 C 
HETATM   22  C21 UNL     1      23.986   2.312  51.638  1.00  0.00    -0.003 C 
HETATM   23  H19 UNL     1      21.949   8.631  51.124  1.00  0.00     0.331 HD
ENDROOT
BRANCH   1  24
HETATM   24  C5  UNL     1      25.766   1.375  53.391  1.00  0.00     0.084 C 
BRANCH  24  25
HETATM   25  C4  UNL     1      26.128  -0.027  53.827  1.00  0.00     0.110 C 
HETATM   26 CL1  UNL     1      25.867  -0.359  55.526  1.00  0.00    -0.120 Cl
BRANCH  25  27
HETATM   27  C3  UNL     1      27.469  -0.457  53.329  1.00  0.00    -0.011 C 
HETATM   28  C2  UNL     1      28.698  -0.483  53.840  1.00  0.00    -0.033 C 
HETATM   29  C1  UNL     1      30.085  -0.857  53.510  1.00  0.00     0.036 C 
ENDBRANCH  25  27
ENDBRANCH  24  25
ENDBRANCH   1  24
TORSDOF 3
ENDMDL
MODEL 2
REMARK VINA RESULT:      -8.8      3.214      5.303
REMARK  3 active torsions:
REMARK  status: ('A' for Active; 'I' for Inactive)
REMARK    1  A    between atoms: C3_3  and  C4_4 
REMARK    2  A    between atoms: C4_4  and  C5_6 
REMARK    3  A    between atoms: C5_6  and  C6_7 
ROOT
HETATM    1  C6  UNL     1      25.815   1.291  51.540  1.00  0.00     0.046 C 
HETATM    2  N1  UNL     1      26.819   1.986  51.161  1.00  0.00    -0.246 NA
HETATM    3  C7  UNL     1      26.707   3.296  50.673  1.00  0.00     0.228 C 
HETATM    4  N2  UNL     1      25.566   3.803  50.590  1.00  0.00    -0.267 NA
HETATM    5  C8  UNL     1      24.295   3.221  50.921  1.00  0.00     0.082 C 
HETATM    6  C9  UNL     1      23.732   4.106  51.984  1.00  0.00     0.046 C 
HETATM    7  C10 UNL     1      23.538   3.112  49.633  1.00  0.00     0.069 C 
HETATM    8  C11 UNL     1      22.121   3.690  49.757  1.00  0.00     0.126 C 
HETATM    9  C12 UNL     1      22.078   5.173  49.912  1.00  0.00     0.040 C 
HETATM   10  O1  UNL     1      21.242   3.263  48.760  1.00  0.00    -0.318 OA
HETATM   11  C13 UNL     1      20.281   2.307  48.950  1.00  0.00     0.493 A 
HETATM   12  O2  UNL     1      20.379   1.859  50.069  1.00  0.00    -0.114 OA
HETATM   13  N3  UNL     1      19.269   1.257  49.242  1.00  0.00     0.140 N 
HETATM   14  C14 UNL     1      19.130   0.442  50.435  1.00  0.00     0.257 C 
HETATM   15  C15 UNL     1      19.803   0.314  51.545  1.00  0.00     0.018 C 
HETATM   16  C16 UNL     1      20.964   0.768  52.288  1.00  0.00     0.073 C 
HETATM   17  C17 UNL     1      22.185   0.903  52.678  1.00  0.00    -0.047 C 
HETATM   18  C18 UNL     1      21.762   0.661  54.090  1.00  0.00     0.015 C 
HETATM   19  C19 UNL     1      20.431   0.434  54.261  1.00  0.00     0.051 C 
HETATM   20  S1  UNL     1      19.449  -0.569  53.076  1.00  0.00    -0.104 SA
HETATM   21  C20 UNL     1      23.532   1.152  52.199  1.00  0.00     0.019 C 
HETATM   22  C21 UNL     1      24.439   1.855  51.571  1.00  0.00    -0.003 C 
HETATM   23  H19 UNL     1      18.592   1.117  48.472  1.00  0.00     0.331 HD
ENDROOT
BRANCH   1  24
HETATM   24  C5  UNL     1      26.251  -0.060  51.979  1.00  0.00     0.084 C 
BRANCH  24  25
HETATM   25  C4  UNL     1      27.042   0.050  53.263  1.00  0.00     0.110 C 
HETATM   26 CL1  UNL     1      28.588  -0.773  53.247  1.00  0.00    -0.120 Cl
BRANCH  25  27
HETATM   27  C3  UNL     1      26.218  -0.242  54.474  1.00  0.00    -0.011 C 
HETATM   28  C2  UNL     1      25.084  -0.899  54.704  1.00  0.00    -0.033 C 
HETATM   29  C1  UNL     1      24.160  -1.275  55.789  1.00  0.00     0.036 C 
ENDBRANCH  25  27
ENDBRANCH  24  25
ENDBRANCH   1  24
TORSDOF 3
ENDMDL
MODEL 3
REMARK VINA RESULT:      -8.3      2.796      3.818
REMARK  3 active torsions:
REMARK  status: ('A' for Active; 'I' for Inactive)
REMARK    1  A    between atoms: C3_3  and  C4_4 
REMARK    2  A    between atoms: C4_4  and  C5_6 
REMARK    3  A    between atoms: C5_6  and  C6_7 
ROOT
HETATM    1  C6  UNL     1      23.693   1.438  52.646  1.00  0.00     0.046 C 
HETATM    2  N1  UNL     1      23.737   0.466  53.476  1.00  0.00    -0.246 NA
HETATM    3  C7  UNL     1      22.692  -0.456  53.635  1.00  0.00     0.228 C 
HETATM    4  N2  UNL     1      21.661  -0.310  52.942  1.00  0.00    -0.267 NA
HETATM    5  C8  UNL     1      21.362   0.708  51.973  1.00  0.00     0.082 C 
HETATM    6  C9  UNL     1      21.146  -0.030  50.693  1.00  0.00     0.046 C 
HETATM    7  C10 UNL     1      20.211   1.489  52.529  1.00  0.00     0.069 C 
HETATM    8  C11 UNL     1      19.088   1.657  51.497  1.00  0.00     0.126 C 
HETATM    9  C12 UNL     1      18.361   0.394  51.175  1.00  0.00     0.040 C 
HETATM   10  O1  UNL     1      18.195   2.690  51.788  1.00  0.00    -0.318 OA
HETATM   11  C13 UNL     1      18.210   3.908  51.163  1.00  0.00     0.493 A 
HETATM   12  O2  UNL     1      19.147   3.954  50.401  1.00  0.00    -0.114 OA
HETATM   13  N3  UNL     1      18.299   5.203  50.439  1.00  0.00     0.140 N 
HETATM   14  C14 UNL     1      19.326   5.654  49.516  1.00  0.00     0.257 C 
HETATM   15  C15 UNL     1      20.449   5.157  49.076  1.00  0.00     0.018 C 
HETATM   16  C16 UNL     1      21.359   4.029  49.152  1.00  0.00     0.073 C 
HETATM   17  C17 UNL     1      22.274   3.228  49.579  1.00  0.00    -0.047 C 
HETATM   18  C18 UNL     1      22.944   3.281  48.245  1.00  0.00     0.015 C 
HETATM   19  C19 UNL     1      22.328   4.069  47.323  1.00  0.00     0.051 C 
HETATM   20  S1  UNL     1      21.570   5.684  47.767  1.00  0.00    -0.104 SA
HETATM   21  C20 UNL     1      22.713   2.491  50.750  1.00  0.00     0.019 C 
HETATM   22  C21 UNL     1      22.549   1.621  51.713  1.00  0.00    -0.003 C 
HETATM   23  H19 UNL     1      17.511   5.841  50.642  1.00  0.00     0.331 HD
ENDROOT
BRANCH   1  24
HETATM   24  C5  UNL     1      24.934   2.251  52.729  1.00  0.00     0.084 C 
BRANCH  24  25
HETATM   25  C4  UNL     1      25.948   1.739  51.731  1.00  0.00     0.110 C 
HETATM   26 CL1  UNL     1      27.047   0.526  52.355  1.00  0.00    -0.120 Cl
BRANCH  25  27
HETATM   27  C3  UNL     1      26.629   2.840  50.986  1.00  0.00    -0.011 C 
HETATM   28  C2  UNL     1      26.426   3.457  49.824  1.00  0.00    -0.033 C 
HETATM   29  C1  UNL     1      26.973   4.520  48.963  1.00  0.00     0.036 C 
ENDBRANCH  25  27
ENDBRANCH  24  25
ENDBRANCH   1  24
TORSDOF 3
ENDMDL
MODEL 4
REMARK VINA RESULT:      -8.3      3.130      5.568
REMARK  3 active torsions:
REMARK  status: ('A' for Active; 'I' for Inactive)
REMARK    1  A    between atoms: C3_3  and  C4_4 
REMARK    2  A    between atoms: C4_4  and  C5_6 
REMARK    3  A    between atoms: C5_6  and  C6_7 
ROOT
HETATM    1  C6  UNL     1      23.601   0.577  52.836  1.00  0.00     0.046 C 
HETATM    2  N1  UNL     1      24.761   0.624  53.371  1.00  0.00    -0.246 NA
HETATM    3  C7  UNL     1      25.600   1.746  53.290  1.00  0.00     0.228 C 
HETATM    4  N2  UNL     1      25.198   2.741  52.648  1.00  0.00    -0.267 NA
HETATM    5  C8  UNL     1      23.961   2.919  51.939  1.00  0.00     0.082 C 
HETATM    6  C9  UNL     1      23.304   4.086  52.599  1.00  0.00     0.046 C 
HETATM    7  C10 UNL     1      24.324   3.051  50.492  1.00  0.00     0.069 C 
HETATM    8  C11 UNL     1      23.650   4.270  49.847  1.00  0.00     0.126 C 
HETATM    9  C12 UNL     1      24.176   5.582  50.326  1.00  0.00     0.040 C 
HETATM   10  O1  UNL     1      23.605   4.226  48.453  1.00  0.00    -0.318 OA
HETATM   11  C13 UNL     1      22.482   3.910  47.737  1.00  0.00     0.493 A 
HETATM   12  O2  UNL     1      21.593   3.611  48.500  1.00  0.00    -0.114 OA
HETATM   13  N3  UNL     1      21.218   3.552  47.039  1.00  0.00     0.140 N 
HETATM   14  C14 UNL     1      19.976   3.065  47.611  1.00  0.00     0.257 C 
HETATM   15  C15 UNL     1      19.578   2.751  48.812  1.00  0.00     0.018 C 
HETATM   16  C16 UNL     1      19.973   2.647  50.205  1.00  0.00     0.073 C 
HETATM   17  C17 UNL     1      20.501   2.198  51.292  1.00  0.00    -0.047 C 
HETATM   18  C18 UNL     1      19.195   2.370  51.997  1.00  0.00     0.015 C 
HETATM   19  C19 UNL     1      18.186   2.863  51.229  1.00  0.00     0.051 C 
HETATM   20  S1  UNL     1      17.951   2.353  49.479  1.00  0.00    -0.104 SA
HETATM   21  C20 UNL     1      21.735   1.679  51.851  1.00  0.00     0.019 C 
HETATM   22  C21 UNL     1      23.007   1.753  52.145  1.00  0.00    -0.003 C 
HETATM   23  H19 UNL     1      21.268   3.680  46.013  1.00  0.00     0.331 HD
ENDROOT
BRANCH   1  24
HETATM   24  C5  UNL     1      22.970  -0.748  53.074  1.00  0.00     0.084 C 
BRANCH  24  25
HETATM   25  C4  UNL     1      22.276  -0.750  54.417  1.00  0.00     0.110 C 
HETATM   26 CL1  UNL     1      23.167  -1.534  55.705  1.00  0.00    -0.120 Cl
BRANCH  25  27
HETATM   27  C3  UNL     1      20.848  -1.179  54.327  1.00  0.00    -0.011 C 
HETATM   28  C2  UNL     1      19.827  -0.890  53.523  1.00  0.00    -0.033 C 
HETATM   29  C1  UNL     1      18.406  -1.203  53.293  1.00  0.00     0.036 C 
ENDBRANCH  25  27
ENDBRANCH  24  25
ENDBRANCH   1  24
TORSDOF 3
ENDMDL
MODEL 5
REMARK VINA RESULT:      -8.2      1.863      2.215
REMARK  3 active torsions:
REMARK  status: ('A' for Active; 'I' for Inactive)
REMARK    1  A    between atoms: C3_3  and  C4_4 
REMARK    2  A    between atoms: C4_4  and  C5_6 
REMARK    3  A    between atoms: C5_6  and  C6_7 
ROOT
HETATM    1  C6  UNL     1      23.062   1.794  51.376  1.00  0.00     0.046 C 
HETATM    2  N1  UNL     1      22.200   0.851  51.437  1.00  0.00    -0.246 NA
HETATM    3  C7  UNL     1      21.277   0.587  50.414  1.00  0.00     0.228 C 
HETATM    4  N2  UNL     1      21.288   1.320  49.401  1.00  0.00    -0.267 NA
HETATM    5  C8  UNL     1      22.129   2.449  49.113  1.00  0.00     0.082 C 
HETATM    6  C9  UNL     1      22.858   2.079  47.864  1.00  0.00     0.046 C 
HETATM    7  C10 UNL     1      21.224   3.642  49.064  1.00  0.00     0.069 C 
HETATM    8  C11 UNL     1      21.459   4.480  47.800  1.00  0.00     0.126 C 
HETATM    9  C12 UNL     1      21.018   3.817  46.537  1.00  0.00     0.040 C 
HETATM   10  O1  UNL     1      20.968   5.784  47.880  1.00  0.00    -0.318 OA
HETATM   11  C13 UNL     1      21.755   6.883  48.096  1.00  0.00     0.493 A 
HETATM   12  O2  UNL     1      22.896   6.527  48.276  1.00  0.00    -0.114 OA
HETATM   13  N3  UNL     1      22.682   8.020  48.338  1.00  0.00     0.140 N 
HETATM   14  C14 UNL     1      24.095   7.979  48.673  1.00  0.00     0.257 C 
HETATM   15  C15 UNL     1      24.957   7.030  48.907  1.00  0.00     0.018 C 
HETATM   16  C16 UNL     1      25.143   5.594  49.011  1.00  0.00     0.073 C 
HETATM   17  C17 UNL     1      25.128   4.394  49.481  1.00  0.00    -0.047 C 
HETATM   18  C18 UNL     1      26.578   4.245  49.150  1.00  0.00     0.015 C 
HETATM   19  C19 UNL     1      27.151   5.337  48.576  1.00  0.00     0.051 C 
HETATM   20  S1  UNL     1      26.748   7.049  49.110  1.00  0.00    -0.104 SA
HETATM   21  C20 UNL     1      24.270   3.408  50.112  1.00  0.00     0.019 C 
HETATM   22  C21 UNL     1      23.210   2.644  50.165  1.00  0.00    -0.003 C 
HETATM   23  H19 UNL     1      22.227   8.945  48.247  1.00  0.00     0.331 HD
ENDROOT
BRANCH   1  24
HETATM   24  C5  UNL     1      23.876   1.836  52.619  1.00  0.00     0.084 C 
BRANCH  24  25
HETATM   25  C4  UNL     1      24.990   0.818  52.535  1.00  0.00     0.110 C 
HETATM   26 CL1  UNL     1      24.871  -0.499  53.684  1.00  0.00    -0.120 Cl
BRANCH  25  27
HETATM   27  C3  UNL     1      26.344   1.448  52.481  1.00  0.00    -0.011 C 
HETATM   28  C2  UNL     1      27.219   1.876  53.387  1.00  0.00    -0.033 C 
HETATM   29  C1  UNL     1      28.548   2.499  53.514  1.00  0.00     0.036 C 
ENDBRANCH  25  27
ENDBRANCH  24  25
ENDBRANCH   1  24
TORSDOF 3
ENDMDL
MODEL 6
REMARK VINA RESULT:      -8.0      7.765     11.164
REMARK  3 active torsions:
REMARK  status: ('A' for Active; 'I' for Inactive)
REMARK    1  A    between atoms: C3_3  and  C4_4 
REMARK    2  A    between atoms: C4_4  and  C5_6 
REMARK    3  A    between atoms: C5_6  and  C6_7 
ROOT
HETATM    1  C6  UNL     1      29.402   8.608  47.910  1.00  0.00     0.046 C 
HETATM    2  N1  UNL     1      28.840   9.723  47.632  1.00  0.00    -0.246 NA
HETATM    3  C7  UNL     1      29.438  10.705  46.828  1.00  0.00     0.228 C 
HETATM    4  N2  UNL     1      30.584  10.485  46.376  1.00  0.00    -0.267 NA
HETATM    5  C8  UNL     1      31.425   9.336  46.569  1.00  0.00     0.082 C 
HETATM    6  C9  UNL     1      31.653   8.791  45.198  1.00  0.00     0.046 C 
HETATM    7  C10 UNL     1      32.618   9.817  47.335  1.00  0.00     0.069 C 
HETATM    8  C11 UNL     1      33.931   9.357  46.686  1.00  0.00     0.126 C 
HETATM    9  C12 UNL     1      34.229  10.014  45.380  1.00  0.00     0.040 C 
HETATM   10  O1  UNL     1      35.037   9.407  47.537  1.00  0.00    -0.318 OA
HETATM   11  C13 UNL     1      35.584   8.307  48.140  1.00  0.00     0.493 A 
HETATM   12  O2  UNL     1      34.916   7.334  47.877  1.00  0.00    -0.114 OA
HETATM   13  N3  UNL     1      36.112   7.062  48.758  1.00  0.00     0.140 N 
HETATM   14  C14 UNL     1      35.538   5.728  48.736  1.00  0.00     0.257 C 
HETATM   15  C15 UNL     1      34.442   5.206  48.259  1.00  0.00     0.018 C 
HETATM   16  C16 UNL     1      33.206   5.483  47.551  1.00  0.00     0.073 C 
HETATM   17  C17 UNL     1      32.000   5.867  47.309  1.00  0.00    -0.047 C 
HETATM   18  C18 UNL     1      31.706   4.548  46.673  1.00  0.00     0.015 C 
HETATM   19  C19 UNL     1      32.746   3.671  46.662  1.00  0.00     0.051 C 
HETATM   20  S1  UNL     1      33.895   3.498  48.085  1.00  0.00    -0.104 SA
HETATM   21  C20 UNL     1      31.083   6.979  47.479  1.00  0.00     0.019 C 
HETATM   22  C21 UNL     1      30.716   8.226  47.328  1.00  0.00    -0.003 C 
HETATM   23  H19 UNL     1      37.006   7.202  49.261  1.00  0.00     0.331 HD
ENDROOT
BRANCH   1  24
HETATM   24  C5  UNL     1      28.532   7.794  48.799  1.00  0.00     0.084 C 
BRANCH  24  25
HETATM   25  C4  UNL     1      27.697   6.847  47.969  1.00  0.00     0.110 C 
HETATM   26 CL1  UNL     1      26.108   7.448  47.543  1.00  0.00    -0.120 Cl
BRANCH  25  27
HETATM   27  C3  UNL     1      27.686   5.457  48.517  1.00  0.00    -0.011 C 
HETATM   28  C2  UNL     1      26.753   4.646  49.009  1.00  0.00    -0.033 C 
HETATM   29  C1  UNL     1      26.566   3.298  49.574  1.00  0.00     0.036 C 
ENDBRANCH  25  27
ENDBRANCH  24  25
ENDBRANCH   1  24
TORSDOF 3
ENDMDL
MODEL 7
REMARK VINA RESULT:      -7.6      4.510      7.058
REMARK  3 active torsions:
REMARK  status: ('A' for Active; 'I' for Inactive)
REMARK    1  A    between atoms: C3_3  and  C4_4 
REMARK    2  A    between atoms: C4_4  and  C5_6 
REMARK    3  A    between atoms: C5_6  and  C6_7 
ROOT
HETATM    1  C6  UNL     1      24.878   6.487  49.112  1.00  0.00     0.046 C 
HETATM    2  N1  UNL     1      23.640   6.659  48.842  1.00  0.00    -0.246 NA
HETATM    3  C7  UNL     1      23.178   7.631  47.942  1.00  0.00     0.228 C 
HETATM    4  N2  UNL     1      24.018   8.376  47.391  1.00  0.00    -0.267 NA
HETATM    5  C8  UNL     1      25.446   8.400  47.551  1.00  0.00     0.082 C 
HETATM    6  C9  UNL     1      25.990   8.122  46.189  1.00  0.00     0.046 C 
HETATM    7  C10 UNL     1      25.774   9.721  48.176  1.00  0.00     0.069 C 
HETATM    8  C11 UNL     1      26.902  10.441  47.423  1.00  0.00     0.126 C 
HETATM    9  C12 UNL     1      26.516  10.929  46.067  1.00  0.00     0.040 C 
HETATM   10  O1  UNL     1      27.528  11.447  48.160  1.00  0.00    -0.318 OA
HETATM   11  C13 UNL     1      28.753  11.306  48.755  1.00  0.00     0.493 A 
HETATM   12  O2  UNL     1      29.143  10.172  48.600  1.00  0.00    -0.114 OA
HETATM   13  N3  UNL     1      30.085  11.066  49.372  1.00  0.00     0.140 N 
HETATM   14  C14 UNL     1      30.828   9.822  49.463  1.00  0.00     0.257 C 
HETATM   15  C15 UNL     1      30.596   8.585  49.118  1.00  0.00     0.018 C 
HETATM   16  C16 UNL     1      29.632   7.679  48.522  1.00  0.00     0.073 C 
HETATM   17  C17 UNL     1      28.608   6.909  48.382  1.00  0.00    -0.047 C 
HETATM   18  C18 UNL     1      29.490   5.835  47.834  1.00  0.00     0.015 C 
HETATM   19  C19 UNL     1      30.810   6.156  47.761  1.00  0.00     0.051 C 
HETATM   20  S1  UNL     1      31.655   7.128  49.072  1.00  0.00    -0.104 SA
HETATM   21  C20 UNL     1      27.174   6.841  48.591  1.00  0.00     0.019 C 
HETATM   22  C21 UNL     1      25.946   7.260  48.423  1.00  0.00    -0.003 C 
HETATM   23  H19 UNL     1      30.506  11.919  49.778  1.00  0.00     0.331 HD
ENDROOT
BRANCH   1  24
HETATM   24  C5  UNL     1      25.047   5.404  50.116  1.00  0.00     0.084 C 
BRANCH  24  25
HETATM   25  C4  UNL     1      25.266   4.084  49.412  1.00  0.00     0.110 C 
HETATM   26 CL1  UNL     1      23.799   3.233  48.974  1.00  0.00    -0.120 Cl
BRANCH  25  27
HETATM   27  C3  UNL     1      26.276   3.225  50.100  1.00  0.00    -0.011 C 
HETATM   28  C2  UNL     1      26.288   2.491  51.209  1.00  0.00    -0.033 C 
HETATM   29  C1  UNL     1      27.159   1.613  52.011  1.00  0.00     0.036 C 
ENDBRANCH  25  27
ENDBRANCH  24  25
ENDBRANCH   1  24
TORSDOF 3
ENDMDL
MODEL 8
REMARK VINA RESULT:      -7.6      2.996      3.729
REMARK  3 active torsions:
REMARK  status: ('A' for Active; 'I' for Inactive)
REMARK    1  A    between atoms: C3_3  and  C4_4 
REMARK    2  A    between atoms: C4_4  and  C5_6 
REMARK    3  A    between atoms: C5_6  and  C6_7 
ROOT
HETATM    1  C6  UNL     1      22.078   2.472  50.954  1.00  0.00     0.046 C 
HETATM    2  N1  UNL     1      21.107   1.641  50.934  1.00  0.00    -0.246 NA
HETATM    3  C7  UNL     1      20.433   1.273  49.759  1.00  0.00     0.228 C 
HETATM    4  N2  UNL     1      20.791   1.799  48.682  1.00  0.00    -0.267 NA
HETATM    5  C8  UNL     1      21.822   2.772  48.451  1.00  0.00     0.082 C 
HETATM    6  C9  UNL     1      22.775   2.108  47.514  1.00  0.00     0.046 C 
HETATM    7  C10 UNL     1      21.129   4.011  47.976  1.00  0.00     0.069 C 
HETATM    8  C11 UNL     1      21.776   4.571  46.702  1.00  0.00     0.126 C 
HETATM    9  C12 UNL     1      21.570   3.726  45.490  1.00  0.00     0.040 C 
HETATM   10  O1  UNL     1      21.463   5.907  46.442  1.00  0.00    -0.318 OA
HETATM   11  C13 UNL     1      22.317   6.950  46.681  1.00  0.00     0.493 A 
HETATM   12  O2  UNL     1      23.320   6.531  47.210  1.00  0.00    -0.114 OA
HETATM   13  N3  UNL     1      23.304   8.022  46.976  1.00  0.00     0.140 N 
HETATM   14  C14 UNL     1      24.573   7.916  47.673  1.00  0.00     0.257 C 
HETATM   15  C15 UNL     1      25.214   6.953  48.274  1.00  0.00     0.018 C 
HETATM   16  C16 UNL     1      25.172   5.552  48.650  1.00  0.00     0.073 C 
HETATM   17  C17 UNL     1      24.879   4.468  49.283  1.00  0.00    -0.047 C 
HETATM   18  C18 UNL     1      26.331   4.128  49.374  1.00  0.00     0.015 C 
HETATM   19  C19 UNL     1      27.171   5.035  48.806  1.00  0.00     0.051 C 
HETATM   20  S1  UNL     1      26.887   6.846  48.936  1.00  0.00    -0.104 SA
HETATM   21  C20 UNL     1      23.767   3.702  49.813  1.00  0.00     0.019 C 
HETATM   22  C21 UNL     1      22.631   3.062  49.705  1.00  0.00    -0.003 C 
HETATM   23  H19 UNL     1      23.016   8.951  46.622  1.00  0.00     0.331 HD
ENDROOT
BRANCH   1  24
HETATM   24  C5  UNL     1      22.563   2.673  52.344  1.00  0.00     0.084 C 
BRANCH  24  25
HETATM   25  C4  UNL     1      23.400   1.488  52.769  1.00  0.00     0.110 C 
HETATM   26 CL1  UNL     1      24.821   1.201  51.787  1.00  0.00    -0.120 Cl
BRANCH  25  27
HETATM   27  C3  UNL     1      22.581   0.263  53.014  1.00  0.00    -0.011 C 
HETATM   28  C2  UNL     1      22.239  -0.441  54.091  1.00  0.00    -0.033 C 
HETATM   29  C1  UNL     1      21.470  -1.627  54.506  1.00  0.00     0.036 C 
ENDBRANCH  25  27
ENDBRANCH  24  25
ENDBRANCH   1  24
TORSDOF 3
ENDMDL
MODEL 9
REMARK VINA RESULT:      -7.3      2.991      5.918
REMARK  3 active torsions:
REMARK  status: ('A' for Active; 'I' for Inactive)
REMARK    1  A    between atoms: C3_3  and  C4_4 
REMARK    2  A    between atoms: C4_4  and  C5_6 
REMARK    3  A    between atoms: C5_6  and  C6_7 
ROOT
HETATM    1  C6  UNL     1      21.583   0.949  51.343  1.00  0.00     0.046 C 
HETATM    2  N1  UNL     1      21.628  -0.181  51.939  1.00  0.00    -0.246 NA
HETATM    3  C7  UNL     1      22.692  -0.571  52.767  1.00  0.00     0.228 C 
HETATM    4  N2  UNL     1      23.649   0.220  52.915  1.00  0.00    -0.267 NA
HETATM    5  C8  UNL     1      23.844   1.520  52.334  1.00  0.00     0.082 C 
HETATM    6  C9  UNL     1      23.940   2.450  53.497  1.00  0.00     0.046 C 
HETATM    7  C10 UNL     1      25.036   1.402  51.436  1.00  0.00     0.069 C 
HETATM    8  C11 UNL     1      26.052   2.523  51.692  1.00  0.00     0.126 C 
HETATM    9  C12 UNL     1      26.755   2.422  53.004  1.00  0.00     0.040 C 
HETATM   10  O1  UNL     1      26.960   2.719  50.649  1.00  0.00    -0.318 OA
HETATM   11  C13 UNL     1      26.874   3.745  49.747  1.00  0.00     0.493 A 
HETATM   12  O2  UNL     1      25.867   4.379  49.959  1.00  0.00    -0.114 OA
HETATM   13  N3  UNL     1      26.703   4.885  48.808  1.00  0.00     0.140 N 
HETATM   14  C14 UNL     1      25.588   5.809  48.701  1.00  0.00     0.257 C 
HETATM   15  C15 UNL     1      24.432   5.927  49.293  1.00  0.00     0.018 C 
HETATM   16  C16 UNL     1      23.543   5.355  50.288  1.00  0.00     0.073 C 
HETATM   17  C17 UNL     1      22.681   4.578  50.849  1.00  0.00    -0.047 C 
HETATM   18  C18 UNL     1      21.885   5.769  51.273  1.00  0.00     0.015 C 
HETATM   19  C19 UNL     1      22.401   6.970  50.897  1.00  0.00     0.051 C 
HETATM   20  S1  UNL     1      23.185   7.227  49.255  1.00  0.00    -0.104 SA
HETATM   21  C20 UNL     1      22.364   3.183  51.091  1.00  0.00     0.019 C 
HETATM   22  C21 UNL     1      22.629   1.986  51.548  1.00  0.00    -0.003 C 
HETATM   23  H19 UNL     1      27.503   5.006  48.162  1.00  0.00     0.331 HD
ENDROOT
BRANCH   1  24
HETATM   24  C5  UNL     1      20.348   1.056  50.522  1.00  0.00     0.084 C 
BRANCH  24  25
HETATM   25  C4  UNL     1      19.134   1.037  51.422  1.00  0.00     0.110 C 
HETATM   26 CL1  UNL     1      17.941  -0.182  51.022  1.00  0.00    -0.120 Cl
BRANCH  25  27
HETATM   27  C3  UNL     1      18.554   2.397  51.635  1.00  0.00    -0.011 C 
HETATM   28  C2  UNL     1      17.341   2.933  51.514  1.00  0.00    -0.033 C 
HETATM   29  C1  UNL     1      16.612   4.203  51.675  1.00  0.00     0.036 C 
ENDBRANCH  25  27
ENDBRANCH  24  25
ENDBRANCH   1  24
TORSDOF 3
ENDMDL
