MODEL 1
REMARK VINA RESULT:      -8.9      0.000      0.000
REMARK  3 active torsions:
REMARK  status: ('A' for Active; 'I' for Inactive)
REMARK    1  A    between atoms: N4_20  and  C16_21 
REMARK    2  A    between atoms: C16_21  and  C17_22 
REMARK    3  A    between atoms: C17_22  and  N5_23 
ROOT
HETATM    1  C1  UNL     1      23.183   6.401  48.738  1.00  0.00     0.042 C 
HETATM    2  C2  UNL     1      23.779   6.905  49.854  1.00  0.00     0.072 C 
HETATM    3  N1  UNL     1      23.129   6.645  51.147  1.00  0.00    -0.250 NA
HETATM    4  C3  UNL     1      23.860   5.387  51.169  1.00  0.00     0.181 C 
HETATM    5  N2  UNL     1      24.554   4.643  50.419  1.00  0.00    -0.249 NA
HETATM    6  C4  UNL     1      25.191   3.436  50.619  1.00  0.00     0.065 C 
HETATM    7  C5  UNL     1      24.706   2.461  51.562  1.00  0.00    -0.000 A 
HETATM    8  C6  UNL     1      23.383   2.608  51.876  1.00  0.00     0.014 A 
HETATM    9  C7  UNL     1      22.770   1.792  52.779  1.00  0.00     0.002 A 
HETATM   10  C8  UNL     1      23.500   0.806  53.381  1.00  0.00     0.019 A 
HETATM   11  C9  UNL     1      24.824   0.658  53.068  1.00  0.00     0.017 A 
HETATM   12 BR1  UNL     1      25.804  -0.747  53.946  1.00  0.00    -0.051 Br
HETATM   13  C10 UNL     1      25.440   1.490  52.151  1.00  0.00    -0.032 A 
HETATM   14  C11 UNL     1      26.862   1.268  51.938  1.00  0.00     0.050 C 
HETATM   15  C12 UNL     1      26.189   3.663  49.843  1.00  0.00     0.011 C 
HETATM   16  C13 UNL     1      27.194   4.138  48.937  1.00  0.00     0.075 C 
HETATM   17  C14 UNL     1      27.053   5.592  48.579  1.00  0.00     0.089 C 
HETATM   18  N3  UNL     1      27.731   6.686  48.324  1.00  0.00    -0.286 NA
HETATM   19  C15 UNL     1      26.932   7.895  48.027  1.00  0.00     0.275 C 
HETATM   20  N4  UNL     1      26.208   8.176  49.303  1.00  0.00    -0.328 N 
HETATM   21  C22 UNL     1      24.983   7.468  49.332  1.00  0.00     0.265 C 
HETATM   22  O2  UNL     1      25.185   7.853  50.441  1.00  0.00    -0.266 OA
HETATM   23  H3  UNL     1      22.795   7.547  50.833  1.00  0.00     0.134 HD
ENDROOT
BRANCH  20  24
HETATM   24  C16 UNL     1      27.070   9.139  50.059  1.00  0.00     0.158 C 
BRANCH  24  25
HETATM   25  C17 UNL     1      27.202  10.370  49.192  1.00  0.00     0.292 C 
BRANCH  25  26
HETATM   26  N5  UNL     1      28.487  10.984  49.270  1.00  0.00     0.094 N 
HETATM   27  C18 UNL     1      28.517  12.390  48.930  1.00  0.00     0.298 C 
HETATM   28  C19 UNL     1      29.984  12.683  48.591  1.00  0.00     0.198 C 
HETATM   29  O1  UNL     1      30.857  11.894  49.338  1.00  0.00    -0.388 OA
HETATM   30  C20 UNL     1      30.793  10.541  48.976  1.00  0.00     0.198 C 
HETATM   31  C21 UNL     1      29.417  10.303  48.393  1.00  0.00     0.298 C 
ENDBRANCH  25  26
ENDBRANCH  24  25
ENDBRANCH  20  24
TORSDOF 3
ENDMDL
MODEL 2
REMARK VINA RESULT:      -8.7      5.556      7.305
REMARK  3 active torsions:
REMARK  status: ('A' for Active; 'I' for Inactive)
REMARK    1  A    between atoms: N4_20  and  C16_21 
REMARK    2  A    between atoms: C16_21  and  C17_22 
REMARK    3  A    between atoms: C17_22  and  N5_23 
ROOT
HETATM    1  C1  UNL     1      22.884   4.342  52.629  1.00  0.00     0.042 C 
HETATM    2  C2  UNL     1      23.312   4.009  51.380  1.00  0.00     0.072 C 
HETATM    3  N1  UNL     1      24.684   4.385  51.010  1.00  0.00    -0.250 NA
HETATM    4  C3  UNL     1      25.106   3.136  51.626  1.00  0.00     0.181 C 
HETATM    5  N2  UNL     1      24.665   2.208  52.361  1.00  0.00    -0.249 NA
HETATM    6  C4  UNL     1      25.232   1.056  52.866  1.00  0.00     0.065 C 
HETATM    7  C5  UNL     1      26.640   0.960  53.156  1.00  0.00    -0.000 A 
HETATM    8  C6  UNL     1      27.251   2.171  53.334  1.00  0.00     0.014 A 
HETATM    9  C7  UNL     1      28.587   2.266  53.582  1.00  0.00     0.002 A 
HETATM   10  C8  UNL     1      29.329   1.121  53.653  1.00  0.00     0.019 A 
HETATM   11  C9  UNL     1      28.719  -0.093  53.474  1.00  0.00     0.017 A 
HETATM   12 BR1  UNL     1      29.813  -1.673  53.585  1.00  0.00    -0.051 Br
HETATM   13  C10 UNL     1      27.363  -0.181  53.223  1.00  0.00    -0.032 A 
HETATM   14  C11 UNL     1      26.838  -1.519  53.001  1.00  0.00     0.050 C 
HETATM   15  C12 UNL     1      24.172   0.333  52.820  1.00  0.00     0.011 C 
HETATM   16  C13 UNL     1      22.878  -0.268  52.676  1.00  0.00     0.075 C 
HETATM   17  C14 UNL     1      21.895   0.577  51.914  1.00  0.00     0.089 C 
HETATM   18  N3  UNL     1      20.907   0.528  51.052  1.00  0.00    -0.286 NA
HETATM   19  C15 UNL     1      20.315   1.827  50.662  1.00  0.00     0.275 C 
HETATM   20  N4  UNL     1      21.421   2.531  49.946  1.00  0.00    -0.328 N 
HETATM   21  C22 UNL     1      22.212   3.256  50.868  1.00  0.00     0.265 C 
HETATM   22  O2  UNL     1      22.826   3.211  49.847  1.00  0.00    -0.266 OA
HETATM   23  H3  UNL     1      24.083   5.130  50.682  1.00  0.00     0.134 HD
ENDROOT
BRANCH  20  24
HETATM   24  C16 UNL     1      21.240   2.206  48.495  1.00  0.00     0.158 C 
BRANCH  24  25
HETATM   25  C17 UNL     1      20.041   2.996  48.024  1.00  0.00     0.292 C 
BRANCH  25  26
HETATM   26  N5  UNL     1      20.362   3.990  47.053  1.00  0.00     0.094 N 
HETATM   27  C18 UNL     1      21.556   3.730  46.279  1.00  0.00     0.298 C 
HETATM   28  C19 UNL     1      21.965   5.095  45.713  1.00  0.00     0.198 C 
HETATM   29  O1  UNL     1      20.860   5.906  45.461  1.00  0.00    -0.388 OA
HETATM   30  C20 UNL     1      20.222   6.317  46.640  1.00  0.00     0.198 C 
HETATM   31  C21 UNL     1      20.530   5.278  47.696  1.00  0.00     0.298 C 
ENDBRANCH  25  26
ENDBRANCH  24  25
ENDBRANCH  20  24
TORSDOF 3
ENDMDL
MODEL 3
REMARK VINA RESULT:      -8.4      3.820      8.709
REMARK  3 active torsions:
REMARK  status: ('A' for Active; 'I' for Inactive)
REMARK    1  A    between atoms: N4_20  and  C16_21 
REMARK    2  A    between atoms: C16_21  and  C17_22 
REMARK    3  A    between atoms: C17_22  and  N5_23 
ROOT
HETATM    1  C1  UNL     1      24.454   3.295  48.701  1.00  0.00     0.042 C 
HETATM    2  C2  UNL     1      25.435   3.092  49.623  1.00  0.00     0.072 C 
HETATM    3  N1  UNL     1      26.823   3.048  49.138  1.00  0.00    -0.250 NA
HETATM    4  C3  UNL     1      26.827   4.498  49.263  1.00  0.00     0.181 C 
HETATM    5  N2  UNL     1      26.039   5.468  49.451  1.00  0.00    -0.249 NA
HETATM    6  C4  UNL     1      26.228   6.831  49.542  1.00  0.00     0.065 C 
HETATM    7  C5  UNL     1      27.295   7.504  48.848  1.00  0.00    -0.000 A 
HETATM    8  C6  UNL     1      27.784   6.806  47.778  1.00  0.00     0.014 A 
HETATM    9  C7  UNL     1      28.820   7.281  47.030  1.00  0.00     0.002 A 
HETATM   10  C8  UNL     1      29.378   8.483  47.362  1.00  0.00     0.019 A 
HETATM   11  C9  UNL     1      28.890   9.183  48.432  1.00  0.00     0.017 A 
HETATM   12 BR1  UNL     1      29.714  10.871  48.854  1.00  0.00    -0.051 Br
HETATM   13  C10 UNL     1      27.840   8.695  49.187  1.00  0.00    -0.032 A 
HETATM   14  C11 UNL     1      27.441   9.503  50.329  1.00  0.00     0.050 C 
HETATM   15  C12 UNL     1      25.304   7.054  50.406  1.00  0.00     0.011 C 
HETATM   16  C13 UNL     1      24.233   7.054  51.360  1.00  0.00     0.075 C 
HETATM   17  C14 UNL     1      23.800   5.680  51.790  1.00  0.00     0.089 C 
HETATM   18  N3  UNL     1      23.376   4.980  52.817  1.00  0.00    -0.286 NA
HETATM   19  C15 UNL     1      23.113   3.546  52.565  1.00  0.00     0.275 C 
HETATM   20  N4  UNL     1      24.458   2.981  52.240  1.00  0.00    -0.328 N 
HETATM   21  C22 UNL     1      24.710   3.098  50.852  1.00  0.00     0.265 C 
HETATM   22  O2  UNL     1      25.750   2.834  51.370  1.00  0.00    -0.266 OA
HETATM   23  H3  UNL     1      26.498   2.090  49.169  1.00  0.00     0.134 HD
ENDROOT
BRANCH  20  24
HETATM   24  C16 UNL     1      25.014   2.478  53.535  1.00  0.00     0.158 C 
BRANCH  24  25
HETATM   25  C17 UNL     1      24.691   1.003  53.598  1.00  0.00     0.292 C 
BRANCH  25  26
HETATM   26  N5  UNL     1      25.844   0.174  53.734  1.00  0.00     0.094 N 
HETATM   27  C18 UNL     1      27.005   0.825  54.302  1.00  0.00     0.298 C 
HETATM   28  C19 UNL     1      28.193  -0.051  53.885  1.00  0.00     0.198 C 
HETATM   29  O1  UNL     1      27.840  -1.396  53.794  1.00  0.00    -0.388 OA
HETATM   30  C20 UNL     1      26.969  -1.647  52.723  1.00  0.00     0.198 C 
HETATM   31  C21 UNL     1      26.229  -0.357  52.443  1.00  0.00     0.298 C 
ENDBRANCH  25  26
ENDBRANCH  24  25
ENDBRANCH  20  24
TORSDOF 3
ENDMDL
MODEL 4
REMARK VINA RESULT:      -8.2      2.222      3.257
REMARK  3 active torsions:
REMARK  status: ('A' for Active; 'I' for Inactive)
REMARK    1  A    between atoms: N4_20  and  C16_21 
REMARK    2  A    between atoms: C16_21  and  C17_22 
REMARK    3  A    between atoms: C17_22  and  N5_23 
ROOT
HETATM    1  C1  UNL     1      26.165   8.286  46.167  1.00  0.00     0.042 C 
HETATM    2  C2  UNL     1      26.267   8.788  47.429  1.00  0.00     0.072 C 
HETATM    3  N1  UNL     1      25.048   8.808  48.251  1.00  0.00    -0.250 NA
HETATM    4  C3  UNL     1      25.377   7.442  48.630  1.00  0.00     0.181 C 
HETATM    5  N2  UNL     1      26.153   6.497  48.311  1.00  0.00    -0.249 NA
HETATM    6  C4  UNL     1      26.331   5.219  48.800  1.00  0.00     0.065 C 
HETATM    7  C5  UNL     1      25.254   4.472  49.398  1.00  0.00    -0.000 A 
HETATM    8  C6  UNL     1      24.010   4.909  49.035  1.00  0.00     0.014 A 
HETATM    9  C7  UNL     1      22.880   4.337  49.536  1.00  0.00     0.002 A 
HETATM   10  C8  UNL     1      22.998   3.303  50.421  1.00  0.00     0.019 A 
HETATM   11  C9  UNL     1      24.243   2.863  50.785  1.00  0.00     0.017 A 
HETATM   12 BR1  UNL     1      24.351   1.403  52.035  1.00  0.00    -0.051 Br
HETATM   13  C10 UNL     1      25.386   3.449  50.274  1.00  0.00    -0.032 A 
HETATM   14  C11 UNL     1      26.650   2.931  50.773  1.00  0.00     0.050 C 
HETATM   15  C12 UNL     1      27.598   5.157  48.600  1.00  0.00     0.011 C 
HETATM   16  C13 UNL     1      28.987   5.320  48.286  1.00  0.00     0.075 C 
HETATM   17  C14 UNL     1      29.363   6.723  47.897  1.00  0.00     0.089 C 
HETATM   18  N3  UNL     1      30.310   7.627  47.993  1.00  0.00    -0.286 NA
HETATM   19  C15 UNL     1      30.039   8.928  47.341  1.00  0.00     0.275 C 
HETATM   20  N4  UNL     1      28.886   9.488  48.110  1.00  0.00    -0.328 N 
HETATM   21  C22 UNL     1      27.666   9.041  47.549  1.00  0.00     0.265 C 
HETATM   22  O2  UNL     1      27.407   9.503  48.616  1.00  0.00    -0.266 OA
HETATM   23  H3  UNL     1      25.113   9.716  47.810  1.00  0.00     0.134 HD
ENDROOT
BRANCH  20  24
HETATM   24  C16 UNL     1      29.487  10.343  49.182  1.00  0.00     0.158 C 
BRANCH  24  25
HETATM   25  C17 UNL     1      30.389  11.336  48.485  1.00  0.00     0.292 C 
BRANCH  25  26
HETATM   26  N5  UNL     1      29.745  12.572  48.181  1.00  0.00     0.094 N 
HETATM   27  C18 UNL     1      28.559  12.854  48.959  1.00  0.00     0.298 C 
HETATM   28  C19 UNL     1      27.793  13.905  48.145  1.00  0.00     0.198 C 
HETATM   29  O1  UNL     1      28.654  14.741  47.436  1.00  0.00    -0.388 OA
HETATM   30  C20 UNL     1      29.316  14.069  46.398  1.00  0.00     0.198 C 
HETATM   31  C21 UNL     1      29.370  12.606  46.782  1.00  0.00     0.298 C 
ENDBRANCH  25  26
ENDBRANCH  24  25
ENDBRANCH  20  24
TORSDOF 3
ENDMDL
MODEL 5
REMARK VINA RESULT:      -8.1      3.858      5.075
REMARK  3 active torsions:
REMARK  status: ('A' for Active; 'I' for Inactive)
REMARK    1  A    between atoms: N4_20  and  C16_21 
REMARK    2  A    between atoms: C16_21  and  C17_22 
REMARK    3  A    between atoms: C17_22  and  N5_23 
ROOT
HETATM    1  C1  UNL     1      22.218   3.325  48.943  1.00  0.00     0.042 C 
HETATM    2  C2  UNL     1      22.236   4.173  50.008  1.00  0.00     0.072 C 
HETATM    3  N1  UNL     1      21.813   3.634  51.310  1.00  0.00    -0.250 NA
HETATM    4  C3  UNL     1      23.188   3.188  51.480  1.00  0.00     0.181 C 
HETATM    5  N2  UNL     1      24.260   3.046  50.827  1.00  0.00    -0.249 NA
HETATM    6  C4  UNL     1      25.516   2.588  51.166  1.00  0.00     0.065 C 
HETATM    7  C5  UNL     1      25.719   1.605  52.199  1.00  0.00    -0.000 A 
HETATM    8  C6  UNL     1      24.609   0.854  52.472  1.00  0.00     0.014 A 
HETATM    9  C7  UNL     1      24.615  -0.099  53.446  1.00  0.00     0.002 A 
HETATM   10  C8  UNL     1      25.759  -0.304  54.163  1.00  0.00     0.019 A 
HETATM   11  C9  UNL     1      26.872   0.447  53.891  1.00  0.00     0.017 A 
HETATM   12 BR1  UNL     1      28.457   0.115  54.932  1.00  0.00    -0.051 Br
HETATM   13  C10 UNL     1      26.858   1.412  52.902  1.00  0.00    -0.032 A 
HETATM   14  C11 UNL     1      28.083   2.179  52.739  1.00  0.00     0.050 C 
HETATM   15  C12 UNL     1      26.177   3.368  50.388  1.00  0.00     0.011 C 
HETATM   16  C13 UNL     1      26.688   4.329  49.455  1.00  0.00     0.075 C 
HETATM   17  C14 UNL     1      25.653   5.291  48.941  1.00  0.00     0.089 C 
HETATM   18  N3  UNL     1      25.457   6.538  48.582  1.00  0.00    -0.286 NA
HETATM   19  C15 UNL     1      24.087   6.884  48.143  1.00  0.00     0.275 C 
HETATM   20  N4  UNL     1      23.253   6.697  49.369  1.00  0.00    -0.328 N 
HETATM   21  C22 UNL     1      22.805   5.356  49.451  1.00  0.00     0.265 C 
HETATM   22  O2  UNL     1      22.607   5.853  50.517  1.00  0.00    -0.266 OA
HETATM   23  H3  UNL     1      20.994   4.060  50.896  1.00  0.00     0.134 HD
ENDROOT
BRANCH  20  24
HETATM   24  C16 UNL     1      23.196   8.038  50.032  1.00  0.00     0.158 C 
BRANCH  24  25
HETATM   25  C17 UNL     1      22.662   9.005  49.001  1.00  0.00     0.292 C 
BRANCH  25  26
HETATM   26  N5  UNL     1      21.311   9.396  49.237  1.00  0.00     0.094 N 
HETATM   27  C18 UNL     1      20.315   8.407  48.888  1.00  0.00     0.298 C 
HETATM   28  C19 UNL     1      19.009   9.196  48.738  1.00  0.00     0.198 C 
HETATM   29  O1  UNL     1      18.961  10.291  49.599  1.00  0.00    -0.388 OA
HETATM   30  C20 UNL     1      19.885  11.286  49.247  1.00  0.00     0.198 C 
HETATM   31  C21 UNL     1      21.006  10.603  48.495  1.00  0.00     0.298 C 
ENDBRANCH  25  26
ENDBRANCH  24  25
ENDBRANCH  20  24
TORSDOF 3
ENDMDL
MODEL 6
REMARK VINA RESULT:      -7.7      6.527     10.930
REMARK  3 active torsions:
REMARK  status: ('A' for Active; 'I' for Inactive)
REMARK    1  A    between atoms: N4_20  and  C16_21 
REMARK    2  A    between atoms: C16_21  and  C17_22 
REMARK    3  A    between atoms: C17_22  and  N5_23 
ROOT
HETATM    1  C1  UNL     1      19.444   0.254  51.251  1.00  0.00     0.042 C 
HETATM    2  C2  UNL     1      19.352   1.409  51.967  1.00  0.00     0.072 C 
HETATM    3  N1  UNL     1      20.414   1.686  52.945  1.00  0.00    -0.250 NA
HETATM    4  C3  UNL     1      21.161   2.278  51.844  1.00  0.00     0.181 C 
HETATM    5  N2  UNL     1      21.143   2.367  50.584  1.00  0.00    -0.249 NA
HETATM    6  C4  UNL     1      21.968   2.993  49.673  1.00  0.00     0.065 C 
HETATM    7  C5  UNL     1      23.374   3.187  49.919  1.00  0.00    -0.000 A 
HETATM    8  C6  UNL     1      23.893   2.333  50.853  1.00  0.00     0.014 A 
HETATM    9  C7  UNL     1      25.200   2.401  51.233  1.00  0.00     0.002 A 
HETATM   10  C8  UNL     1      26.005   3.347  50.663  1.00  0.00     0.019 A 
HETATM   11  C9  UNL     1      25.487   4.202  49.728  1.00  0.00     0.017 A 
HETATM   12 BR1  UNL     1      26.666   5.515  48.958  1.00  0.00    -0.051 Br
HETATM   13  C10 UNL     1      24.160   4.128  49.348  1.00  0.00    -0.032 A 
HETATM   14  C11 UNL     1      23.712   5.121  48.384  1.00  0.00     0.050 C 
HETATM   15  C12 UNL     1      21.050   3.307  48.831  1.00  0.00     0.011 C 
HETATM   16  C13 UNL     1      19.869   3.547  48.053  1.00  0.00     0.075 C 
HETATM   17  C14 UNL     1      18.590   3.216  48.770  1.00  0.00     0.089 C 
HETATM   18  N3  UNL     1      17.345   3.596  48.935  1.00  0.00    -0.286 NA
HETATM   19  C15 UNL     1      16.531   2.782  49.866  1.00  0.00     0.275 C 
HETATM   20  N4  UNL     1      17.181   2.992  51.195  1.00  0.00    -0.328 N 
HETATM   21  C22 UNL     1      18.212   2.041  51.387  1.00  0.00     0.265 C 
HETATM   22  O2  UNL     1      18.357   2.880  52.221  1.00  0.00    -0.266 OA
HETATM   23  H3  UNL     1      19.668   1.230  53.453  1.00  0.00     0.134 HD
ENDROOT
BRANCH  20  24
HETATM   24  C16 UNL     1      16.453   4.136  51.830  1.00  0.00     0.158 C 
BRANCH  24  25
HETATM   25  C17 UNL     1      14.997   3.981  51.455  1.00  0.00     0.292 C 
BRANCH  25  26
HETATM   26  N5  UNL     1      14.149   3.719  52.571  1.00  0.00     0.094 N 
HETATM   27  C18 UNL     1      13.959   2.319  52.883  1.00  0.00     0.298 C 
HETATM   28  C19 UNL     1      12.678   2.272  53.725  1.00  0.00     0.198 C 
HETATM   29  O1  UNL     1      12.522   3.420  54.499  1.00  0.00    -0.388 OA
HETATM   30  C20 UNL     1      12.256   4.556  53.720  1.00  0.00     0.198 C 
HETATM   31  C21 UNL     1      12.840   4.298  52.348  1.00  0.00     0.298 C 
ENDBRANCH  25  26
ENDBRANCH  24  25
ENDBRANCH  20  24
TORSDOF 3
ENDMDL
MODEL 7
REMARK VINA RESULT:      -7.7      4.595      8.506
REMARK  3 active torsions:
REMARK  status: ('A' for Active; 'I' for Inactive)
REMARK    1  A    between atoms: N4_20  and  C16_21 
REMARK    2  A    between atoms: C16_21  and  C17_22 
REMARK    3  A    between atoms: C17_22  and  N5_23 
ROOT
HETATM    1  C1  UNL     1      25.455   7.066  49.629  1.00  0.00     0.042 C 
HETATM    2  C2  UNL     1      24.654   6.690  50.664  1.00  0.00     0.072 C 
HETATM    3  N1  UNL     1      24.031   7.757  51.462  1.00  0.00    -0.250 NA
HETATM    4  C3  UNL     1      22.964   7.762  50.472  1.00  0.00     0.181 C 
HETATM    5  N2  UNL     1      22.689   7.309  49.325  1.00  0.00    -0.249 NA
HETATM    6  C4  UNL     1      21.585   7.422  48.507  1.00  0.00     0.065 C 
HETATM    7  C5  UNL     1      20.732   8.583  48.530  1.00  0.00    -0.000 A 
HETATM    8  C6  UNL     1      21.331   9.698  49.046  1.00  0.00     0.014 A 
HETATM    9  C7  UNL     1      20.657  10.876  49.174  1.00  0.00     0.002 A 
HETATM   10  C8  UNL     1      19.351  10.936  48.776  1.00  0.00     0.019 A 
HETATM   11  C9  UNL     1      18.749   9.820  48.260  1.00  0.00     0.017 A 
HETATM   12 BR1  UNL     1      16.908   9.962  47.715  1.00  0.00    -0.051 Br
HETATM   13  C10 UNL     1      19.439   8.629  48.133  1.00  0.00    -0.032 A 
HETATM   14  C11 UNL     1      18.680   7.500  47.618  1.00  0.00     0.050 C 
HETATM   15  C12 UNL     1      21.659   6.250  47.989  1.00  0.00     0.011 C 
HETATM   16  C13 UNL     1      21.944   4.912  47.558  1.00  0.00     0.075 C 
HETATM   17  C14 UNL     1      23.006   4.223  48.370  1.00  0.00     0.089 C 
HETATM   18  N3  UNL     1      23.363   3.066  48.875  1.00  0.00    -0.286 NA
HETATM   19  C15 UNL     1      24.623   3.053  49.651  1.00  0.00     0.275 C 
HETATM   20  N4  UNL     1      24.330   3.918  50.834  1.00  0.00    -0.328 N 
HETATM   21  C22 UNL     1      24.622   5.270  50.530  1.00  0.00     0.265 C 
HETATM   22  O2  UNL     1      23.983   5.272  51.536  1.00  0.00    -0.266 OA
HETATM   23  H3  UNL     1      24.887   7.504  51.939  1.00  0.00     0.134 HD
ENDROOT
BRANCH  20  24
HETATM   24  C16 UNL     1      23.856   2.993  51.911  1.00  0.00     0.158 C 
BRANCH  24  25
HETATM   25  C17 UNL     1      24.715   1.752  51.821  1.00  0.00     0.292 C 
BRANCH  25  26
HETATM   26  N5  UNL     1      25.727   1.689  52.824  1.00  0.00     0.094 N 
HETATM   27  C18 UNL     1      27.027   2.174  52.416  1.00  0.00     0.298 C 
HETATM   28  C19 UNL     1      28.012   1.556  53.416  1.00  0.00     0.198 C 
HETATM   29  O1  UNL     1      27.440   1.395  54.677  1.00  0.00    -0.388 OA
HETATM   30  C20 UNL     1      26.439   0.412  54.685  1.00  0.00     0.198 C 
HETATM   31  C21 UNL     1      25.893   0.323  53.277  1.00  0.00     0.298 C 
ENDBRANCH  25  26
ENDBRANCH  24  25
ENDBRANCH  20  24
TORSDOF 3
ENDMDL
MODEL 8
REMARK VINA RESULT:      -7.5      4.255      5.560
REMARK  3 active torsions:
REMARK  status: ('A' for Active; 'I' for Inactive)
REMARK    1  A    between atoms: N4_20  and  C16_21 
REMARK    2  A    between atoms: C16_21  and  C17_22 
REMARK    3  A    between atoms: C17_22  and  N5_23 
ROOT
HETATM    1  C1  UNL     1      25.102   5.957  50.471  1.00  0.00     0.042 C 
HETATM    2  C2  UNL     1      24.766   5.092  49.474  1.00  0.00     0.072 C 
HETATM    3  N1  UNL     1      25.499   3.819  49.406  1.00  0.00    -0.250 NA
HETATM    4  C3  UNL     1      24.526   3.301  50.357  1.00  0.00     0.181 C 
HETATM    5  N2  UNL     1      23.604   3.693  51.127  1.00  0.00    -0.249 NA
HETATM    6  C4  UNL     1      22.755   3.034  51.991  1.00  0.00     0.065 C 
HETATM    7  C5  UNL     1      23.133   1.811  52.652  1.00  0.00    -0.000 A 
HETATM    8  C6  UNL     1      24.486   1.621  52.728  1.00  0.00     0.014 A 
HETATM    9  C7  UNL     1      25.017   0.499  53.291  1.00  0.00     0.002 A 
HETATM   10  C8  UNL     1      24.174  -0.453  53.790  1.00  0.00     0.019 A 
HETATM   11  C9  UNL     1      22.819  -0.264  53.714  1.00  0.00     0.017 A 
HETATM   12 BR1  UNL     1      21.678  -1.638  54.433  1.00  0.00    -0.051 Br
HETATM   13  C10 UNL     1      22.288   0.876  53.141  1.00  0.00    -0.032 A 
HETATM   14  C11 UNL     1      20.836   0.941  53.073  1.00  0.00     0.050 C 
HETATM   15  C12 UNL     1      21.741   3.803  51.821  1.00  0.00     0.011 C 
HETATM   16  C13 UNL     1      20.757   4.786  51.472  1.00  0.00     0.075 C 
HETATM   17  C14 UNL     1      21.158   5.668  50.321  1.00  0.00     0.089 C 
HETATM   18  N3  UNL     1      20.701   6.291  49.261  1.00  0.00    -0.286 NA
HETATM   19  C15 UNL     1      21.697   7.047  48.469  1.00  0.00     0.275 C 
HETATM   20  N4  UNL     1      22.614   5.995  47.936  1.00  0.00    -0.328 N 
HETATM   21  C22 UNL     1      23.655   5.745  48.861  1.00  0.00     0.265 C 
HETATM   22  O2  UNL     1      23.676   4.854  48.069  1.00  0.00    -0.266 OA
HETATM   23  H3  UNL     1      25.976   4.459  48.785  1.00  0.00     0.134 HD
ENDROOT
BRANCH  20  24
HETATM   24  C16 UNL     1      22.074   5.626  46.589  1.00  0.00     0.158 C 
BRANCH  24  25
HETATM   25  C17 UNL     1      21.847   6.923  45.847  1.00  0.00     0.292 C 
BRANCH  25  26
HETATM   26  N5  UNL     1      22.855   7.207  44.879  1.00  0.00     0.094 N 
HETATM   27  C18 UNL     1      24.029   7.877  45.393  1.00  0.00     0.298 C 
HETATM   28  C19 UNL     1      24.693   8.511  44.164  1.00  0.00     0.198 C 
HETATM   29  O1  UNL     1      24.493   7.749  43.015  1.00  0.00    -0.388 OA
HETATM   30  C20 UNL     1      23.155   7.757  42.596  1.00  0.00     0.198 C 
HETATM   31  C21 UNL     1      22.309   8.032  43.820  1.00  0.00     0.298 C 
ENDBRANCH  25  26
ENDBRANCH  24  25
ENDBRANCH  20  24
TORSDOF 3
ENDMDL
MODEL 9
REMARK VINA RESULT:      -7.3      2.311      2.960
REMARK  3 active torsions:
REMARK  status: ('A' for Active; 'I' for Inactive)
REMARK    1  A    between atoms: N4_20  and  C16_21 
REMARK    2  A    between atoms: C16_21  and  C17_22 
REMARK    3  A    between atoms: C17_22  and  N5_23 
ROOT
HETATM    1  C1  UNL     1      22.479   4.183  47.458  1.00  0.00     0.042 C 
HETATM    2  C2  UNL     1      22.313   4.996  48.538  1.00  0.00     0.072 C 
HETATM    3  N1  UNL     1      21.105   4.802  49.354  1.00  0.00    -0.250 NA
HETATM    4  C3  UNL     1      21.853   3.784  50.075  1.00  0.00     0.181 C 
HETATM    5  N2  UNL     1      22.925   3.119  50.001  1.00  0.00    -0.249 NA
HETATM    6  C4  UNL     1      23.493   2.156  50.809  1.00  0.00     0.065 C 
HETATM    7  C5  UNL     1      22.697   1.262  51.610  1.00  0.00    -0.000 A 
HETATM    8  C6  UNL     1      21.408   1.130  51.174  1.00  0.00     0.014 A 
HETATM    9  C7  UNL     1      20.508   0.350  51.836  1.00  0.00     0.002 A 
HETATM   10  C8  UNL     1      20.909  -0.312  52.962  1.00  0.00     0.019 A 
HETATM   11  C9  UNL     1      22.199  -0.181  53.400  1.00  0.00     0.017 A 
HETATM   12 BR1  UNL     1      22.711  -1.137  54.991  1.00  0.00    -0.051 Br
HETATM   13  C10 UNL     1      23.107   0.612  52.724  1.00  0.00    -0.032 A 
HETATM   14  C11 UNL     1      24.433   0.714  53.313  1.00  0.00     0.050 C 
HETATM   15  C12 UNL     1      24.716   2.489  50.602  1.00  0.00     0.011 C 
HETATM   16  C13 UNL     1      25.985   3.039  50.224  1.00  0.00     0.075 C 
HETATM   17  C14 UNL     1      25.886   4.334  49.465  1.00  0.00     0.089 C 
HETATM   18  N3  UNL     1      26.458   5.503  49.294  1.00  0.00    -0.286 NA
HETATM   19  C15 UNL     1      25.806   6.412  48.325  1.00  0.00     0.275 C 
HETATM   20  N4  UNL     1      24.480   6.714  48.944  1.00  0.00    -0.328 N 
HETATM   21  C22 UNL     1      23.529   5.742  48.552  1.00  0.00     0.265 C 
HETATM   22  O2  UNL     1      23.052   6.344  49.463  1.00  0.00    -0.266 OA
HETATM   23  H3  UNL     1      20.887   5.530  48.684  1.00  0.00     0.134 HD
ENDROOT
BRANCH  20  24
HETATM   24  C16 UNL     1      24.675   7.971  49.734  1.00  0.00     0.158 C 
BRANCH  24  25
HETATM   25  C17 UNL     1      24.383   9.119  48.796  1.00  0.00     0.292 C 
BRANCH  25  26
HETATM   26  N5  UNL     1      25.532   9.582  48.090  1.00  0.00     0.094 N 
HETATM   27  C18 UNL     1      26.036  10.870  48.513  1.00  0.00     0.298 C 
HETATM   28  C19 UNL     1      26.888  11.367  47.338  1.00  0.00     0.198 C 
HETATM   29  O1  UNL     1      27.498  10.315  46.657  1.00  0.00    -0.388 OA
HETATM   30  C20 UNL     1      26.572   9.521  45.964  1.00  0.00     0.198 C 
HETATM   31  C21 UNL     1      25.244   9.669  46.673  1.00  0.00     0.298 C 
ENDBRANCH  25  26
ENDBRANCH  24  25
ENDBRANCH  20  24
TORSDOF 3
ENDMDL
