MODEL 1
REMARK VINA RESULT:      -8.7      0.000      0.000
REMARK  4 active torsions:
REMARK  status: ('A' for Active; 'I' for Inactive)
REMARK    1  A    between atoms: C2_2  and  C3_3 
REMARK    2  A    between atoms: C11_12  and  O1_13 
REMARK    3  A    between atoms: C14_18  and  N4_19 
REMARK    4  A    between atoms: N4_19  and  C15_20 
ROOT
HETATM    1  C3  UNL     1      21.413   1.384  51.871  1.00  0.00     0.011 C 
HETATM    2  C4  UNL     1      22.508   1.128  52.579  1.00  0.00    -0.008 C 
HETATM    3  C5  UNL     1      22.894  -0.180  53.106  1.00  0.00     0.161 C 
HETATM    4  N1  UNL     1      24.199  -0.611  52.738  1.00  0.00    -0.388 N 
HETATM    5  C6  UNL     1      25.443   0.084  52.731  1.00  0.00     0.023 C 
HETATM    6  C7  UNL     1      26.468  -0.697  52.424  1.00  0.00    -0.005 C 
HETATM    7  C8  UNL     1      26.837  -2.051  52.074  1.00  0.00     0.038 C 
HETATM    8  C9  UNL     1      25.807   1.487  52.996  1.00  0.00     0.100 A 
HETATM    9  C10 UNL     1      24.636   2.405  52.944  1.00  0.00     0.036 C 
HETATM   10  C11 UNL     1      23.310   2.329  52.783  1.00  0.00     0.071 C 
HETATM   11  C12 UNL     1      26.407   1.582  54.362  1.00  0.00     0.178 A 
HETATM   12  N2  UNL     1      27.711   2.095  54.503  1.00  0.00    -0.281 NA
HETATM   13  C13 UNL     1      28.485   2.494  53.595  1.00  0.00     0.228 A 
HETATM   14  N3  UNL     1      27.995   2.430  52.252  1.00  0.00    -0.227 NA
HETATM   15  C14 UNL     1      26.819   1.986  52.000  1.00  0.00     0.126 A 
HETATM   16  H7  UNL     1      24.245  -1.621  52.418  1.00  0.00     0.159 HD
ENDROOT
BRANCH  15  17
HETATM   17  N4  UNL     1      26.471   1.996  50.614  1.00  0.00    -0.343 N 
HETATM   18  H17 UNL     1      26.564   1.102  50.061  1.00  0.00     0.167 HD
BRANCH  17  19
HETATM   19  C15 UNL     1      26.017   3.192  49.974  1.00  0.00     0.035 A 
HETATM   20  C16 UNL     1      24.759   3.685  49.751  1.00  0.00     0.029 A 
HETATM   21  C17 UNL     1      24.545   4.862  49.092  1.00  0.00     0.004 A 
HETATM   22  C18 UNL     1      25.596   5.621  48.612  1.00  0.00     0.024 A 
HETATM   23  C19 UNL     1      26.856   5.150  48.822  1.00  0.00     0.036 A 
HETATM   24 CL1  UNL     1      28.198   6.128  48.203  1.00  0.00    -0.084 Cl
HETATM   25  C20 UNL     1      27.089   3.953  49.492  1.00  0.00     0.053 A 
ENDBRANCH  17  19
ENDBRANCH  15  17
BRANCH  10  26
HETATM   26  O1  UNL     1      22.607   3.548  52.814  1.00  0.00    -0.360 OA
HETATM   27  H13 UNL     1      23.033   4.353  53.250  1.00  0.00     0.217 HD
ENDBRANCH  10  26
BRANCH   1  28
HETATM   28  C2  UNL     1      20.529   0.269  51.599  1.00  0.00    -0.010 C 
HETATM   29  C1  UNL     1      19.347   0.260  52.160  1.00  0.00     0.011 C 
ENDBRANCH   1  28
TORSDOF 4
ENDMDL
MODEL 2
REMARK VINA RESULT:      -8.6      2.627      5.739
REMARK  4 active torsions:
REMARK  status: ('A' for Active; 'I' for Inactive)
REMARK    1  A    between atoms: C2_2  and  C3_3 
REMARK    2  A    between atoms: C11_12  and  O1_13 
REMARK    3  A    between atoms: C14_18  and  N4_19 
REMARK    4  A    between atoms: N4_19  and  C15_20 
ROOT
HETATM    1  C3  UNL     1      24.173   6.569  51.214  1.00  0.00     0.011 C 
HETATM    2  C4  UNL     1      23.258   5.611  51.319  1.00  0.00    -0.008 C 
HETATM    3  C5  UNL     1      22.186   5.350  50.359  1.00  0.00     0.161 C 
HETATM    4  N1  UNL     1      22.132   4.014  49.874  1.00  0.00    -0.388 N 
HETATM    5  C6  UNL     1      22.224   2.769  50.558  1.00  0.00     0.023 C 
HETATM    6  C7  UNL     1      22.016   1.727  49.767  1.00  0.00    -0.005 C 
HETATM    7  C8  UNL     1      21.716   1.340  48.405  1.00  0.00     0.038 C 
HETATM    8  C9  UNL     1      22.505   2.416  51.962  1.00  0.00     0.100 A 
HETATM    9  C10 UNL     1      23.114   3.540  52.726  1.00  0.00     0.036 C 
HETATM   10  C11 UNL     1      23.440   4.823  52.532  1.00  0.00     0.071 C 
HETATM   11  C12 UNL     1      21.221   2.046  52.634  1.00  0.00     0.178 A 
HETATM   12  N2  UNL     1      21.096   0.770  53.217  1.00  0.00    -0.281 NA
HETATM   13  C13 UNL     1      21.952  -0.152  53.244  1.00  0.00     0.228 A 
HETATM   14  N3  UNL     1      23.210   0.113  52.614  1.00  0.00    -0.227 NA
HETATM   15  C14 UNL     1      23.441   1.243  52.055  1.00  0.00     0.126 A 
HETATM   16  H7  UNL     1      21.997   3.942  48.824  1.00  0.00     0.159 HD
ENDROOT
BRANCH  15  17
HETATM   17  N4  UNL     1      24.746   1.359  51.482  1.00  0.00    -0.343 N 
HETATM   18  H17 UNL     1      24.857   1.890  50.577  1.00  0.00     0.167 HD
BRANCH  17  19
HETATM   19  C15 UNL     1      25.884   0.760  52.107  1.00  0.00     0.035 A 
HETATM   20  C16 UNL     1      26.227  -0.550  52.311  1.00  0.00     0.029 A 
HETATM   21  C17 UNL     1      27.375  -0.910  52.958  1.00  0.00     0.004 A 
HETATM   22  C18 UNL     1      28.256   0.039  53.444  1.00  0.00     0.024 A 
HETATM   23  C19 UNL     1      27.936   1.347  53.252  1.00  0.00     0.036 A 
HETATM   24 CL1  UNL     1      29.069   2.558  53.879  1.00  0.00    -0.084 Cl
HETATM   25  C20 UNL     1      26.770   1.729  52.595  1.00  0.00     0.053 A 
ENDBRANCH  17  19
ENDBRANCH  15  17
BRANCH  10  26
HETATM   26  O1  UNL     1      24.024   5.490  53.625  1.00  0.00    -0.360 OA
HETATM   27  H13 UNL     1      24.672   6.246  53.452  1.00  0.00     0.217 HD
ENDBRANCH  10  26
BRANCH   1  28
HETATM   28  C2  UNL     1      24.101   7.424  50.048  1.00  0.00    -0.010 C 
HETATM   29  C1  UNL     1      24.817   8.519  50.033  1.00  0.00     0.011 C 
ENDBRANCH   1  28
TORSDOF 4
ENDMDL
MODEL 3
REMARK VINA RESULT:      -8.3      2.871      5.827
REMARK  4 active torsions:
REMARK  status: ('A' for Active; 'I' for Inactive)
REMARK    1  A    between atoms: C2_2  and  C3_3 
REMARK    2  A    between atoms: C11_12  and  O1_13 
REMARK    3  A    between atoms: C14_18  and  N4_19 
REMARK    4  A    between atoms: N4_19  and  C15_20 
ROOT
HETATM    1  C3  UNL     1      24.274   6.641  51.215  1.00  0.00     0.011 C 
HETATM    2  C4  UNL     1      23.358   5.682  51.306  1.00  0.00    -0.008 C 
HETATM    3  C5  UNL     1      22.297   5.425  50.334  1.00  0.00     0.161 C 
HETATM    4  N1  UNL     1      22.248   4.090  49.843  1.00  0.00    -0.388 N 
HETATM    5  C6  UNL     1      22.333   2.842  50.525  1.00  0.00     0.023 C 
HETATM    6  C7  UNL     1      22.133   1.803  49.728  1.00  0.00    -0.005 C 
HETATM    7  C8  UNL     1      21.849   1.421  48.362  1.00  0.00     0.038 C 
HETATM    8  C9  UNL     1      22.598   2.486  51.931  1.00  0.00     0.100 A 
HETATM    9  C10 UNL     1      23.199   3.607  52.705  1.00  0.00     0.036 C 
HETATM   10  C11 UNL     1      23.526   4.890  52.519  1.00  0.00     0.071 C 
HETATM   11  C12 UNL     1      21.307   2.113  52.587  1.00  0.00     0.178 A 
HETATM   12  N2  UNL     1      21.176   0.835  53.164  1.00  0.00    -0.281 NA
HETATM   13  C13 UNL     1      22.032  -0.087  53.198  1.00  0.00     0.228 A 
HETATM   14  N3  UNL     1      23.296   0.180  52.583  1.00  0.00    -0.227 NA
HETATM   15  C14 UNL     1      23.534   1.312  52.030  1.00  0.00     0.126 A 
HETATM   16  H7  UNL     1      22.124   4.021  48.792  1.00  0.00     0.159 HD
ENDROOT
BRANCH  15  17
HETATM   17  N4  UNL     1      24.845   1.430  51.472  1.00  0.00    -0.343 N 
HETATM   18  H17 UNL     1      24.942   1.560  50.429  1.00  0.00     0.167 HD
BRANCH  17  19
HETATM   19  C15 UNL     1      26.009   1.362  52.299  1.00  0.00     0.035 A 
HETATM   20  C16 UNL     1      26.644   2.309  53.057  1.00  0.00     0.029 A 
HETATM   21  C17 UNL     1      27.776   2.032  53.771  1.00  0.00     0.004 A 
HETATM   22  C18 UNL     1      28.341   0.770  53.764  1.00  0.00     0.024 A 
HETATM   23  C19 UNL     1      27.726  -0.188  53.017  1.00  0.00     0.036 A 
HETATM   24 CL1  UNL     1      28.457  -1.802  53.011  1.00  0.00    -0.084 Cl
HETATM   25  C20 UNL     1      26.574   0.081  52.284  1.00  0.00     0.053 A 
ENDBRANCH  17  19
ENDBRANCH  15  17
BRANCH  10  26
HETATM   26  O1  UNL     1      24.099   5.554  53.620  1.00  0.00    -0.360 OA
HETATM   27  H13 UNL     1      25.029   5.938  53.535  1.00  0.00     0.217 HD
ENDBRANCH  10  26
BRANCH   1  28
HETATM   28  C2  UNL     1      24.214   7.500  50.050  1.00  0.00    -0.010 C 
HETATM   29  C1  UNL     1      25.337   7.927  49.533  1.00  0.00     0.011 C 
ENDBRANCH   1  28
TORSDOF 4
ENDMDL
MODEL 4
REMARK VINA RESULT:      -8.1      3.036      6.498
REMARK  4 active torsions:
REMARK  status: ('A' for Active; 'I' for Inactive)
REMARK    1  A    between atoms: C2_2  and  C3_3 
REMARK    2  A    between atoms: C11_12  and  O1_13 
REMARK    3  A    between atoms: C14_18  and  N4_19 
REMARK    4  A    between atoms: N4_19  and  C15_20 
ROOT
HETATM    1  C3  UNL     1      25.465   7.079  49.600  1.00  0.00     0.011 C 
HETATM    2  C4  UNL     1      24.329   6.399  49.712  1.00  0.00    -0.008 C 
HETATM    3  C5  UNL     1      23.432   6.054  48.610  1.00  0.00     0.161 C 
HETATM    4  N1  UNL     1      23.124   4.670  48.501  1.00  0.00    -0.388 N 
HETATM    5  C6  UNL     1      22.754   3.716  49.493  1.00  0.00     0.023 C 
HETATM    6  C7  UNL     1      22.437   2.536  48.981  1.00  0.00    -0.005 C 
HETATM    7  C8  UNL     1      22.314   1.798  47.743  1.00  0.00     0.038 C 
HETATM    8  C9  UNL     1      22.657   3.786  50.962  1.00  0.00     0.100 A 
HETATM    9  C10 UNL     1      23.380   4.956  51.531  1.00  0.00     0.036 C 
HETATM   10  C11 UNL     1      24.061   6.022  51.095  1.00  0.00     0.071 C 
HETATM   11  C12 UNL     1      21.217   3.903  51.346  1.00  0.00     0.178 A 
HETATM   12  N2  UNL     1      20.653   2.930  52.195  1.00  0.00    -0.281 NA
HETATM   13  C13 UNL     1      21.216   1.920  52.690  1.00  0.00     0.228 A 
HETATM   14  N3  UNL     1      22.596   1.723  52.365  1.00  0.00    -0.227 NA
HETATM   15  C14 UNL     1      23.218   2.548  51.606  1.00  0.00     0.126 A 
HETATM   16  H7  UNL     1      23.180   4.292  47.512  1.00  0.00     0.159 HD
ENDROOT
BRANCH  15  17
HETATM   17  N4  UNL     1      24.593   2.222  51.387  1.00  0.00    -0.343 N 
HETATM   18  H17 UNL     1      25.016   2.422  50.441  1.00  0.00     0.167 HD
BRANCH  17  19
HETATM   19  C15 UNL     1      25.385   1.624  52.416  1.00  0.00     0.035 A 
HETATM   20  C16 UNL     1      25.847   2.113  53.609  1.00  0.00     0.029 A 
HETATM   21  C17 UNL     1      26.618   1.364  54.453  1.00  0.00     0.004 A 
HETATM   22  C18 UNL     1      26.974   0.064  54.141  1.00  0.00     0.024 A 
HETATM   23  C19 UNL     1      26.525  -0.442  52.960  1.00  0.00     0.036 A 
HETATM   24 CL1  UNL     1      26.986  -2.107  52.567  1.00  0.00    -0.084 Cl
HETATM   25  C20 UNL     1      25.740   0.309  52.091  1.00  0.00     0.053 A 
ENDBRANCH  17  19
ENDBRANCH  15  17
BRANCH  10  26
HETATM   26  O1  UNL     1      24.578   6.880  52.084  1.00  0.00    -0.360 OA
HETATM   27  H13 UNL     1      25.461   7.344  51.922  1.00  0.00     0.217 HD
ENDBRANCH  10  26
BRANCH   1  28
HETATM   28  C2  UNL     1      25.845   7.513  48.271  1.00  0.00    -0.010 C 
HETATM   29  C1  UNL     1      27.077   7.314  47.880  1.00  0.00     0.011 C 
ENDBRANCH   1  28
TORSDOF 4
ENDMDL
MODEL 5
REMARK VINA RESULT:      -7.9      6.099      9.877
REMARK  4 active torsions:
REMARK  status: ('A' for Active; 'I' for Inactive)
REMARK    1  A    between atoms: C2_2  and  C3_3 
REMARK    2  A    between atoms: C11_12  and  O1_13 
REMARK    3  A    between atoms: C14_18  and  N4_19 
REMARK    4  A    between atoms: N4_19  and  C15_20 
ROOT
HETATM    1  C3  UNL     1      32.710   4.351  48.198  1.00  0.00     0.011 C 
HETATM    2  C4  UNL     1      32.614   5.676  48.158  1.00  0.00    -0.008 C 
HETATM    3  C5  UNL     1      33.342   6.554  47.243  1.00  0.00     0.161 C 
HETATM    4  N1  UNL     1      32.523   7.437  46.485  1.00  0.00    -0.388 N 
HETATM    5  C6  UNL     1      31.428   8.259  46.875  1.00  0.00     0.023 C 
HETATM    6  C7  UNL     1      30.987   9.032  45.894  1.00  0.00    -0.005 C 
HETATM    7  C8  UNL     1      31.193   9.384  44.506  1.00  0.00     0.038 C 
HETATM    8  C9  UNL     1      30.697   8.416  48.146  1.00  0.00     0.100 A 
HETATM    9  C10 UNL     1      30.936   7.290  49.089  1.00  0.00     0.036 C 
HETATM   10  C11 UNL     1      31.676   6.178  49.156  1.00  0.00     0.071 C 
HETATM   11  C12 UNL     1      31.149   9.677  48.811  1.00  0.00     0.178 A 
HETATM   12  N2  UNL     1      30.197  10.672  49.111  1.00  0.00    -0.281 NA
HETATM   13  C13 UNL     1      28.962  10.652  48.877  1.00  0.00     0.228 A 
HETATM   14  N3  UNL     1      28.443   9.485  48.231  1.00  0.00    -0.227 NA
HETATM   15  C14 UNL     1      29.214   8.510  47.915  1.00  0.00     0.126 A 
HETATM   16  H7  UNL     1      32.780   7.486  45.457  1.00  0.00     0.159 HD
ENDROOT
BRANCH  15  17
HETATM   17  N4  UNL     1      28.545   7.411  47.289  1.00  0.00    -0.343 N 
HETATM   18  H17 UNL     1      28.957   7.004  46.408  1.00  0.00     0.167 HD
BRANCH  17  19
HETATM   19  C15 UNL     1      27.335   6.876  47.831  1.00  0.00     0.035 A 
HETATM   20  C16 UNL     1      26.055   7.361  47.853  1.00  0.00     0.029 A 
HETATM   21  C17 UNL     1      25.030   6.683  48.450  1.00  0.00     0.004 A 
HETATM   22  C18 UNL     1      25.236   5.462  49.068  1.00  0.00     0.024 A 
HETATM   23  C19 UNL     1      26.501   4.961  49.057  1.00  0.00     0.036 A 
HETATM   24 CL1  UNL     1      26.758   3.398  49.851  1.00  0.00    -0.084 Cl
HETATM   25  C20 UNL     1      27.555   5.641  48.453  1.00  0.00     0.053 A 
ENDBRANCH  17  19
ENDBRANCH  15  17
BRANCH  10  26
HETATM   26  O1  UNL     1      31.536   5.403  50.322  1.00  0.00    -0.360 OA
HETATM   27  H13 UNL     1      30.696   4.858  50.455  1.00  0.00     0.217 HD
ENDBRANCH  10  26
BRANCH   1  28
HETATM   28  C2  UNL     1      33.613   3.727  47.253  1.00  0.00    -0.010 C 
HETATM   29  C1  UNL     1      34.728   3.213  47.703  1.00  0.00     0.011 C 
ENDBRANCH   1  28
TORSDOF 4
ENDMDL
MODEL 6
REMARK VINA RESULT:      -7.7      3.694      7.249
REMARK  4 active torsions:
REMARK  status: ('A' for Active; 'I' for Inactive)
REMARK    1  A    between atoms: C2_2  and  C3_3 
REMARK    2  A    between atoms: C11_12  and  O1_13 
REMARK    3  A    between atoms: C14_18  and  N4_19 
REMARK    4  A    between atoms: N4_19  and  C15_20 
ROOT
HETATM    1  C3  UNL     1      25.042   6.212  50.094  1.00  0.00     0.011 C 
HETATM    2  C4  UNL     1      23.851   5.785  49.685  1.00  0.00    -0.008 C 
HETATM    3  C5  UNL     1      23.606   4.937  48.519  1.00  0.00     0.161 C 
HETATM    4  N1  UNL     1      22.863   3.754  48.788  1.00  0.00    -0.388 N 
HETATM    5  C6  UNL     1      21.681   3.549  49.556  1.00  0.00     0.023 C 
HETATM    6  C7  UNL     1      21.223   2.309  49.478  1.00  0.00    -0.005 C 
HETATM    7  C8  UNL     1      21.468   1.011  48.887  1.00  0.00     0.038 C 
HETATM    8  C9  UNL     1      20.876   4.440  50.412  1.00  0.00     0.100 A 
HETATM    9  C10 UNL     1      21.606   5.680  50.796  1.00  0.00     0.036 C 
HETATM   10  C11 UNL     1      22.780   6.270  50.547  1.00  0.00     0.071 C 
HETATM   11  C12 UNL     1      19.644   4.844  49.667  1.00  0.00     0.178 A 
HETATM   12  N2  UNL     1      18.382   4.554  50.223  1.00  0.00    -0.281 NA
HETATM   13  C13 UNL     1      18.135   3.966  51.306  1.00  0.00     0.228 A 
HETATM   14  N3  UNL     1      19.258   3.534  52.081  1.00  0.00    -0.227 NA
HETATM   15  C14 UNL     1      20.457   3.748  51.679  1.00  0.00     0.126 A 
HETATM   16  H7  UNL     1      23.262   2.882  48.334  1.00  0.00     0.159 HD
ENDROOT
BRANCH  15  17
HETATM   17  N4  UNL     1      21.469   3.270  52.568  1.00  0.00    -0.343 N 
HETATM   18  H17 UNL     1      22.063   3.972  53.084  1.00  0.00     0.167 HD
BRANCH  17  19
HETATM   19  C15 UNL     1      21.690   1.869  52.753  1.00  0.00     0.035 A 
HETATM   20  C16 UNL     1      20.821   0.828  52.945  1.00  0.00     0.029 A 
HETATM   21  C17 UNL     1      21.253  -0.457  53.121  1.00  0.00     0.004 A 
HETATM   22  C18 UNL     1      22.599  -0.772  53.114  1.00  0.00     0.024 A 
HETATM   23  C19 UNL     1      23.480   0.247  52.924  1.00  0.00     0.036 A 
HETATM   24 CL1  UNL     1      25.204  -0.165  52.917  1.00  0.00    -0.084 Cl
HETATM   25  C20 UNL     1      23.056   1.561  52.744  1.00  0.00     0.053 A 
ENDBRANCH  17  19
ENDBRANCH  15  17
BRANCH  10  26
HETATM   26  O1  UNL     1      23.009   7.501  51.190  1.00  0.00    -0.360 OA
HETATM   27  H13 UNL     1      23.740   8.108  50.846  1.00  0.00     0.217 HD
ENDBRANCH  10  26
BRANCH   1  28
HETATM   28  C2  UNL     1      26.192   5.797  49.318  1.00  0.00    -0.010 C 
HETATM   29  C1  UNL     1      26.844   6.704  48.638  1.00  0.00     0.011 C 
ENDBRANCH   1  28
TORSDOF 4
ENDMDL
MODEL 7
REMARK VINA RESULT:      -7.7      3.241      5.667
REMARK  4 active torsions:
REMARK  status: ('A' for Active; 'I' for Inactive)
REMARK    1  A    between atoms: C2_2  and  C3_3 
REMARK    2  A    between atoms: C11_12  and  O1_13 
REMARK    3  A    between atoms: C14_18  and  N4_19 
REMARK    4  A    between atoms: N4_19  and  C15_20 
ROOT
HETATM    1  C3  UNL     1      26.847   2.325  52.017  1.00  0.00     0.011 C 
HETATM    2  C4  UNL     1      25.709   1.704  51.722  1.00  0.00    -0.008 C 
HETATM    3  C5  UNL     1      25.206   0.496  52.374  1.00  0.00     0.161 C 
HETATM    4  N1  UNL     1      23.887   0.605  52.895  1.00  0.00    -0.388 N 
HETATM    5  C6  UNL     1      22.700   1.149  52.325  1.00  0.00     0.023 C 
HETATM    6  C7  UNL     1      21.631   0.966  53.085  1.00  0.00    -0.005 C 
HETATM    7  C8  UNL     1      21.173   0.400  54.335  1.00  0.00     0.038 C 
HETATM    8  C9  UNL     1      22.434   1.869  51.066  1.00  0.00     0.100 A 
HETATM    9  C10 UNL     1      23.673   2.402  50.436  1.00  0.00     0.036 C 
HETATM   10  C11 UNL     1      24.993   2.376  50.643  1.00  0.00     0.071 C 
HETATM   11  C12 UNL     1      21.792   0.928  50.097  1.00  0.00     0.178 A 
HETATM   12  N2  UNL     1      20.526   1.248  49.568  1.00  0.00    -0.281 NA
HETATM   13  C13 UNL     1      19.820   2.259  49.818  1.00  0.00     0.228 A 
HETATM   14  N3  UNL     1      20.353   3.210  50.745  1.00  0.00    -0.227 NA
HETATM   15  C14 UNL     1      21.501   3.028  51.287  1.00  0.00     0.126 A 
HETATM   16  H7  UNL     1      23.776   0.210  53.873  1.00  0.00     0.159 HD
ENDROOT
BRANCH  15  17
HETATM   17  N4  UNL     1      21.900   4.071  52.180  1.00  0.00    -0.343 N 
HETATM   18  H17 UNL     1      21.726   3.947  53.213  1.00  0.00     0.167 HD
BRANCH  17  19
HETATM   19  C15 UNL     1      22.512   5.268  51.693  1.00  0.00     0.035 A 
HETATM   20  C16 UNL     1      23.813   5.695  51.703  1.00  0.00     0.029 A 
HETATM   21  C17 UNL     1      24.186   6.905  51.189  1.00  0.00     0.004 A 
HETATM   22  C18 UNL     1      23.261   7.766  50.629  1.00  0.00     0.024 A 
HETATM   23  C19 UNL     1      21.962   7.362  50.608  1.00  0.00     0.036 A 
HETATM   24 CL1  UNL     1      20.781   8.471  49.888  1.00  0.00    -0.084 Cl
HETATM   25  C20 UNL     1      21.567   6.133  51.127  1.00  0.00     0.053 A 
ENDBRANCH  17  19
ENDBRANCH  15  17
BRANCH  10  26
HETATM   26  O1  UNL     1      25.786   3.074  49.713  1.00  0.00    -0.360 OA
HETATM   27  H13 UNL     1      26.792   3.017  49.780  1.00  0.00     0.217 HD
ENDBRANCH  10  26
BRANCH   1  28
HETATM   28  C2  UNL     1      27.653   1.754  53.077  1.00  0.00    -0.010 C 
HETATM   29  C1  UNL     1      28.591   2.492  53.612  1.00  0.00     0.011 C 
ENDBRANCH   1  28
TORSDOF 4
ENDMDL
MODEL 8
REMARK VINA RESULT:      -7.6      2.915      5.775
REMARK  4 active torsions:
REMARK  status: ('A' for Active; 'I' for Inactive)
REMARK    1  A    between atoms: C2_2  and  C3_3 
REMARK    2  A    between atoms: C11_12  and  O1_13 
REMARK    3  A    between atoms: C14_18  and  N4_19 
REMARK    4  A    between atoms: N4_19  and  C15_20 
ROOT
HETATM    1  C3  UNL     1      26.125   5.768  48.529  1.00  0.00     0.011 C 
HETATM    2  C4  UNL     1      25.659   4.645  49.066  1.00  0.00    -0.008 C 
HETATM    3  C5  UNL     1      26.468   3.610  49.709  1.00  0.00     0.161 C 
HETATM    4  N1  UNL     1      26.063   3.271  51.030  1.00  0.00    -0.388 N 
HETATM    5  C6  UNL     1      24.771   3.016  51.573  1.00  0.00     0.023 C 
HETATM    6  C7  UNL     1      24.811   2.618  52.836  1.00  0.00    -0.005 C 
HETATM    7  C8  UNL     1      25.702   2.328  53.938  1.00  0.00     0.038 C 
HETATM    8  C9  UNL     1      23.412   3.107  51.008  1.00  0.00     0.100 A 
HETATM    9  C10 UNL     1      23.362   3.914  49.758  1.00  0.00     0.036 C 
HETATM   10  C11 UNL     1      24.209   4.550  48.942  1.00  0.00     0.071 C 
HETATM   11  C12 UNL     1      22.928   1.729  50.687  1.00  0.00     0.178 A 
HETATM   12  N2  UNL     1      21.741   1.264  51.285  1.00  0.00    -0.281 NA
HETATM   13  C13 UNL     1      21.000   1.870  52.101  1.00  0.00     0.228 A 
HETATM   14  N3  UNL     1      21.394   3.195  52.474  1.00  0.00    -0.227 NA
HETATM   15  C14 UNL     1      22.454   3.727  51.988  1.00  0.00     0.126 A 
HETATM   16  H7  UNL     1      26.865   3.194  51.720  1.00  0.00     0.159 HD
ENDROOT
BRANCH  15  17
HETATM   17  N4  UNL     1      22.706   5.058  52.447  1.00  0.00    -0.343 N 
HETATM   18  H17 UNL     1      22.983   5.203  53.455  1.00  0.00     0.167 HD
BRANCH  17  19
HETATM   19  C15 UNL     1      22.576   6.180  51.570  1.00  0.00     0.035 A 
HETATM   20  C16 UNL     1      21.499   6.684  50.890  1.00  0.00     0.029 A 
HETATM   21  C17 UNL     1      21.599   7.777  50.076  1.00  0.00     0.004 A 
HETATM   22  C18 UNL     1      22.803   8.435  49.897  1.00  0.00     0.024 A 
HETATM   23  C19 UNL     1      23.886   7.951  50.564  1.00  0.00     0.036 A 
HETATM   24 CL1  UNL     1      25.425   8.798  50.329  1.00  0.00    -0.084 Cl
HETATM   25  C20 UNL     1      23.800   6.838  51.396  1.00  0.00     0.053 A 
ENDBRANCH  17  19
ENDBRANCH  15  17
BRANCH  10  26
HETATM   26  O1  UNL     1      23.637   5.202  47.833  1.00  0.00    -0.360 OA
HETATM   27  H13 UNL     1      24.230   5.741  47.218  1.00  0.00     0.217 HD
ENDBRANCH  10  26
BRANCH   1  28
HETATM   28  C2  UNL     1      27.556   5.982  48.589  1.00  0.00    -0.010 C 
HETATM   29  C1  UNL     1      28.073   6.944  47.869  1.00  0.00     0.011 C 
ENDBRANCH   1  28
TORSDOF 4
ENDMDL
MODEL 9
REMARK VINA RESULT:      -7.4      6.789     10.935
REMARK  4 active torsions:
REMARK  status: ('A' for Active; 'I' for Inactive)
REMARK    1  A    between atoms: C2_2  and  C3_3 
REMARK    2  A    between atoms: C11_12  and  O1_13 
REMARK    3  A    between atoms: C14_18  and  N4_19 
REMARK    4  A    between atoms: N4_19  and  C15_20 
ROOT
HETATM    1  C3  UNL     1      33.260   5.226  43.929  1.00  0.00     0.011 C 
HETATM    2  C4  UNL     1      32.875   6.428  44.348  1.00  0.00    -0.008 C 
HETATM    3  C5  UNL     1      32.235   7.451  43.524  1.00  0.00     0.161 C 
HETATM    4  N1  UNL     1      31.002   7.944  44.035  1.00  0.00    -0.388 N 
HETATM    5  C6  UNL     1      30.632   8.349  45.349  1.00  0.00     0.023 C 
HETATM    6  C7  UNL     1      29.411   8.858  45.409  1.00  0.00    -0.005 C 
HETATM    7  C8  UNL     1      28.242   9.179  44.617  1.00  0.00     0.038 C 
HETATM    8  C9  UNL     1      31.337   8.312  46.644  1.00  0.00     0.100 A 
HETATM    9  C10 UNL     1      32.512   7.398  46.632  1.00  0.00     0.036 C 
HETATM   10  C11 UNL     1      33.171   6.625  45.763  1.00  0.00     0.071 C 
HETATM   11  C12 UNL     1      31.826   9.688  46.967  1.00  0.00     0.178 A 
HETATM   12  N2  UNL     1      31.408  10.299  48.165  1.00  0.00    -0.281 NA
HETATM   13  C13 UNL     1      30.633   9.832  49.039  1.00  0.00     0.228 A 
HETATM   14  N3  UNL     1      30.108   8.521  48.805  1.00  0.00    -0.227 NA
HETATM   15  C14 UNL     1      30.423   7.864  47.751  1.00  0.00     0.126 A 
HETATM   16  H7  UNL     1      30.234   8.021  43.307  1.00  0.00     0.159 HD
ENDROOT
BRANCH  15  17
HETATM   17  N4  UNL     1      29.829   6.566  47.668  1.00  0.00    -0.343 N 
HETATM   18  H17 UNL     1      30.422   5.757  47.339  1.00  0.00     0.167 HD
BRANCH  17  19
HETATM   19  C15 UNL     1      28.455   6.358  48.007  1.00  0.00     0.035 A 
HETATM   20  C16 UNL     1      27.360   7.176  47.912  1.00  0.00     0.029 A 
HETATM   21  C17 UNL     1      26.118   6.777  48.316  1.00  0.00     0.004 A 
HETATM   22  C18 UNL     1      25.901   5.518  48.846  1.00  0.00     0.024 A 
HETATM   23  C19 UNL     1      26.976   4.689  48.949  1.00  0.00     0.036 A 
HETATM   24 CL1  UNL     1      26.691   3.077  49.629  1.00  0.00    -0.084 Cl
HETATM   25  C20 UNL     1      28.247   5.081  48.542  1.00  0.00     0.053 A 
ENDBRANCH  17  19
ENDBRANCH  15  17
BRANCH  10  26
HETATM   26  O1  UNL     1      34.279   5.919  46.269  1.00  0.00    -0.360 OA
HETATM   27  H13 UNL     1      34.127   5.169  46.929  1.00  0.00     0.217 HD
ENDBRANCH  10  26
BRANCH   1  28
HETATM   28  C2  UNL     1      33.020   4.907  42.537  1.00  0.00    -0.010 C 
HETATM   29  C1  UNL     1      34.040   4.571  41.790  1.00  0.00     0.011 C 
ENDBRANCH   1  28
TORSDOF 4
ENDMDL
