MODEL 1
REMARK VINA RESULT:      -8.7      0.000      0.000
REMARK  4 active torsions:
REMARK  status: ('A' for Active; 'I' for Inactive)
REMARK    1  A    between atoms: C2_2  and  C3_3 
REMARK    2  A    between atoms: N1_14  and  N2_15 
REMARK    3  A    between atoms: N2_15  and  C14_16 
REMARK    4  A    between atoms: C14_16  and  N3_17 
ROOT
HETATM    1  C3  UNL     1      20.776  -0.529  53.411  1.00  0.00     0.008 C 
HETATM    2  C4  UNL     1      21.578   0.272  52.777  1.00  0.00    -0.035 C 
HETATM    3  C5  UNL     1      22.833   0.974  53.222  1.00  0.00     0.010 C 
HETATM    4  C6  UNL     1      23.738   1.723  52.759  1.00  0.00     0.013 C 
HETATM    5  C7  UNL     1      24.476   2.499  51.794  1.00  0.00    -0.024 A 
HETATM    6  C8  UNL     1      25.789   1.967  51.814  1.00  0.00     0.012 A 
HETATM    7  C9  UNL     1      26.915   2.299  51.037  1.00  0.00     0.001 A 
HETATM    8  C10 UNL     1      26.642   3.296  50.141  1.00  0.00     0.001 A 
HETATM    9  C11 UNL     1      25.378   3.827  50.102  1.00  0.00     0.014 A 
HETATM   10  C12 UNL     1      24.269   3.492  50.872  1.00  0.00     0.004 A 
HETATM   11  C13 UNL     1      23.252   4.398  50.252  1.00  0.00     0.087 C 
HETATM   12  N1  UNL     1      23.441   5.710  50.352  1.00  0.00    -0.172 NA
HETATM   13  C15 UNL     1      22.050   4.108  49.412  1.00  0.00     0.031 C 
HETATM   14  C16 UNL     1      20.952   3.948  48.633  1.00  0.00    -0.008 C 
HETATM   15  C17 UNL     1      20.598   2.466  48.552  1.00  0.00     0.029 A 
HETATM   16  C18 UNL     1      19.630   2.921  49.420  1.00  0.00     0.062 A 
HETATM   17  C19 UNL     1      19.354   2.022  50.458  1.00  0.00    -0.007 A 
HETATM   18  C20 UNL     1      20.321   1.551  49.607  1.00  0.00     0.075 A 
HETATM   19  C21 UNL     1      21.247   1.097  48.791  1.00  0.00     0.061 A 
HETATM   20  C22 UNL     1      21.554   1.969  47.732  1.00  0.00    -0.027 A 
HETATM   21  O1  UNL     1      20.229   0.584  50.722  1.00  0.00    -0.372 OA
HETATM   22  C23 UNL     1      21.451   0.877  51.504  1.00  0.00     0.207 C 
ENDROOT
BRANCH  12  23
HETATM   23  N2  UNL     1      24.611   6.015  51.052  1.00  0.00    -0.258 N 
HETATM   24  H11 UNL     1      25.379   5.884  51.715  1.00  0.00     0.191 HD
BRANCH  23  25
HETATM   25  C14 UNL     1      25.134   7.305  50.650  1.00  0.00     0.164 C 
HETATM   26  S1  UNL     1      26.311   8.053  49.840  1.00  0.00    -0.046 SA
BRANCH  25  27
HETATM   27  N3  UNL     1      24.055   7.896  51.378  1.00  0.00    -0.278 NA
HETATM   28  H12 UNL     1      23.076   8.176  51.242  1.00  0.00     0.126 HD
HETATM   29  H13 UNL     1      23.140   8.031  50.846  1.00  0.00     0.126 HD
ENDBRANCH  25  27
ENDBRANCH  23  25
ENDBRANCH  12  23
BRANCH   1  30
HETATM   30  C2  UNL     1      21.228  -0.744  54.771  1.00  0.00    -0.010 C 
HETATM   31  C1  UNL     1      21.812  -1.967  54.844  1.00  0.00     0.011 C 
ENDBRANCH   1  30
TORSDOF 4
ENDMDL
MODEL 2
REMARK VINA RESULT:      -8.5      2.088      3.169
REMARK  4 active torsions:
REMARK  status: ('A' for Active; 'I' for Inactive)
REMARK    1  A    between atoms: C2_2  and  C3_3 
REMARK    2  A    between atoms: N1_14  and  N2_15 
REMARK    3  A    between atoms: N2_15  and  C14_16 
REMARK    4  A    between atoms: C14_16  and  N3_17 
ROOT
HETATM    1  C3  UNL     1      22.383   1.287  51.529  1.00  0.00     0.008 C 
HETATM    2  C4  UNL     1      23.062   2.259  50.999  1.00  0.00    -0.035 C 
HETATM    3  C5  UNL     1      24.464   2.743  51.254  1.00  0.00     0.010 C 
HETATM    4  C6  UNL     1      25.282   3.604  50.826  1.00  0.00     0.013 C 
HETATM    5  C7  UNL     1      25.804   4.674  50.014  1.00  0.00    -0.024 A 
HETATM    6  C8  UNL     1      26.998   4.164  49.447  1.00  0.00     0.012 A 
HETATM    7  C9  UNL     1      27.890   4.749  48.530  1.00  0.00     0.001 A 
HETATM    8  C10 UNL     1      27.494   6.007  48.162  1.00  0.00     0.001 A 
HETATM    9  C11 UNL     1      26.341   6.522  48.697  1.00  0.00     0.014 A 
HETATM   10  C12 UNL     1      25.463   5.936  49.602  1.00  0.00     0.004 A 
HETATM   11  C13 UNL     1      24.425   7.012  49.675  1.00  0.00     0.087 C 
HETATM   12  N1  UNL     1      24.787   8.196  50.160  1.00  0.00    -0.172 NA
HETATM   13  C15 UNL     1      23.010   7.056  49.196  1.00  0.00     0.031 C 
HETATM   14  C16 UNL     1      21.727   7.198  48.784  1.00  0.00    -0.008 C 
HETATM   15  C17 UNL     1      21.194   5.850  48.308  1.00  0.00     0.029 A 
HETATM   16  C18 UNL     1      20.569   5.962  49.530  1.00  0.00     0.062 A 
HETATM   17  C19 UNL     1      20.494   4.748  50.225  1.00  0.00    -0.007 A 
HETATM   18  C20 UNL     1      21.120   4.614  49.011  1.00  0.00     0.075 A 
HETATM   19  C21 UNL     1      21.720   4.484  47.849  1.00  0.00     0.061 A 
HETATM   20  C22 UNL     1      21.815   5.680  47.117  1.00  0.00    -0.027 A 
HETATM   21  O1  UNL     1      21.234   3.308  49.695  1.00  0.00    -0.372 OA
HETATM   22  C23 UNL     1      22.652   3.288  50.118  1.00  0.00     0.207 C 
ENDROOT
BRANCH  12  23
HETATM   23  N2  UNL     1      26.133   8.218  50.531  1.00  0.00    -0.258 N 
HETATM   24  H11 UNL     1      26.998   7.900  50.978  1.00  0.00     0.191 HD
BRANCH  23  25
HETATM   25  C14 UNL     1      26.803   9.378  49.981  1.00  0.00     0.164 C 
HETATM   26  S1  UNL     1      26.917  10.345  48.695  1.00  0.00    -0.046 SA
BRANCH  25  27
HETATM   27  N3  UNL     1      27.554   9.439  51.195  1.00  0.00    -0.278 NA
HETATM   28  H12 UNL     1      27.757   8.865  52.023  1.00  0.00     0.126 HD
HETATM   29  H13 UNL     1      27.498   8.584  51.833  1.00  0.00     0.126 HD
ENDBRANCH  25  27
ENDBRANCH  23  25
ENDBRANCH  12  23
BRANCH   1  30
HETATM   30  C2  UNL     1      23.172   0.587  52.524  1.00  0.00    -0.010 C 
HETATM   31  C1  UNL     1      22.420  -0.416  53.044  1.00  0.00     0.011 C 
ENDBRANCH   1  30
TORSDOF 4
ENDMDL
MODEL 3
REMARK VINA RESULT:      -8.4      1.765      2.339
REMARK  4 active torsions:
REMARK  status: ('A' for Active; 'I' for Inactive)
REMARK    1  A    between atoms: C2_2  and  C3_3 
REMARK    2  A    between atoms: N1_14  and  N2_15 
REMARK    3  A    between atoms: N2_15  and  C14_16 
REMARK    4  A    between atoms: C14_16  and  N3_17 
ROOT
HETATM    1  C3  UNL     1      24.115  -0.880  54.244  1.00  0.00     0.008 C 
HETATM    2  C4  UNL     1      24.101   0.128  53.426  1.00  0.00    -0.035 C 
HETATM    3  C5  UNL     1      25.058   1.277  53.253  1.00  0.00     0.010 C 
HETATM    4  C6  UNL     1      25.234   2.286  52.515  1.00  0.00     0.013 C 
HETATM    5  C7  UNL     1      24.998   3.229  51.451  1.00  0.00    -0.024 A 
HETATM    6  C8  UNL     1      26.192   3.236  50.688  1.00  0.00     0.012 A 
HETATM    7  C9  UNL     1      26.508   3.926  49.502  1.00  0.00     0.001 A 
HETATM    8  C10 UNL     1      25.464   4.694  49.064  1.00  0.00     0.001 A 
HETATM    9  C11 UNL     1      24.297   4.704  49.785  1.00  0.00     0.014 A 
HETATM   10  C12 UNL     1      23.992   4.017  50.955  1.00  0.00     0.004 A 
HETATM   11  C13 UNL     1      22.565   4.434  51.124  1.00  0.00     0.087 C 
HETATM   12  N1  UNL     1      22.311   5.724  51.326  1.00  0.00    -0.172 NA
HETATM   13  C15 UNL     1      21.288   3.665  51.009  1.00  0.00     0.031 C 
HETATM   14  C16 UNL     1      20.081   3.058  50.910  1.00  0.00    -0.008 C 
HETATM   15  C17 UNL     1      20.277   1.550  50.784  1.00  0.00     0.029 A 
HETATM   16  C18 UNL     1      19.860   1.652  52.092  1.00  0.00     0.062 A 
HETATM   17  C19 UNL     1      20.531   0.774  52.954  1.00  0.00    -0.007 A 
HETATM   18  C20 UNL     1      20.961   0.658  51.657  1.00  0.00     0.075 A 
HETATM   19  C21 UNL     1      21.375   0.545  50.414  1.00  0.00     0.061 A 
HETATM   20  C22 UNL     1      20.726   1.407  49.514  1.00  0.00    -0.027 A 
HETATM   21  O1  UNL     1      21.838  -0.208  52.475  1.00  0.00    -0.372 OA
HETATM   22  C23 UNL     1      23.096   0.569  52.533  1.00  0.00     0.207 C 
ENDROOT
BRANCH  12  23
HETATM   23  N2  UNL     1      23.480   6.488  51.344  1.00  0.00    -0.258 N 
HETATM   24  H11 UNL     1      24.445   6.737  51.579  1.00  0.00     0.191 HD
BRANCH  23  25
HETATM   25  C14 UNL     1      23.318   7.702  50.572  1.00  0.00     0.164 C 
HETATM   26  S1  UNL     1      22.360   8.485  49.537  1.00  0.00    -0.046 SA
BRANCH  25  27
HETATM   27  N3  UNL     1      24.582   8.123  51.090  1.00  0.00    -0.278 NA
HETATM   28  H12 UNL     1      25.229   8.919  51.031  1.00  0.00     0.126 HD
HETATM   29  H13 UNL     1      24.936   9.076  50.764  1.00  0.00     0.126 HD
ENDBRANCH  25  27
ENDBRANCH  23  25
ENDBRANCH  12  23
BRANCH   1  30
HETATM   30  C2  UNL     1      25.280  -0.832  55.105  1.00  0.00    -0.010 C 
HETATM   31  C1  UNL     1      24.879  -1.027  56.387  1.00  0.00     0.011 C 
ENDBRANCH   1  30
TORSDOF 4
ENDMDL
MODEL 4
REMARK VINA RESULT:      -8.4      3.237      6.758
REMARK  4 active torsions:
REMARK  status: ('A' for Active; 'I' for Inactive)
REMARK    1  A    between atoms: C2_2  and  C3_3 
REMARK    2  A    between atoms: N1_14  and  N2_15 
REMARK    3  A    between atoms: N2_15  and  C14_16 
REMARK    4  A    between atoms: C14_16  and  N3_17 
ROOT
HETATM    1  C3  UNL     1      27.559   4.559  49.368  1.00  0.00     0.008 C 
HETATM    2  C4  UNL     1      26.510   3.847  49.650  1.00  0.00    -0.035 C 
HETATM    3  C5  UNL     1      25.063   4.022  49.274  1.00  0.00     0.010 C 
HETATM    4  C6  UNL     1      23.952   3.437  49.406  1.00  0.00     0.013 C 
HETATM    5  C7  UNL     1      23.006   2.425  49.803  1.00  0.00    -0.024 A 
HETATM    6  C8  UNL     1      22.380   2.008  48.602  1.00  0.00     0.012 A 
HETATM    7  C9  UNL     1      21.417   1.006  48.380  1.00  0.00     0.001 A 
HETATM    8  C10 UNL     1      21.068   0.368  49.539  1.00  0.00     0.001 A 
HETATM    9  C11 UNL     1      21.660   0.753  50.715  1.00  0.00     0.014 A 
HETATM   10  C12 UNL     1      22.613   1.744  50.925  1.00  0.00     0.004 A 
HETATM   11  C13 UNL     1      22.843   1.561  52.393  1.00  0.00     0.087 C 
HETATM   12  N1  UNL     1      21.825   1.787  53.217  1.00  0.00    -0.172 NA
HETATM   13  C15 UNL     1      24.025   1.052  53.153  1.00  0.00     0.031 C 
HETATM   14  C16 UNL     1      25.037   0.591  53.928  1.00  0.00    -0.008 C 
HETATM   15  C17 UNL     1      26.287   0.405  53.074  1.00  0.00     0.029 A 
HETATM   16  C18 UNL     1      26.603   1.560  53.754  1.00  0.00     0.062 A 
HETATM   17  C19 UNL     1      27.279   2.498  52.963  1.00  0.00    -0.007 A 
HETATM   18  C20 UNL     1      26.973   1.356  52.267  1.00  0.00     0.075 A 
HETATM   19  C21 UNL     1      26.680   0.262  51.598  1.00  0.00     0.061 A 
HETATM   20  C22 UNL     1      26.003  -0.708  52.357  1.00  0.00    -0.027 A 
HETATM   21  O1  UNL     1      27.547   2.307  51.291  1.00  0.00    -0.372 OA
HETATM   22  C23 UNL     1      26.355   2.756  50.537  1.00  0.00     0.207 C 
ENDROOT
BRANCH  12  23
HETATM   23  N2  UNL     1      20.673   2.174  52.528  1.00  0.00    -0.258 N 
HETATM   24  H11 UNL     1      19.773   2.065  52.052  1.00  0.00     0.191 HD
BRANCH  23  25
HETATM   25  C14 UNL     1      20.656   3.605  52.308  1.00  0.00     0.164 C 
HETATM   26  S1  UNL     1      21.565   4.935  52.232  1.00  0.00    -0.046 SA
BRANCH  25  27
HETATM   27  N3  UNL     1      19.238   3.501  52.165  1.00  0.00    -0.278 NA
HETATM   28  H12 UNL     1      18.401   4.096  52.183  1.00  0.00     0.126 HD
HETATM   29  H13 UNL     1      18.682   4.408  52.261  1.00  0.00     0.126 HD
ENDBRANCH  25  27
ENDBRANCH  23  25
ENDBRANCH  12  23
BRANCH   1  30
HETATM   30  C2  UNL     1      27.205   5.698  48.544  1.00  0.00    -0.010 C 
HETATM   31  C1  UNL     1      28.348   6.304  48.132  1.00  0.00     0.011 C 
ENDBRANCH   1  30
TORSDOF 4
ENDMDL
MODEL 5
REMARK VINA RESULT:      -8.0      3.658      6.975
REMARK  4 active torsions:
REMARK  status: ('A' for Active; 'I' for Inactive)
REMARK    1  A    between atoms: C2_2  and  C3_3 
REMARK    2  A    between atoms: N1_14  and  N2_15 
REMARK    3  A    between atoms: N2_15  and  C14_16 
REMARK    4  A    between atoms: C14_16  and  N3_17 
ROOT
HETATM    1  C3  UNL     1      28.499   6.325  48.060  1.00  0.00     0.008 C 
HETATM    2  C4  UNL     1      27.492   5.756  48.651  1.00  0.00    -0.035 C 
HETATM    3  C5  UNL     1      27.265   4.327  49.065  1.00  0.00     0.010 C 
HETATM    4  C6  UNL     1      26.410   3.619  49.667  1.00  0.00     0.013 C 
HETATM    5  C7  UNL     1      25.208   3.292  50.392  1.00  0.00    -0.024 A 
HETATM    6  C8  UNL     1      25.651   2.669  51.585  1.00  0.00     0.012 A 
HETATM    7  C9  UNL     1      24.917   2.195  52.689  1.00  0.00     0.001 A 
HETATM    8  C10 UNL     1      23.572   2.392  52.531  1.00  0.00     0.001 A 
HETATM    9  C11 UNL     1      23.119   2.994  51.385  1.00  0.00     0.014 A 
HETATM   10  C12 UNL     1      23.852   3.461  50.300  1.00  0.00     0.004 A 
HETATM   11  C13 UNL     1      22.741   4.042  49.481  1.00  0.00     0.087 C 
HETATM   12  N1  UNL     1      21.806   3.215  49.022  1.00  0.00    -0.172 NA
HETATM   13  C15 UNL     1      22.399   5.456  49.138  1.00  0.00     0.031 C 
HETATM   14  C16 UNL     1      22.000   6.703  48.787  1.00  0.00    -0.008 C 
HETATM   15  C17 UNL     1      23.074   7.711  49.184  1.00  0.00     0.029 A 
HETATM   16  C18 UNL     1      23.268   7.643  47.823  1.00  0.00     0.062 A 
HETATM   17  C19 UNL     1      24.620   7.682  47.456  1.00  0.00    -0.007 A 
HETATM   18  C20 UNL     1      24.448   7.751  48.815  1.00  0.00     0.075 A 
HETATM   19  C21 UNL     1      24.286   7.817  50.119  1.00  0.00     0.061 A 
HETATM   20  C22 UNL     1      22.943   7.782  50.530  1.00  0.00    -0.027 A 
HETATM   21  O1  UNL     1      25.905   7.658  48.575  1.00  0.00    -0.372 OA
HETATM   22  C23 UNL     1      26.207   6.261  48.961  1.00  0.00     0.207 C 
ENDROOT
BRANCH  12  23
HETATM   23  N2  UNL     1      22.045   1.894  49.406  1.00  0.00    -0.258 N 
HETATM   24  H11 UNL     1      22.582   1.039  49.574  1.00  0.00     0.191 HD
BRANCH  23  25
HETATM   25  C14 UNL     1      20.828   1.263  49.874  1.00  0.00     0.164 C 
HETATM   26  S1  UNL     1      20.129   0.518  51.123  1.00  0.00    -0.046 SA
BRANCH  25  27
HETATM   27  N3  UNL     1      20.274   1.520  48.582  1.00  0.00    -0.278 NA
HETATM   28  H12 UNL     1      19.361   1.662  48.134  1.00  0.00     0.126 HD
HETATM   29  H13 UNL     1      19.211   1.603  48.529  1.00  0.00     0.126 HD
ENDBRANCH  25  27
ENDBRANCH  23  25
ENDBRANCH  12  23
BRANCH   1  30
HETATM   30  C2  UNL     1      29.548   5.364  47.784  1.00  0.00    -0.010 C 
HETATM   31  C1  UNL     1      30.698   5.805  48.355  1.00  0.00     0.011 C 
ENDBRANCH   1  30
TORSDOF 4
ENDMDL
MODEL 6
REMARK VINA RESULT:      -7.9      3.755      6.210
REMARK  4 active torsions:
REMARK  status: ('A' for Active; 'I' for Inactive)
REMARK    1  A    between atoms: C2_2  and  C3_3 
REMARK    2  A    between atoms: N1_14  and  N2_15 
REMARK    3  A    between atoms: N2_15  and  C14_16 
REMARK    4  A    between atoms: C14_16  and  N3_17 
ROOT
HETATM    1  C3  UNL     1      27.906   0.083  52.709  1.00  0.00     0.008 C 
HETATM    2  C4  UNL     1      26.626   0.305  52.694  1.00  0.00    -0.035 C 
HETATM    3  C5  UNL     1      25.460  -0.600  52.986  1.00  0.00     0.010 C 
HETATM    4  C6  UNL     1      24.201  -0.559  53.067  1.00  0.00     0.013 C 
HETATM    5  C7  UNL     1      22.871  -0.003  53.048  1.00  0.00    -0.024 A 
HETATM    6  C8  UNL     1      22.323  -0.304  54.319  1.00  0.00     0.012 A 
HETATM    7  C9  UNL     1      21.078   0.044  54.877  1.00  0.00     0.001 A 
HETATM    8  C10 UNL     1      20.320   0.786  54.012  1.00  0.00     0.001 A 
HETATM    9  C11 UNL     1      20.829   1.090  52.775  1.00  0.00     0.014 A 
HETATM   10  C12 UNL     1      22.062   0.745  52.233  1.00  0.00     0.004 A 
HETATM   11  C13 UNL     1      21.965   1.457  50.920  1.00  0.00     0.087 C 
HETATM   12  N1  UNL     1      21.018   1.073  50.070  1.00  0.00    -0.172 NA
HETATM   13  C15 UNL     1      22.696   2.645  50.383  1.00  0.00     0.031 C 
HETATM   14  C16 UNL     1      23.292   3.722  49.815  1.00  0.00    -0.008 C 
HETATM   15  C17 UNL     1      24.468   4.166  50.680  1.00  0.00     0.029 A 
HETATM   16  C18 UNL     1      25.126   3.547  49.640  1.00  0.00     0.062 A 
HETATM   17  C19 UNL     1      26.243   2.811  50.055  1.00  0.00    -0.007 A 
HETATM   18  C20 UNL     1      25.603   3.419  51.105  1.00  0.00     0.075 A 
HETATM   19  C21 UNL     1      24.990   4.001  52.113  1.00  0.00     0.061 A 
HETATM   20  C22 UNL     1      23.863   4.753  51.740  1.00  0.00    -0.027 A 
HETATM   21  O1  UNL     1      26.663   2.570  51.689  1.00  0.00    -0.372 OA
HETATM   22  C23 UNL     1      25.897   1.430  52.241  1.00  0.00     0.207 C 
ENDROOT
BRANCH  12  23
HETATM   23  N2  UNL     1      20.252   0.023  50.583  1.00  0.00    -0.258 N 
HETATM   24  H11 UNL     1      20.058  -0.886  51.010  1.00  0.00     0.191 HD
BRANCH  23  25
HETATM   25  C14 UNL     1      18.838   0.326  50.503  1.00  0.00     0.164 C 
HETATM   26  S1  UNL     1      17.401   0.091  51.196  1.00  0.00    -0.046 SA
BRANCH  25  27
HETATM   27  N3  UNL     1      19.130   1.064  49.314  1.00  0.00    -0.278 NA
HETATM   28  H12 UNL     1      19.634   0.954  48.425  1.00  0.00     0.126 HD
HETATM   29  H13 UNL     1      19.726   0.568  48.580  1.00  0.00     0.126 HD
ENDBRANCH  25  27
ENDBRANCH  23  25
ENDBRANCH  12  23
BRANCH   1  30
HETATM   30  C2  UNL     1      28.189  -1.288  53.085  1.00  0.00    -0.010 C 
HETATM   31  C1  UNL     1      29.480  -1.366  53.496  1.00  0.00     0.011 C 
ENDBRANCH   1  30
TORSDOF 4
ENDMDL
MODEL 7
REMARK VINA RESULT:      -7.8      8.993     12.272
REMARK  4 active torsions:
REMARK  status: ('A' for Active; 'I' for Inactive)
REMARK    1  A    between atoms: C2_2  and  C3_3 
REMARK    2  A    between atoms: N1_14  and  N2_15 
REMARK    3  A    between atoms: N2_15  and  C14_16 
REMARK    4  A    between atoms: C14_16  and  N3_17 
ROOT
HETATM    1  C3  UNL     1      28.876   5.484  48.432  1.00  0.00     0.008 C 
HETATM    2  C4  UNL     1      29.863   6.036  47.794  1.00  0.00    -0.035 C 
HETATM    3  C5  UNL     1      29.916   7.258  46.916  1.00  0.00     0.010 C 
HETATM    4  C6  UNL     1      30.752   7.951  46.273  1.00  0.00     0.013 C 
HETATM    5  C7  UNL     1      32.028   8.377  45.756  1.00  0.00    -0.024 A 
HETATM    6  C8  UNL     1      32.169   9.723  46.176  1.00  0.00     0.012 A 
HETATM    7  C9  UNL     1      33.241  10.620  46.007  1.00  0.00     0.001 A 
HETATM    8  C10 UNL     1      34.281  10.050  45.323  1.00  0.00     0.001 A 
HETATM    9  C11 UNL     1      34.169   8.748  44.906  1.00  0.00     0.014 A 
HETATM   10  C12 UNL     1      33.106   7.868  45.080  1.00  0.00     0.004 A 
HETATM   11  C13 UNL     1      33.693   6.642  44.452  1.00  0.00     0.087 C 
HETATM   12  N1  UNL     1      33.986   6.684  43.157  1.00  0.00    -0.172 NA
HETATM   13  C15 UNL     1      34.131   5.341  45.044  1.00  0.00     0.031 C 
HETATM   14  C16 UNL     1      34.569   4.138  45.487  1.00  0.00    -0.008 C 
HETATM   15  C17 UNL     1      34.176   3.961  46.951  1.00  0.00     0.029 A 
HETATM   16  C18 UNL     1      33.261   3.138  46.332  1.00  0.00     0.062 A 
HETATM   17  C19 UNL     1      31.989   3.191  46.916  1.00  0.00    -0.007 A 
HETATM   18  C20 UNL     1      32.884   4.017  47.546  1.00  0.00     0.075 A 
HETATM   19  C21 UNL     1      33.741   4.810  48.152  1.00  0.00     0.061 A 
HETATM   20  C22 UNL     1      35.033   4.786  47.598  1.00  0.00    -0.027 A 
HETATM   21  O1  UNL     1      31.564   4.273  48.162  1.00  0.00    -0.372 OA
HETATM   22  C23 UNL     1      31.186   5.581  47.583  1.00  0.00     0.207 C 
ENDROOT
BRANCH  12  23
HETATM   23  N2  UNL     1      33.676   7.923  42.592  1.00  0.00    -0.258 N 
HETATM   24  H11 UNL     1      33.536   8.936  42.550  1.00  0.00     0.191 HD
BRANCH  23  25
HETATM   25  C14 UNL     1      33.325   7.783  41.194  1.00  0.00     0.164 C 
HETATM   26  S1  UNL     1      33.912   7.647  39.697  1.00  0.00    -0.046 SA
BRANCH  25  27
HETATM   27  N3  UNL     1      31.956   7.837  41.599  1.00  0.00    -0.278 NA
HETATM   28  H12 UNL     1      31.093   8.351  41.382  1.00  0.00     0.126 HD
HETATM   29  H13 UNL     1      31.342   8.556  41.103  1.00  0.00     0.126 HD
ENDBRANCH  25  27
ENDBRANCH  23  25
ENDBRANCH  12  23
BRANCH   1  30
HETATM   30  C2  UNL     1      27.646   6.224  48.224  1.00  0.00    -0.010 C 
HETATM   31  C1  UNL     1      26.647   5.597  48.894  1.00  0.00     0.011 C 
ENDBRANCH   1  30
TORSDOF 4
ENDMDL
MODEL 8
REMARK VINA RESULT:      -7.3      3.093      5.544
REMARK  4 active torsions:
REMARK  status: ('A' for Active; 'I' for Inactive)
REMARK    1  A    between atoms: C2_2  and  C3_3 
REMARK    2  A    between atoms: N1_14  and  N2_15 
REMARK    3  A    between atoms: N2_15  and  C14_16 
REMARK    4  A    between atoms: C14_16  and  N3_17 
ROOT
HETATM    1  C3  UNL     1      23.438  -0.037  53.653  1.00  0.00     0.008 C 
HETATM    2  C4  UNL     1      22.701   0.726  52.903  1.00  0.00    -0.035 C 
HETATM    3  C5  UNL     1      21.314   0.531  52.352  1.00  0.00     0.010 C 
HETATM    4  C6  UNL     1      20.448   1.150  51.673  1.00  0.00     0.013 C 
HETATM    5  C7  UNL     1      19.844   2.223  50.924  1.00  0.00    -0.024 A 
HETATM    6  C8  UNL     1      18.619   2.493  51.582  1.00  0.00     0.012 A 
HETATM    7  C9  UNL     1      17.646   3.477  51.323  1.00  0.00     0.001 A 
HETATM    8  C10 UNL     1      17.988   4.266  50.259  1.00  0.00     0.001 A 
HETATM    9  C11 UNL     1      19.170   4.025  49.605  1.00  0.00     0.014 A 
HETATM   10  C12 UNL     1      20.127   3.051  49.869  1.00  0.00     0.004 A 
HETATM   11  C13 UNL     1      21.147   3.418  48.836  1.00  0.00     0.087 C 
HETATM   12  N1  UNL     1      20.802   3.320  47.556  1.00  0.00    -0.172 NA
HETATM   13  C15 UNL     1      22.518   3.997  48.963  1.00  0.00     0.031 C 
HETATM   14  C16 UNL     1      23.763   4.535  48.974  1.00  0.00    -0.008 C 
HETATM   15  C17 UNL     1      24.282   4.585  50.408  1.00  0.00     0.029 A 
HETATM   16  C18 UNL     1      24.999   3.522  49.906  1.00  0.00     0.062 A 
HETATM   17  C19 UNL     1      25.151   2.476  50.825  1.00  0.00    -0.007 A 
HETATM   18  C20 UNL     1      24.435   3.524  51.345  1.00  0.00     0.075 A 
HETATM   19  C21 UNL     1      23.748   4.528  51.844  1.00  0.00     0.061 A 
HETATM   20  C22 UNL     1      23.573   5.601  50.954  1.00  0.00    -0.027 A 
HETATM   21  O1  UNL     1      24.400   2.444  52.354  1.00  0.00    -0.372 OA
HETATM   22  C23 UNL     1      23.020   1.925  52.223  1.00  0.00     0.207 C 
ENDROOT
BRANCH  12  23
HETATM   23  N2  UNL     1      19.488   2.870  47.404  1.00  0.00    -0.258 N 
HETATM   24  H11 UNL     1      18.608   2.414  47.659  1.00  0.00     0.191 HD
BRANCH  23  25
HETATM   25  C14 UNL     1      18.964   3.232  46.104  1.00  0.00     0.164 C 
HETATM   26  S1  UNL     1      19.269   4.039  44.740  1.00  0.00    -0.046 SA
BRANCH  25  27
HETATM   27  N3  UNL     1      17.778   2.516  46.454  1.00  0.00    -0.278 NA
HETATM   28  H12 UNL     1      16.937   2.627  47.033  1.00  0.00     0.126 HD
HETATM   29  H13 UNL     1      17.111   3.003  47.132  1.00  0.00     0.126 HD
ENDBRANCH  25  27
ENDBRANCH  23  25
ENDBRANCH  12  23
BRANCH   1  30
HETATM   30  C2  UNL     1      22.743  -1.266  53.982  1.00  0.00    -0.010 C 
HETATM   31  C1  UNL     1      22.668  -1.372  55.332  1.00  0.00     0.011 C 
ENDBRANCH   1  30
TORSDOF 4
ENDMDL
MODEL 9
REMARK VINA RESULT:      -7.3     10.052     13.716
REMARK  4 active torsions:
REMARK  status: ('A' for Active; 'I' for Inactive)
REMARK    1  A    between atoms: C2_2  and  C3_3 
REMARK    2  A    between atoms: N1_14  and  N2_15 
REMARK    3  A    between atoms: N2_15  and  C14_16 
REMARK    4  A    between atoms: C14_16  and  N3_17 
ROOT
HETATM    1  C3  UNL     1      33.654   5.010  41.201  1.00  0.00     0.008 C 
HETATM    2  C4  UNL     1      33.708   5.348  42.454  1.00  0.00    -0.035 C 
HETATM    3  C5  UNL     1      33.332   4.594  43.701  1.00  0.00     0.010 C 
HETATM    4  C6  UNL     1      33.355   4.729  44.956  1.00  0.00     0.013 C 
HETATM    5  C7  UNL     1      33.605   5.341  46.237  1.00  0.00    -0.024 A 
HETATM    6  C8  UNL     1      34.404   4.410  46.944  1.00  0.00     0.012 A 
HETATM    7  C9  UNL     1      34.992   4.502  48.220  1.00  0.00     0.001 A 
HETATM    8  C10 UNL     1      34.714   5.698  48.826  1.00  0.00     0.001 A 
HETATM    9  C11 UNL     1      33.942   6.616  48.161  1.00  0.00     0.014 A 
HETATM   10  C12 UNL     1      33.367   6.517  46.898  1.00  0.00     0.004 A 
HETATM   11  C13 UNL     1      32.749   7.878  46.799  1.00  0.00     0.087 C 
HETATM   12  N1  UNL     1      31.791   8.192  47.665  1.00  0.00    -0.172 NA
HETATM   13  C15 UNL     1      33.079   9.053  45.938  1.00  0.00     0.031 C 
HETATM   14  C16 UNL     1      33.311  10.175  45.214  1.00  0.00    -0.008 C 
HETATM   15  C17 UNL     1      34.329   9.872  44.118  1.00  0.00     0.029 A 
HETATM   16  C18 UNL     1      33.163   9.922  43.387  1.00  0.00     0.062 A 
HETATM   17  C19 UNL     1      33.107   8.956  42.373  1.00  0.00    -0.007 A 
HETATM   18  C20 UNL     1      34.275   8.890  43.090  1.00  0.00     0.075 A 
HETATM   19  C21 UNL     1      35.395   8.824  43.775  1.00  0.00     0.061 A 
HETATM   20  C22 UNL     1      35.494   9.779  44.802  1.00  0.00    -0.027 A 
HETATM   21  O1  UNL     1      34.282   7.741  42.158  1.00  0.00    -0.372 OA
HETATM   22  C23 UNL     1      33.990   6.599  43.053  1.00  0.00     0.207 C 
ENDROOT
BRANCH  12  23
HETATM   23  N2  UNL     1      31.523   7.145  48.550  1.00  0.00    -0.258 N 
HETATM   24  H11 UNL     1      31.712   6.442  49.269  1.00  0.00     0.191 HD
BRANCH  23  25
HETATM   25  C14 UNL     1      30.137   6.737  48.465  1.00  0.00     0.164 C 
HETATM   26  S1  UNL     1      28.690   7.110  47.856  1.00  0.00    -0.046 SA
BRANCH  25  27
HETATM   27  N3  UNL     1      30.476   5.637  49.313  1.00  0.00    -0.278 NA
HETATM   28  H12 UNL     1      31.197   5.362  49.990  1.00  0.00     0.126 HD
HETATM   29  H13 UNL     1      31.363   5.744  49.898  1.00  0.00     0.126 HD
ENDBRANCH  25  27
ENDBRANCH  23  25
ENDBRANCH  12  23
BRANCH   1  30
HETATM   30  C2  UNL     1      33.139   3.663  41.050  1.00  0.00    -0.010 C 
HETATM   31  C1  UNL     1      34.030   2.939  40.327  1.00  0.00     0.011 C 
ENDBRANCH   1  30
TORSDOF 4
ENDMDL
