MODEL 1
REMARK VINA RESULT:      -8.2      0.000      0.000
REMARK  4 active torsions:
REMARK  status: ('A' for Active; 'I' for Inactive)
REMARK    1  A    between atoms: O1_2  and  C2_3 
REMARK    2  A    between atoms: C2_3  and  C3_4 
REMARK    3  A    between atoms: C5_6  and  C6_7 
REMARK    4  A    between atoms: C9_10  and  O2_11 
ROOT
HETATM    1  C3  UNL     1      26.124   0.392  52.601  1.00  0.00     0.077 C 
HETATM    2  C4  UNL     1      24.884   0.604  53.011  1.00  0.00     0.020 C 
HETATM    3  C5  UNL     1      23.562   1.238  53.002  1.00  0.00     0.070 C 
HETATM    4  C12 UNL     1      23.192   1.757  51.606  1.00  0.00     0.223 C 
HETATM    5  O3  UNL     1      23.987   2.755  51.186  1.00  0.00    -0.235 OA
HETATM    6  O4  UNL     1      24.497   2.679  49.942  1.00  0.00    -0.210 OA
HETATM    7  C13 UNL     1      25.380   3.726  49.559  1.00  0.00     0.182 C 
HETATM    8  C14 UNL     1      26.446   3.482  50.349  1.00  0.00     0.109 C 
HETATM    9  C15 UNL     1      26.681   2.431  51.332  1.00  0.00     0.289 C 
HETATM   10  O5  UNL     1      27.705   2.383  52.063  1.00  0.00    -0.260 OA
HETATM   11  O6  UNL     1      25.917   1.351  51.651  1.00  0.00    -0.278 OA
ENDROOT
BRANCH   3  12
HETATM   12  C6  UNL     1      22.477   0.286  53.384  1.00  0.00    -0.048 A 
HETATM   13  C7  UNL     1      21.253   0.681  52.833  1.00  0.00     0.011 A 
HETATM   14  C8  UNL     1      20.089  -0.048  53.048  1.00  0.00     0.037 A 
HETATM   15  C9  UNL     1      20.184  -1.193  53.837  1.00  0.00     0.065 A 
HETATM   16  C10 UNL     1      21.399  -1.579  54.381  1.00  0.00     0.037 A 
HETATM   17  C11 UNL     1      22.536  -0.853  54.161  1.00  0.00     0.011 A 
BRANCH  15  18
HETATM   18  O2  UNL     1      19.058  -1.951  54.081  1.00  0.00    -0.361 OA
HETATM   19  H10 UNL     1      18.941  -2.439  54.961  1.00  0.00     0.217 HD
ENDBRANCH  15  18
ENDBRANCH   3  12
BRANCH   1  20
HETATM   20  C2  UNL     1      27.235  -0.507  53.003  1.00  0.00     0.231 C 
BRANCH  20  21
HETATM   21  O1  UNL     1      27.337  -0.601  54.386  1.00  0.00    -0.390 OA
HETATM   22  C1  UNL     1      28.487   0.101  54.731  1.00  0.00     0.201 C 
ENDBRANCH  20  21
ENDBRANCH   1  20
TORSDOF 4
ENDMDL
MODEL 2
REMARK VINA RESULT:      -8.1      1.396      3.689
REMARK  4 active torsions:
REMARK  status: ('A' for Active; 'I' for Inactive)
REMARK    1  A    between atoms: O1_2  and  C2_3 
REMARK    2  A    between atoms: C2_3  and  C3_4 
REMARK    3  A    between atoms: C5_6  and  C6_7 
REMARK    4  A    between atoms: C9_10  and  O2_11 
ROOT
HETATM    1  C3  UNL     1      25.015   2.442  52.327  1.00  0.00     0.077 C 
HETATM    2  C4  UNL     1      24.447   1.263  52.518  1.00  0.00     0.020 C 
HETATM    3  C5  UNL     1      24.349  -0.109  53.026  1.00  0.00     0.070 C 
HETATM    4  C12 UNL     1      25.182  -0.302  54.300  1.00  0.00     0.223 C 
HETATM    5  O3  UNL     1      26.503  -0.170  54.093  1.00  0.00    -0.235 OA
HETATM    6  O4  UNL     1      27.203   0.612  54.936  1.00  0.00    -0.210 OA
HETATM    7  C13 UNL     1      28.586   0.770  54.646  1.00  0.00     0.182 C 
HETATM    8  C14 UNL     1      28.541   1.498  53.511  1.00  0.00     0.109 C 
HETATM    9  C15 UNL     1      27.406   2.019  52.759  1.00  0.00     0.289 C 
HETATM   10  O5  UNL     1      27.520   2.616  51.657  1.00  0.00    -0.260 OA
HETATM   11  O6  UNL     1      26.077   1.987  53.055  1.00  0.00    -0.278 OA
ENDROOT
BRANCH   3  12
HETATM   12  C6  UNL     1      22.949  -0.476  53.394  1.00  0.00    -0.048 A 
HETATM   13  C7  UNL     1      22.034   0.124  52.523  1.00  0.00     0.011 A 
HETATM   14  C8  UNL     1      20.664  -0.068  52.661  1.00  0.00     0.037 A 
HETATM   15  C9  UNL     1      20.232  -0.884  53.705  1.00  0.00     0.065 A 
HETATM   16  C10 UNL     1      21.143  -1.475  54.565  1.00  0.00     0.037 A 
HETATM   17  C11 UNL     1      22.488  -1.279  54.417  1.00  0.00     0.011 A 
BRANCH  15  18
HETATM   18  O2  UNL     1      18.882  -1.105  53.886  1.00  0.00    -0.361 OA
HETATM   19  H10 UNL     1      18.548  -1.674  54.655  1.00  0.00     0.217 HD
ENDBRANCH  15  18
ENDBRANCH   3  12
BRANCH   1  20
HETATM   20  C2  UNL     1      24.643   3.700  51.631  1.00  0.00     0.231 C 
BRANCH  20  21
HETATM   21  O1  UNL     1      23.266   3.806  51.477  1.00  0.00    -0.390 OA
HETATM   22  C1  UNL     1      22.849   4.740  52.420  1.00  0.00     0.201 C 
ENDBRANCH  20  21
ENDBRANCH   1  20
TORSDOF 4
ENDMDL
MODEL 3
REMARK VINA RESULT:      -7.6      2.145      6.357
REMARK  4 active torsions:
REMARK  status: ('A' for Active; 'I' for Inactive)
REMARK    1  A    between atoms: O1_2  and  C2_3 
REMARK    2  A    between atoms: C2_3  and  C3_4 
REMARK    3  A    between atoms: C5_6  and  C6_7 
REMARK    4  A    between atoms: C9_10  and  O2_11 
ROOT
HETATM    1  C3  UNL     1      26.828   1.708  52.422  1.00  0.00     0.077 C 
HETATM    2  C4  UNL     1      26.430   2.360  51.342  1.00  0.00     0.020 C 
HETATM    3  C5  UNL     1      25.456   2.906  50.391  1.00  0.00     0.070 C 
HETATM    4  C12 UNL     1      24.106   3.190  51.064  1.00  0.00     0.223 C 
HETATM    5  O3  UNL     1      23.487   2.080  51.497  1.00  0.00    -0.235 OA
HETATM    6  O4  UNL     1      22.993   2.076  52.749  1.00  0.00    -0.210 OA
HETATM    7  C13 UNL     1      22.398   0.860  53.187  1.00  0.00     0.182 C 
HETATM    8  C14 UNL     1      23.473   0.050  53.273  1.00  0.00     0.109 C 
HETATM    9  C15 UNL     1      24.884   0.310  53.014  1.00  0.00     0.289 C 
HETATM   10  O5  UNL     1      25.772  -0.581  53.055  1.00  0.00    -0.260 OA
HETATM   11  O6  UNL     1      25.511   1.478  52.702  1.00  0.00    -0.278 OA
ENDROOT
BRANCH   3  12
HETATM   12  C6  UNL     1      25.904   4.206  49.808  1.00  0.00    -0.048 A 
HETATM   13  C7  UNL     1      27.132   4.059  49.154  1.00  0.00     0.011 A 
HETATM   14  C8  UNL     1      27.757   5.132  48.529  1.00  0.00     0.037 A 
HETATM   15  C9  UNL     1      27.113   6.367  48.578  1.00  0.00     0.065 A 
HETATM   16  C10 UNL     1      25.898   6.507  49.228  1.00  0.00     0.037 A 
HETATM   17  C11 UNL     1      25.294   5.442  49.838  1.00  0.00     0.011 A 
BRANCH  15  18
HETATM   18  O2  UNL     1      27.692   7.464  47.974  1.00  0.00    -0.361 OA
HETATM   19  H10 UNL     1      28.613   7.401  47.557  1.00  0.00     0.217 HD
ENDBRANCH  15  18
ENDBRANCH   3  12
BRANCH   1  20
HETATM   20  C2  UNL     1      28.136   1.384  53.045  1.00  0.00     0.231 C 
BRANCH  20  21
HETATM   21  O1  UNL     1      28.057   1.408  54.433  1.00  0.00    -0.390 OA
HETATM   22  C1  UNL     1      28.602   0.203  54.865  1.00  0.00     0.201 C 
ENDBRANCH  20  21
ENDBRANCH   1  20
TORSDOF 4
ENDMDL
MODEL 4
REMARK VINA RESULT:      -7.3      1.862      6.172
REMARK  4 active torsions:
REMARK  status: ('A' for Active; 'I' for Inactive)
REMARK    1  A    between atoms: O1_2  and  C2_3 
REMARK    2  A    between atoms: C2_3  and  C3_4 
REMARK    3  A    between atoms: C5_6  and  C6_7 
REMARK    4  A    between atoms: C9_10  and  O2_11 
ROOT
HETATM    1  C3  UNL     1      23.655   1.609  51.676  1.00  0.00     0.077 C 
HETATM    2  C4  UNL     1      24.487   1.147  52.595  1.00  0.00     0.020 C 
HETATM    3  C5  UNL     1      24.883   0.362  53.769  1.00  0.00     0.070 C 
HETATM    4  C12 UNL     1      23.994  -0.874  53.950  1.00  0.00     0.223 C 
HETATM    5  O3  UNL     1      22.717  -0.570  54.231  1.00  0.00    -0.235 OA
HETATM    6  O4  UNL     1      21.747  -1.193  53.535  1.00  0.00    -0.210 OA
HETATM    7  C13 UNL     1      20.412  -0.798  53.825  1.00  0.00     0.182 C 
HETATM    8  C14 UNL     1      20.390   0.457  53.332  1.00  0.00     0.109 C 
HETATM    9  C15 UNL     1      21.426   1.235  52.662  1.00  0.00     0.289 C 
HETATM   10  O5  UNL     1      21.282   2.441  52.333  1.00  0.00    -0.260 OA
HETATM   11  O6  UNL     1      22.675   0.864  52.268  1.00  0.00    -0.278 OA
ENDROOT
BRANCH   3  12
HETATM   12  C6  UNL     1      26.281  -0.152  53.658  1.00  0.00    -0.048 A 
HETATM   13  C7  UNL     1      27.128   0.519  54.547  1.00  0.00     0.011 A 
HETATM   14  C8  UNL     1      28.483   0.217  54.630  1.00  0.00     0.037 A 
HETATM   15  C9  UNL     1      28.970  -0.785  53.791  1.00  0.00     0.065 A 
HETATM   16  C10 UNL     1      28.126  -1.445  52.913  1.00  0.00     0.037 A 
HETATM   17  C11 UNL     1      26.796  -1.138  52.842  1.00  0.00     0.011 A 
BRANCH  15  18
HETATM   18  O2  UNL     1      30.307  -1.122  53.834  1.00  0.00    -0.361 OA
HETATM   19  H10 UNL     1      31.024  -0.411  53.761  1.00  0.00     0.217 HD
ENDBRANCH  15  18
ENDBRANCH   3  12
BRANCH   1  20
HETATM   20  C2  UNL     1      23.759   2.526  50.514  1.00  0.00     0.231 C 
BRANCH  20  21
HETATM   21  O1  UNL     1      24.640   3.571  50.769  1.00  0.00    -0.390 OA
HETATM   22  C1  UNL     1      23.864   4.605  51.283  1.00  0.00     0.201 C 
ENDBRANCH  20  21
ENDBRANCH   1  20
TORSDOF 4
ENDMDL
MODEL 5
REMARK VINA RESULT:      -7.2      2.070      5.461
REMARK  4 active torsions:
REMARK  status: ('A' for Active; 'I' for Inactive)
REMARK    1  A    between atoms: O1_2  and  C2_3 
REMARK    2  A    between atoms: C2_3  and  C3_4 
REMARK    3  A    between atoms: C5_6  and  C6_7 
REMARK    4  A    between atoms: C9_10  and  O2_11 
ROOT
HETATM    1  C3  UNL     1      21.803   1.051  52.999  1.00  0.00     0.077 C 
HETATM    2  C4  UNL     1      23.046   0.973  52.552  1.00  0.00     0.020 C 
HETATM    3  C5  UNL     1      24.282   1.472  51.940  1.00  0.00     0.070 C 
HETATM    4  C12 UNL     1      24.451   2.982  52.155  1.00  0.00     0.223 C 
HETATM    5  O3  UNL     1      23.512   3.713  51.533  1.00  0.00    -0.235 OA
HETATM    6  O4  UNL     1      22.893   4.681  52.234  1.00  0.00    -0.210 OA
HETATM    7  C13 UNL     1      21.865   5.391  51.555  1.00  0.00     0.182 C 
HETATM    8  C14 UNL     1      20.916   4.440  51.432  1.00  0.00     0.109 C 
HETATM    9  C15 UNL     1      20.899   3.051  51.875  1.00  0.00     0.289 C 
HETATM   10  O5  UNL     1      19.964   2.251  51.608  1.00  0.00    -0.260 OA
HETATM   11  O6  UNL     1      21.807   2.363  52.621  1.00  0.00    -0.278 OA
ENDROOT
BRANCH   3  12
HETATM   12  C6  UNL     1      25.499   0.836  52.527  1.00  0.00    -0.048 A 
HETATM   13  C7  UNL     1      25.682   1.247  53.852  1.00  0.00     0.011 A 
HETATM   14  C8  UNL     1      26.751   0.790  54.614  1.00  0.00     0.037 A 
HETATM   15  C9  UNL     1      27.639  -0.098  54.008  1.00  0.00     0.065 A 
HETATM   16  C10 UNL     1      27.452  -0.500  52.696  1.00  0.00     0.037 A 
HETATM   17  C11 UNL     1      26.396  -0.043  51.958  1.00  0.00     0.011 A 
BRANCH  15  18
HETATM   18  O2  UNL     1      28.717  -0.580  54.722  1.00  0.00    -0.361 OA
HETATM   19  H10 UNL     1      29.659  -0.490  54.362  1.00  0.00     0.217 HD
ENDBRANCH  15  18
ENDBRANCH   3  12
BRANCH   1  20
HETATM   20  C2  UNL     1      20.844   0.115  53.638  1.00  0.00     0.231 C 
BRANCH  20  21
HETATM   21  O1  UNL     1      21.331  -0.363  54.848  1.00  0.00    -0.390 OA
HETATM   22  C1  UNL     1      21.644  -1.701  54.631  1.00  0.00     0.201 C 
ENDBRANCH  20  21
ENDBRANCH   1  20
TORSDOF 4
ENDMDL
MODEL 6
REMARK VINA RESULT:      -7.2      1.962      5.304
REMARK  4 active torsions:
REMARK  status: ('A' for Active; 'I' for Inactive)
REMARK    1  A    between atoms: O1_2  and  C2_3 
REMARK    2  A    between atoms: C2_3  and  C3_4 
REMARK    3  A    between atoms: C5_6  and  C6_7 
REMARK    4  A    between atoms: C9_10  and  O2_11 
ROOT
HETATM    1  C3  UNL     1      24.727   0.135  53.443  1.00  0.00     0.077 C 
HETATM    2  C4  UNL     1      24.767   1.312  52.840  1.00  0.00     0.020 C 
HETATM    3  C5  UNL     1      25.402   2.521  52.306  1.00  0.00     0.070 C 
HETATM    4  C12 UNL     1      26.863   2.266  51.913  1.00  0.00     0.223 C 
HETATM    5  O3  UNL     1      27.649   1.974  52.962  1.00  0.00    -0.235 OA
HETATM    6  O4  UNL     1      28.469   0.911  52.864  1.00  0.00    -0.210 OA
HETATM    7  C13 UNL     1      29.240   0.602  54.019  1.00  0.00     0.182 C 
HETATM    8  C14 UNL     1      28.286   0.182  54.875  1.00  0.00     0.109 C 
HETATM    9  C15 UNL     1      26.845   0.047  54.702  1.00  0.00     0.289 C 
HETATM   10  O5  UNL     1      26.064  -0.281  55.633  1.00  0.00    -0.260 OA
HETATM   11  O6  UNL     1      26.081   0.224  53.589  1.00  0.00    -0.278 OA
ENDROOT
BRANCH   3  12
HETATM   12  C6  UNL     1      24.726   3.014  51.069  1.00  0.00    -0.048 A 
HETATM   13  C7  UNL     1      23.620   2.216  50.757  1.00  0.00     0.011 A 
HETATM   14  C8  UNL     1      22.826   2.475  49.645  1.00  0.00     0.037 A 
HETATM   15  C9  UNL     1      23.174   3.564  48.848  1.00  0.00     0.065 A 
HETATM   16  C10 UNL     1      24.270   4.350  49.161  1.00  0.00     0.037 A 
HETATM   17  C11 UNL     1      25.042   4.084  50.258  1.00  0.00     0.011 A 
BRANCH  15  18
HETATM   18  O2  UNL     1      22.419   3.863  47.733  1.00  0.00    -0.361 OA
HETATM   19  H10 UNL     1      22.734   4.554  47.063  1.00  0.00     0.217 HD
ENDBRANCH  15  18
ENDBRANCH   3  12
BRANCH   1  20
HETATM   20  C2  UNL     1      23.666  -0.843  53.792  1.00  0.00     0.231 C 
BRANCH  20  21
HETATM   21  O1  UNL     1      22.400  -0.343  53.509  1.00  0.00    -0.390 OA
HETATM   22  C1  UNL     1      21.657  -0.507  54.674  1.00  0.00     0.201 C 
ENDBRANCH  20  21
ENDBRANCH   1  20
TORSDOF 4
ENDMDL
MODEL 7
REMARK VINA RESULT:      -6.8      2.225      6.582
REMARK  4 active torsions:
REMARK  status: ('A' for Active; 'I' for Inactive)
REMARK    1  A    between atoms: O1_2  and  C2_3 
REMARK    2  A    between atoms: C2_3  and  C3_4 
REMARK    3  A    between atoms: C5_6  and  C6_7 
REMARK    4  A    between atoms: C9_10  and  O2_11 
ROOT
HETATM    1  C3  UNL     1      21.106   0.644  50.618  1.00  0.00     0.077 C 
HETATM    2  C4  UNL     1      21.871   0.708  51.695  1.00  0.00     0.020 C 
HETATM    3  C5  UNL     1      22.216   0.502  53.106  1.00  0.00     0.070 C 
HETATM    4  C12 UNL     1      21.476  -0.703  53.700  1.00  0.00     0.223 C 
HETATM    5  O3  UNL     1      20.145  -0.530  53.757  1.00  0.00    -0.235 OA
HETATM    6  O4  UNL     1      19.356  -1.521  53.301  1.00  0.00    -0.210 OA
HETATM    7  C13 UNL     1      17.956  -1.272  53.326  1.00  0.00     0.182 C 
HETATM    8  C14 UNL     1      17.835  -0.317  52.380  1.00  0.00     0.109 C 
HETATM    9  C15 UNL     1      18.838   0.309  51.527  1.00  0.00     0.289 C 
HETATM   10  O5  UNL     1      18.583   1.259  50.742  1.00  0.00    -0.260 OA
HETATM   11  O6  UNL     1      20.163   0.028  51.390  1.00  0.00    -0.278 OA
ENDROOT
BRANCH   3  12
HETATM   12  C6  UNL     1      23.671   0.223  53.295  1.00  0.00    -0.048 A 
HETATM   13  C7  UNL     1      24.436   0.911  52.348  1.00  0.00     0.011 A 
HETATM   14  C8  UNL     1      25.822   0.811  52.319  1.00  0.00     0.037 A 
HETATM   15  C9  UNL     1      26.427  -0.005  53.274  1.00  0.00     0.065 A 
HETATM   16  C10 UNL     1      25.664  -0.685  54.210  1.00  0.00     0.037 A 
HETATM   17  C11 UNL     1      24.301  -0.576  54.227  1.00  0.00     0.011 A 
BRANCH  15  18
HETATM   18  O2  UNL     1      27.800  -0.139  53.288  1.00  0.00    -0.361 OA
HETATM   19  H10 UNL     1      28.251  -0.905  52.805  1.00  0.00     0.217 HD
ENDBRANCH  15  18
ENDBRANCH   3  12
BRANCH   1  20
HETATM   20  C2  UNL     1      21.235   1.058  49.198  1.00  0.00     0.231 C 
BRANCH  20  21
HETATM   21  O1  UNL     1      22.422   1.746  48.976  1.00  0.00    -0.390 OA
HETATM   22  C1  UNL     1      22.415   2.090  47.628  1.00  0.00     0.201 C 
ENDBRANCH  20  21
ENDBRANCH   1  20
TORSDOF 4
ENDMDL
MODEL 8
REMARK VINA RESULT:      -6.7      3.379      5.937
REMARK  4 active torsions:
REMARK  status: ('A' for Active; 'I' for Inactive)
REMARK    1  A    between atoms: O1_2  and  C2_3 
REMARK    2  A    between atoms: C2_3  and  C3_4 
REMARK    3  A    between atoms: C5_6  and  C6_7 
REMARK    4  A    between atoms: C9_10  and  O2_11 
ROOT
HETATM    1  C3  UNL     1      19.631   3.022  51.632  1.00  0.00     0.077 C 
HETATM    2  C4  UNL     1      20.712   2.276  51.783  1.00  0.00     0.020 C 
HETATM    3  C5  UNL     1      22.152   2.004  51.853  1.00  0.00     0.070 C 
HETATM    4  C12 UNL     1      22.941   3.243  52.297  1.00  0.00     0.223 C 
HETATM    5  O3  UNL     1      22.885   4.250  51.411  1.00  0.00    -0.235 OA
HETATM    6  O4  UNL     1      22.602   5.484  51.869  1.00  0.00    -0.210 OA
HETATM    7  C13 UNL     1      22.495   6.510  50.889  1.00  0.00     0.182 C 
HETATM    8  C14 UNL     1      21.366   6.150  50.244  1.00  0.00     0.109 C 
HETATM    9  C15 UNL     1      20.460   5.030  50.466  1.00  0.00     0.289 C 
HETATM   10  O5  UNL     1      19.481   4.772  49.717  1.00  0.00    -0.260 OA
HETATM   11  O6  UNL     1      20.459   4.092  51.452  1.00  0.00    -0.278 OA
ENDROOT
BRANCH   3  12
HETATM   12  C6  UNL     1      22.477   0.936  52.844  1.00  0.00    -0.048 A 
HETATM   13  C7  UNL     1      21.348   0.597  53.597  1.00  0.00     0.011 A 
HETATM   14  C8  UNL     1      21.399  -0.377  54.588  1.00  0.00     0.037 A 
HETATM   15  C9  UNL     1      22.622  -1.008  54.806  1.00  0.00     0.065 A 
HETATM   16  C10 UNL     1      23.737  -0.668  54.057  1.00  0.00     0.037 A 
HETATM   17  C11 UNL     1      23.673   0.291  53.085  1.00  0.00     0.011 A 
BRANCH  15  18
HETATM   18  O2  UNL     1      22.726  -1.981  55.778  1.00  0.00    -0.361 OA
HETATM   19  H10 UNL     1      22.617  -1.749  56.758  1.00  0.00     0.217 HD
ENDBRANCH  15  18
ENDBRANCH   3  12
BRANCH   1  20
HETATM   20  C2  UNL     1      18.165   2.785  51.659  1.00  0.00     0.231 C 
BRANCH  20  21
HETATM   21  O1  UNL     1      17.484   3.873  52.191  1.00  0.00    -0.390 OA
HETATM   22  C1  UNL     1      16.272   3.933  51.510  1.00  0.00     0.201 C 
ENDBRANCH  20  21
ENDBRANCH   1  20
TORSDOF 4
ENDMDL
MODEL 9
REMARK VINA RESULT:      -6.6      3.017      5.316
REMARK  4 active torsions:
REMARK  status: ('A' for Active; 'I' for Inactive)
REMARK    1  A    between atoms: O1_2  and  C2_3 
REMARK    2  A    between atoms: C2_3  and  C3_4 
REMARK    3  A    between atoms: C5_6  and  C6_7 
REMARK    4  A    between atoms: C9_10  and  O2_11 
ROOT
HETATM    1  C3  UNL     1      25.624   4.703  49.342  1.00  0.00     0.077 C 
HETATM    2  C4  UNL     1      25.290   3.886  50.326  1.00  0.00     0.020 C 
HETATM    3  C5  UNL     1      24.399   3.012  51.096  1.00  0.00     0.070 C 
HETATM    4  C12 UNL     1      23.304   2.400  50.212  1.00  0.00     0.223 C 
HETATM    5  O3  UNL     1      22.451   3.312  49.720  1.00  0.00    -0.235 OA
HETATM    6  O4  UNL     1      22.160   3.266  48.407  1.00  0.00    -0.210 OA
HETATM    7  C13 UNL     1      21.298   4.286  47.917  1.00  0.00     0.182 C 
HETATM    8  C14 UNL     1      22.084   5.377  48.024  1.00  0.00     0.109 C 
HETATM    9  C15 UNL     1      23.457   5.518  48.493  1.00  0.00     0.289 C 
HETATM   10  O5  UNL     1      24.036   6.629  48.617  1.00  0.00    -0.260 OA
HETATM   11  O6  UNL     1      24.353   4.562  48.865  1.00  0.00    -0.278 OA
ENDROOT
BRANCH   3  12
HETATM   12  C6  UNL     1      25.126   1.858  51.704  1.00  0.00    -0.048 A 
HETATM   13  C7  UNL     1      24.265   1.089  52.494  1.00  0.00     0.011 A 
HETATM   14  C8  UNL     1      24.710  -0.043  53.167  1.00  0.00     0.037 A 
HETATM   15  C9  UNL     1      26.053  -0.386  53.027  1.00  0.00     0.065 A 
HETATM   16  C10 UNL     1      26.902   0.379  52.243  1.00  0.00     0.037 A 
HETATM   17  C11 UNL     1      26.450   1.489  51.586  1.00  0.00     0.011 A 
BRANCH  15  18
HETATM   18  O2  UNL     1      26.545  -1.500  53.675  1.00  0.00    -0.361 OA
HETATM   19  H10 UNL     1      26.965  -1.423  54.594  1.00  0.00     0.217 HD
ENDBRANCH  15  18
ENDBRANCH   3  12
BRANCH   1  20
HETATM   20  C2  UNL     1      26.852   5.437  48.941  1.00  0.00     0.231 C 
BRANCH  20  21
HETATM   21  O1  UNL     1      27.884   4.563  48.623  1.00  0.00    -0.390 OA
HETATM   22  C1  UNL     1      28.958   5.364  48.246  1.00  0.00     0.201 C 
ENDBRANCH  20  21
ENDBRANCH   1  20
TORSDOF 4
ENDMDL
