MODEL 1
REMARK VINA RESULT:      -8.0      0.000      0.000
REMARK  6 active torsions:
REMARK  status: ('A' for Active; 'I' for Inactive)
REMARK    1  A    between atoms: C3_3  and  C4_4 
REMARK    2  A    between atoms: C4_4  and  C5_5 
REMARK    3  A    between atoms: C5_5  and  O1_6 
REMARK    4  A    between atoms: C6_7  and  O2_8 
REMARK    5  A    between atoms: C8_11  and  C9_12 
REMARK    6  A    between atoms: C12_15  and  O4_16 
ROOT
HETATM    1  C1  UNL     1      26.557   1.174  51.858  1.00  0.00     0.050 C 
HETATM    2  C2  UNL     1      25.945   0.518  52.824  1.00  0.00     0.027 A 
HETATM    3  C3  UNL     1      26.725  -0.040  53.807  1.00  0.00     0.087 A 
HETATM    4  O3  UNL     1      26.027  -0.671  54.720  1.00  0.00    -0.321 OA
HETATM    5  C7  UNL     1      24.727  -0.778  54.728  1.00  0.00     0.159 A 
HETATM    6  C8  UNL     1      23.945  -0.223  53.750  1.00  0.00     0.047 A 
HETATM    7  C15 UNL     1      24.573   0.466  52.735  1.00  0.00     0.194 A 
HETATM    8  O5  UNL     1      23.955   1.015  51.786  1.00  0.00    -0.287 OA
ENDROOT
BRANCH   6   9
HETATM    9  C9  UNL     1      22.503  -0.333  53.742  1.00  0.00    -0.020 A 
HETATM   10  C10 UNL     1      22.012  -1.582  54.121  1.00  0.00     0.015 A 
HETATM   11  C11 UNL     1      20.623  -1.720  54.124  1.00  0.00     0.037 A 
HETATM   12  C12 UNL     1      19.787  -0.676  53.771  1.00  0.00     0.065 A 
HETATM   13  C13 UNL     1      20.314   0.545  53.403  1.00  0.00     0.037 A 
HETATM   14  C14 UNL     1      21.674   0.718  53.388  1.00  0.00     0.015 A 
BRANCH  12  15
HETATM   15  O4  UNL     1      18.404  -0.775  53.762  1.00  0.00    -0.361 OA
HETATM   16  H10 UNL     1      17.937  -0.427  52.935  1.00  0.00     0.217 HD
ENDBRANCH  12  15
ENDBRANCH   6   9
BRANCH   3  17
HETATM   17  C4  UNL     1      28.030  -0.004  53.912  1.00  0.00     0.076 C 
BRANCH  17  18
HETATM   18  C5  UNL     1      28.944  -1.101  53.662  1.00  0.00     0.089 C 
HETATM   19  C6  UNL     1      30.212  -0.826  53.405  1.00  0.00     0.167 C 
BRANCH  18  20
HETATM   20  O1  UNL     1      29.275  -2.437  53.523  1.00  0.00    -0.359 OA
HETATM   21  H4  UNL     1      29.023  -3.020  52.732  1.00  0.00     0.217 HD
ENDBRANCH  18  20
BRANCH  19  22
HETATM   22  O2  UNL     1      30.289   0.580  53.459  1.00  0.00    -0.370 OA
HETATM   23  H6  UNL     1      29.733   0.998  54.224  1.00  0.00     0.216 HD
ENDBRANCH  19  22
ENDBRANCH  17  18
ENDBRANCH   3  17
TORSDOF 6
ENDMDL
MODEL 2
REMARK VINA RESULT:      -7.7      1.488      7.376
REMARK  6 active torsions:
REMARK  status: ('A' for Active; 'I' for Inactive)
REMARK    1  A    between atoms: C3_3  and  C4_4 
REMARK    2  A    between atoms: C4_4  and  C5_5 
REMARK    3  A    between atoms: C5_5  and  O1_6 
REMARK    4  A    between atoms: C6_7  and  O2_8 
REMARK    5  A    between atoms: C8_11  and  C9_12 
REMARK    6  A    between atoms: C12_15  and  O4_16 
ROOT
HETATM    1  C1  UNL     1      22.289  -1.193  54.965  1.00  0.00     0.050 C 
HETATM    2  C2  UNL     1      22.983  -0.490  54.093  1.00  0.00     0.027 A 
HETATM    3  C3  UNL     1      22.285   0.219  53.147  1.00  0.00     0.087 A 
HETATM    4  O3  UNL     1      23.063   0.883  52.325  1.00  0.00    -0.321 OA
HETATM    5  C7  UNL     1      24.366   0.894  52.371  1.00  0.00     0.159 A 
HETATM    6  C8  UNL     1      25.066   0.187  53.312  1.00  0.00     0.047 A 
HETATM    7  C15 UNL     1      24.351  -0.551  54.232  1.00  0.00     0.194 A 
HETATM    8  O5  UNL     1      24.890  -1.236  55.139  1.00  0.00    -0.287 OA
ENDROOT
BRANCH   6   9
HETATM    9  C9  UNL     1      26.512   0.186  53.377  1.00  0.00    -0.020 A 
HETATM   10  C10 UNL     1      27.078   1.407  53.742  1.00  0.00     0.015 A 
HETATM   11  C11 UNL     1      28.472   1.439  53.814  1.00  0.00     0.037 A 
HETATM   12  C12 UNL     1      29.241   0.323  53.539  1.00  0.00     0.065 A 
HETATM   13  C13 UNL     1      28.640  -0.867  53.182  1.00  0.00     0.037 A 
HETATM   14  C14 UNL     1      27.273  -0.936  53.101  1.00  0.00     0.015 A 
BRANCH  12  15
HETATM   15  O4  UNL     1      30.626   0.315  53.600  1.00  0.00    -0.361 OA
HETATM   16  H10 UNL     1      31.108   0.850  52.889  1.00  0.00     0.217 HD
ENDBRANCH  12  15
ENDBRANCH   6   9
BRANCH   3  17
HETATM   17  C4  UNL     1      20.986   0.292  52.996  1.00  0.00     0.076 C 
BRANCH  17  18
HETATM   18  C5  UNL     1      20.224   1.481  52.668  1.00  0.00     0.089 C 
HETATM   19  C6  UNL     1      19.211   1.373  51.824  1.00  0.00     0.167 C 
BRANCH  18  20
HETATM   20  O1  UNL     1      19.925   2.829  52.750  1.00  0.00    -0.359 OA
HETATM   21  H4  UNL     1      18.988   3.218  52.744  1.00  0.00     0.217 HD
ENDBRANCH  18  20
BRANCH  19  22
HETATM   22  O2  UNL     1      19.183   0.009  51.473  1.00  0.00    -0.370 OA
HETATM   23  H6  UNL     1      20.043  -0.317  51.000  1.00  0.00     0.216 HD
ENDBRANCH  19  22
ENDBRANCH  17  18
ENDBRANCH   3  17
TORSDOF 6
ENDMDL
MODEL 3
REMARK VINA RESULT:      -7.7      3.144      6.758
REMARK  6 active torsions:
REMARK  status: ('A' for Active; 'I' for Inactive)
REMARK    1  A    between atoms: C3_3  and  C4_4 
REMARK    2  A    between atoms: C4_4  and  C5_5 
REMARK    3  A    between atoms: C5_5  and  O1_6 
REMARK    4  A    between atoms: C6_7  and  O2_8 
REMARK    5  A    between atoms: C8_11  and  C9_12 
REMARK    6  A    between atoms: C12_15  and  O4_16 
ROOT
HETATM    1  C1  UNL     1      23.029   2.771  52.690  1.00  0.00     0.050 C 
HETATM    2  C2  UNL     1      24.215   2.544  52.161  1.00  0.00     0.027 A 
HETATM    3  C3  UNL     1      24.699   3.463  51.263  1.00  0.00     0.087 A 
HETATM    4  O3  UNL     1      25.882   3.148  50.793  1.00  0.00    -0.321 OA
HETATM    5  C7  UNL     1      26.559   2.082  51.121  1.00  0.00     0.159 A 
HETATM    6  C8  UNL     1      26.080   1.163  52.016  1.00  0.00     0.047 A 
HETATM    7  C15 UNL     1      24.841   1.390  52.576  1.00  0.00     0.194 A 
HETATM    8  O5  UNL     1      24.305   0.613  53.408  1.00  0.00    -0.287 OA
ENDROOT
BRANCH   6   9
HETATM    9  C9  UNL     1      26.816  -0.025  52.390  1.00  0.00    -0.020 A 
HETATM   10  C10 UNL     1      27.965   0.216  53.142  1.00  0.00     0.015 A 
HETATM   11  C11 UNL     1      28.698  -0.911  53.520  1.00  0.00     0.037 A 
HETATM   12  C12 UNL     1      28.305  -2.188  53.165  1.00  0.00     0.065 A 
HETATM   13  C13 UNL     1      27.160  -2.383  52.420  1.00  0.00     0.037 A 
HETATM   14  C14 UNL     1      26.414  -1.300  52.030  1.00  0.00     0.015 A 
BRANCH  12  15
HETATM   15  O4  UNL     1      29.006  -3.330  53.521  1.00  0.00    -0.361 OA
HETATM   16  H10 UNL     1      29.480  -3.304  54.414  1.00  0.00     0.217 HD
ENDBRANCH  12  15
ENDBRANCH   6   9
BRANCH   3  17
HETATM   17  C4  UNL     1      24.122   4.565  50.854  1.00  0.00     0.076 C 
BRANCH  17  18
HETATM   18  C5  UNL     1      24.477   5.916  51.242  1.00  0.00     0.089 C 
HETATM   19  C6  UNL     1      25.173   6.657  50.395  1.00  0.00     0.167 C 
BRANCH  18  20
HETATM   20  O1  UNL     1      24.503   6.997  52.104  1.00  0.00    -0.359 OA
HETATM   21  H4  UNL     1      24.141   6.995  53.051  1.00  0.00     0.217 HD
ENDBRANCH  18  20
BRANCH  19  22
HETATM   22  O2  UNL     1      25.371   5.826  49.274  1.00  0.00    -0.370 OA
HETATM   23  H6  UNL     1      26.344   5.493  49.170  1.00  0.00     0.216 HD
ENDBRANCH  19  22
ENDBRANCH  17  18
ENDBRANCH   3  17
TORSDOF 6
ENDMDL
MODEL 4
REMARK VINA RESULT:      -7.6      1.443      7.029
REMARK  6 active torsions:
REMARK  status: ('A' for Active; 'I' for Inactive)
REMARK    1  A    between atoms: C3_3  and  C4_4 
REMARK    2  A    between atoms: C4_4  and  C5_5 
REMARK    3  A    between atoms: C5_5  and  O1_6 
REMARK    4  A    between atoms: C6_7  and  O2_8 
REMARK    5  A    between atoms: C8_11  and  C9_12 
REMARK    6  A    between atoms: C12_15  and  O4_16 
ROOT
HETATM    1  C1  UNL     1      22.386   1.952  51.783  1.00  0.00     0.050 C 
HETATM    2  C2  UNL     1      22.839   1.044  52.625  1.00  0.00     0.027 A 
HETATM    3  C3  UNL     1      21.918   0.353  53.372  1.00  0.00     0.087 A 
HETATM    4  O3  UNL     1      22.466  -0.524  54.179  1.00  0.00    -0.321 OA
HETATM    5  C7  UNL     1      23.747  -0.746  54.287  1.00  0.00     0.159 A 
HETATM    6  C8  UNL     1      24.669  -0.058  53.544  1.00  0.00     0.047 A 
HETATM    7  C15 UNL     1      24.207   0.893  52.659  1.00  0.00     0.194 A 
HETATM    8  O5  UNL     1      24.964   1.583  51.927  1.00  0.00    -0.287 OA
ENDROOT
BRANCH   6   9
HETATM    9  C9  UNL     1      26.093  -0.290  53.651  1.00  0.00    -0.020 A 
HETATM   10  C10 UNL     1      26.592  -1.257  52.780  1.00  0.00     0.015 A 
HETATM   11  C11 UNL     1      27.964  -1.504  52.859  1.00  0.00     0.037 A 
HETATM   12  C12 UNL     1      28.775  -0.827  53.750  1.00  0.00     0.065 A 
HETATM   13  C13 UNL     1      28.241   0.124  54.595  1.00  0.00     0.037 A 
HETATM   14  C14 UNL     1      26.897   0.394  54.547  1.00  0.00     0.015 A 
BRANCH  12  15
HETATM   15  O4  UNL     1      30.141  -1.044  53.858  1.00  0.00    -0.361 OA
HETATM   16  H10 UNL     1      30.438  -2.009  53.901  1.00  0.00     0.217 HD
ENDBRANCH  12  15
ENDBRANCH   6   9
BRANCH   3  17
HETATM   17  C4  UNL     1      20.615   0.480  53.357  1.00  0.00     0.076 C 
BRANCH  17  18
HETATM   18  C5  UNL     1      19.645  -0.593  53.459  1.00  0.00     0.089 C 
HETATM   19  C6  UNL     1      18.585  -0.569  52.669  1.00  0.00     0.167 C 
BRANCH  18  20
HETATM   20  O1  UNL     1      19.144  -1.770  53.984  1.00  0.00    -0.359 OA
HETATM   21  H4  UNL     1      19.319  -2.110  54.923  1.00  0.00     0.217 HD
ENDBRANCH  18  20
BRANCH  19  22
HETATM   22  O2  UNL     1      18.741   0.602  51.899  1.00  0.00    -0.370 OA
HETATM   23  H6  UNL     1      19.716   0.945  51.857  1.00  0.00     0.216 HD
ENDBRANCH  19  22
ENDBRANCH  17  18
ENDBRANCH   3  17
TORSDOF 6
ENDMDL
MODEL 5
REMARK VINA RESULT:      -7.3      4.003      5.697
REMARK  6 active torsions:
REMARK  status: ('A' for Active; 'I' for Inactive)
REMARK    1  A    between atoms: C3_3  and  C4_4 
REMARK    2  A    between atoms: C4_4  and  C5_5 
REMARK    3  A    between atoms: C5_5  and  O1_6 
REMARK    4  A    between atoms: C6_7  and  O2_8 
REMARK    5  A    between atoms: C8_11  and  C9_12 
REMARK    6  A    between atoms: C12_15  and  O4_16 
ROOT
HETATM    1  C1  UNL     1      23.497   3.375  48.800  1.00  0.00     0.050 C 
HETATM    2  C2  UNL     1      23.565   3.361  50.116  1.00  0.00     0.027 A 
HETATM    3  C3  UNL     1      24.177   4.424  50.732  1.00  0.00     0.087 A 
HETATM    4  O3  UNL     1      24.196   4.318  52.040  1.00  0.00    -0.321 OA
HETATM    5  C7  UNL     1      23.695   3.323  52.719  1.00  0.00     0.159 A 
HETATM    6  C8  UNL     1      23.084   2.261  52.107  1.00  0.00     0.047 A 
HETATM    7  C15 UNL     1      23.005   2.264  50.731  1.00  0.00     0.194 A 
HETATM    8  O5  UNL     1      22.467   1.342  50.067  1.00  0.00    -0.287 OA
ENDROOT
BRANCH   6   9
HETATM    9  C9  UNL     1      22.524   1.149  52.844  1.00  0.00    -0.020 A 
HETATM   10  C10 UNL     1      21.172   1.281  53.158  1.00  0.00     0.015 A 
HETATM   11  C11 UNL     1      20.602   0.223  53.869  1.00  0.00     0.037 A 
HETATM   12  C12 UNL     1      21.338  -0.887  54.237  1.00  0.00     0.065 A 
HETATM   13  C13 UNL     1      22.674  -0.980  53.905  1.00  0.00     0.037 A 
HETATM   14  C14 UNL     1      23.269   0.040  53.207  1.00  0.00     0.015 A 
BRANCH  12  15
HETATM   15  O4  UNL     1      20.807  -1.957  54.942  1.00  0.00    -0.361 OA
HETATM   16  H10 UNL     1      20.025  -2.432  54.512  1.00  0.00     0.217 HD
ENDBRANCH  12  15
ENDBRANCH   6   9
BRANCH   3  17
HETATM   17  C4  UNL     1      24.715   5.477  50.169  1.00  0.00     0.076 C 
BRANCH  17  18
HETATM   18  C5  UNL     1      24.705   6.830  50.690  1.00  0.00     0.089 C 
HETATM   19  C6  UNL     1      25.761   7.599  50.482  1.00  0.00     0.167 C 
BRANCH  18  20
HETATM   20  O1  UNL     1      24.144   7.899  51.365  1.00  0.00    -0.359 OA
HETATM   21  H4  UNL     1      24.557   8.361  52.167  1.00  0.00     0.217 HD
ENDBRANCH  18  20
BRANCH  19  22
HETATM   22  O2  UNL     1      26.652   6.789  49.750  1.00  0.00    -0.370 OA
HETATM   23  H6  UNL     1      27.633   6.855  50.070  1.00  0.00     0.216 HD
ENDBRANCH  19  22
ENDBRANCH  17  18
ENDBRANCH   3  17
TORSDOF 6
ENDMDL
MODEL 6
REMARK VINA RESULT:      -7.3      2.256      3.137
REMARK  6 active torsions:
REMARK  status: ('A' for Active; 'I' for Inactive)
REMARK    1  A    between atoms: C3_3  and  C4_4 
REMARK    2  A    between atoms: C4_4  and  C5_5 
REMARK    3  A    between atoms: C5_5  and  O1_6 
REMARK    4  A    between atoms: C6_7  and  O2_8 
REMARK    5  A    between atoms: C8_11  and  C9_12 
REMARK    6  A    between atoms: C12_15  and  O4_16 
ROOT
HETATM    1  C1  UNL     1      25.465  -0.786  54.288  1.00  0.00     0.050 C 
HETATM    2  C2  UNL     1      25.103   0.065  53.348  1.00  0.00     0.027 A 
HETATM    3  C3  UNL     1      26.097   0.735  52.679  1.00  0.00     0.087 A 
HETATM    4  O3  UNL     1      25.637   1.557  51.766  1.00  0.00    -0.321 OA
HETATM    5  C7  UNL     1      24.375   1.746  51.494  1.00  0.00     0.159 A 
HETATM    6  C8  UNL     1      23.381   1.080  52.160  1.00  0.00     0.047 A 
HETATM    7  C15 UNL     1      23.747   0.187  53.144  1.00  0.00     0.194 A 
HETATM    8  O5  UNL     1      22.918  -0.478  53.818  1.00  0.00    -0.287 OA
ENDROOT
BRANCH   6   9
HETATM    9  C9  UNL     1      21.977   1.277  51.872  1.00  0.00    -0.020 A 
HETATM   10  C10 UNL     1      21.422   2.422  52.443  1.00  0.00     0.015 A 
HETATM   11  C11 UNL     1      20.067   2.641  52.184  1.00  0.00     0.037 A 
HETATM   12  C12 UNL     1      19.325   1.771  51.407  1.00  0.00     0.065 A 
HETATM   13  C13 UNL     1      19.913   0.649  50.860  1.00  0.00     0.037 A 
HETATM   14  C14 UNL     1      21.242   0.401  51.093  1.00  0.00     0.015 A 
BRANCH  12  15
HETATM   15  O4  UNL     1      17.979   1.954  51.128  1.00  0.00    -0.361 OA
HETATM   16  H10 UNL     1      17.556   1.278  50.505  1.00  0.00     0.217 HD
ENDBRANCH  12  15
ENDBRANCH   6   9
BRANCH   3  17
HETATM   17  C4  UNL     1      27.391   0.635  52.855  1.00  0.00     0.076 C 
BRANCH  17  18
HETATM   18  C5  UNL     1      28.298   1.715  53.190  1.00  0.00     0.089 C 
HETATM   19  C6  UNL     1      29.120   1.559  54.215  1.00  0.00     0.167 C 
BRANCH  18  20
HETATM   20  O1  UNL     1      28.855   2.970  53.022  1.00  0.00    -0.359 OA
HETATM   21  H4  UNL     1      28.567   3.644  52.321  1.00  0.00     0.217 HD
ENDBRANCH  18  20
BRANCH  19  22
HETATM   22  O2  UNL     1      28.833   0.271  54.709  1.00  0.00    -0.370 OA
HETATM   23  H6  UNL     1      29.237  -0.493  54.140  1.00  0.00     0.216 HD
ENDBRANCH  19  22
ENDBRANCH  17  18
ENDBRANCH   3  17
TORSDOF 6
ENDMDL
MODEL 7
REMARK VINA RESULT:      -7.2      2.117      2.423
REMARK  6 active torsions:
REMARK  status: ('A' for Active; 'I' for Inactive)
REMARK    1  A    between atoms: C3_3  and  C4_4 
REMARK    2  A    between atoms: C4_4  and  C5_5 
REMARK    3  A    between atoms: C5_5  and  O1_6 
REMARK    4  A    between atoms: C6_7  and  O2_8 
REMARK    5  A    between atoms: C8_11  and  C9_12 
REMARK    6  A    between atoms: C12_15  and  O4_16 
ROOT
HETATM    1  C1  UNL     1      26.416   2.555  50.821  1.00  0.00     0.050 C 
HETATM    2  C2  UNL     1      25.612   1.818  51.562  1.00  0.00     0.027 A 
HETATM    3  C3  UNL     1      26.188   0.942  52.448  1.00  0.00     0.087 A 
HETATM    4  O3  UNL     1      25.307   0.256  53.136  1.00  0.00    -0.321 OA
HETATM    5  C7  UNL     1      24.012   0.366  53.019  1.00  0.00     0.159 A 
HETATM    6  C8  UNL     1      23.434   1.239  52.136  1.00  0.00     0.047 A 
HETATM    7  C15 UNL     1      24.265   2.015  51.357  1.00  0.00     0.194 A 
HETATM    8  O5  UNL     1      23.843   2.849  50.514  1.00  0.00    -0.287 OA
ENDROOT
BRANCH   6   9
HETATM    9  C9  UNL     1      22.001   1.374  51.992  1.00  0.00    -0.020 A 
HETATM   10  C10 UNL     1      21.382   0.319  51.324  1.00  0.00     0.015 A 
HETATM   11  C11 UNL     1      19.998   0.420  51.168  1.00  0.00     0.037 A 
HETATM   12  C12 UNL     1      19.289   1.504  51.650  1.00  0.00     0.065 A 
HETATM   13  C13 UNL     1      19.940   2.528  52.306  1.00  0.00     0.037 A 
HETATM   14  C14 UNL     1      21.299   2.464  52.478  1.00  0.00     0.015 A 
BRANCH  12  15
HETATM   15  O4  UNL     1      17.915   1.640  51.515  1.00  0.00    -0.361 OA
HETATM   16  H10 UNL     1      17.487   2.395  52.034  1.00  0.00     0.217 HD
ENDBRANCH  12  15
ENDBRANCH   6   9
BRANCH   3  17
HETATM   17  C4  UNL     1      27.464   0.738  52.660  1.00  0.00     0.076 C 
BRANCH  17  18
HETATM   18  C5  UNL     1      28.086   0.436  53.935  1.00  0.00     0.089 C 
HETATM   19  C6  UNL     1      29.123   1.159  54.323  1.00  0.00     0.167 C 
BRANCH  18  20
HETATM   20  O1  UNL     1      28.222  -0.271  55.116  1.00  0.00    -0.359 OA
HETATM   21  H4  UNL     1      29.080  -0.349  55.651  1.00  0.00     0.217 HD
ENDBRANCH  18  20
BRANCH  19  22
HETATM   22  O2  UNL     1      29.321   2.086  53.280  1.00  0.00    -0.370 OA
HETATM   23  H6  UNL     1      29.171   1.690  52.337  1.00  0.00     0.216 HD
ENDBRANCH  19  22
ENDBRANCH  17  18
ENDBRANCH   3  17
TORSDOF 6
ENDMDL
MODEL 8
REMARK VINA RESULT:      -7.1      5.587      7.279
REMARK  6 active torsions:
REMARK  status: ('A' for Active; 'I' for Inactive)
REMARK    1  A    between atoms: C3_3  and  C4_4 
REMARK    2  A    between atoms: C4_4  and  C5_5 
REMARK    3  A    between atoms: C5_5  and  O1_6 
REMARK    4  A    between atoms: C6_7  and  O2_8 
REMARK    5  A    between atoms: C8_11  and  C9_12 
REMARK    6  A    between atoms: C12_15  and  O4_16 
ROOT
HETATM    1  C1  UNL     1      27.635   5.363  48.520  1.00  0.00     0.050 C 
HETATM    2  C2  UNL     1      26.551   5.485  49.260  1.00  0.00     0.027 A 
HETATM    3  C3  UNL     1      26.113   6.756  49.541  1.00  0.00     0.087 A 
HETATM    4  O3  UNL     1      25.031   6.773  50.283  1.00  0.00    -0.321 OA
HETATM    5  C7  UNL     1      24.409   5.715  50.726  1.00  0.00     0.159 A 
HETATM    6  C8  UNL     1      24.843   4.447  50.448  1.00  0.00     0.047 A 
HETATM    7  C15 UNL     1      25.975   4.306  49.674  1.00  0.00     0.194 A 
HETATM    8  O5  UNL     1      26.462   3.190  49.358  1.00  0.00    -0.287 OA
ENDROOT
BRANCH   6   9
HETATM    9  C9  UNL     1      24.167   3.263  50.931  1.00  0.00    -0.020 A 
HETATM   10  C10 UNL     1      24.525   2.874  52.222  1.00  0.00     0.015 A 
HETATM   11  C11 UNL     1      23.889   1.734  52.717  1.00  0.00     0.037 A 
HETATM   12  C12 UNL     1      22.960   1.035  51.969  1.00  0.00     0.065 A 
HETATM   13  C13 UNL     1      22.634   1.454  50.695  1.00  0.00     0.037 A 
HETATM   14  C14 UNL     1      23.238   2.569  50.174  1.00  0.00     0.015 A 
BRANCH  12  15
HETATM   15  O4  UNL     1      22.308  -0.100  52.426  1.00  0.00    -0.361 OA
HETATM   16  H10 UNL     1      22.768  -0.612  53.168  1.00  0.00     0.217 HD
ENDBRANCH  12  15
ENDBRANCH   6   9
BRANCH   3  17
HETATM   17  C4  UNL     1      26.643   7.891  49.159  1.00  0.00     0.076 C 
BRANCH  17  18
HETATM   18  C5  UNL     1      27.324   8.850  50.007  1.00  0.00     0.089 C 
HETATM   19  C6  UNL     1      28.451   9.391  49.576  1.00  0.00     0.167 C 
BRANCH  18  20
HETATM   20  O1  UNL     1      27.477   9.609  51.154  1.00  0.00    -0.359 OA
HETATM   21  H4  UNL     1      27.830   9.261  52.039  1.00  0.00     0.217 HD
ENDBRANCH  18  20
BRANCH  19  22
HETATM   22  O2  UNL     1      28.661   8.814  48.308  1.00  0.00    -0.370 OA
HETATM   23  H6  UNL     1      27.870   8.235  47.978  1.00  0.00     0.216 HD
ENDBRANCH  19  22
ENDBRANCH  17  18
ENDBRANCH   3  17
TORSDOF 6
ENDMDL
MODEL 9
REMARK VINA RESULT:      -7.1      3.010      7.364
REMARK  6 active torsions:
REMARK  status: ('A' for Active; 'I' for Inactive)
REMARK    1  A    between atoms: C3_3  and  C4_4 
REMARK    2  A    between atoms: C4_4  and  C5_5 
REMARK    3  A    between atoms: C5_5  and  O1_6 
REMARK    4  A    between atoms: C6_7  and  O2_8 
REMARK    5  A    between atoms: C8_11  and  C9_12 
REMARK    6  A    between atoms: C12_15  and  O4_16 
ROOT
HETATM    1  C1  UNL     1      24.670   3.861  49.618  1.00  0.00     0.050 C 
HETATM    2  C2  UNL     1      24.639   3.222  50.771  1.00  0.00     0.027 A 
HETATM    3  C3  UNL     1      23.483   3.294  51.508  1.00  0.00     0.087 A 
HETATM    4  O3  UNL     1      23.551   2.629  52.636  1.00  0.00    -0.321 OA
HETATM    5  C7  UNL     1      24.590   1.958  53.049  1.00  0.00     0.159 A 
HETATM    6  C8  UNL     1      25.745   1.883  52.317  1.00  0.00     0.047 A 
HETATM    7  C15 UNL     1      25.789   2.546  51.109  1.00  0.00     0.194 A 
HETATM    8  O5  UNL     1      26.798   2.546  50.357  1.00  0.00    -0.287 OA
ENDROOT
BRANCH   6   9
HETATM    9  C9  UNL     1      26.908   1.144  52.760  1.00  0.00    -0.020 A 
HETATM   10  C10 UNL     1      26.839  -0.231  52.543  1.00  0.00     0.015 A 
HETATM   11  C11 UNL     1      27.946  -0.973  52.959  1.00  0.00     0.037 A 
HETATM   12  C12 UNL     1      29.043  -0.375  53.551  1.00  0.00     0.065 A 
HETATM   13  C13 UNL     1      29.071   0.991  53.747  1.00  0.00     0.037 A 
HETATM   14  C14 UNL     1      28.001   1.753  53.352  1.00  0.00     0.015 A 
BRANCH  12  15
HETATM   15  O4  UNL     1      30.160  -1.077  53.977  1.00  0.00    -0.361 OA
HETATM   16  H10 UNL     1      30.965  -1.049  53.366  1.00  0.00     0.217 HD
ENDBRANCH  12  15
ENDBRANCH   6   9
BRANCH   3  17
HETATM   17  C4  UNL     1      22.378   3.930  51.206  1.00  0.00     0.076 C 
BRANCH  17  18
HETATM   18  C5  UNL     1      21.076   3.723  51.809  1.00  0.00     0.089 C 
HETATM   19  C6  UNL     1      20.021   4.294  51.252  1.00  0.00     0.167 C 
BRANCH  18  20
HETATM   20  O1  UNL     1      20.211   3.203  52.755  1.00  0.00    -0.359 OA
HETATM   21  H4  UNL     1      20.042   3.603  53.671  1.00  0.00     0.217 HD
ENDBRANCH  18  20
BRANCH  19  22
HETATM   22  O2  UNL     1      20.537   4.991  50.142  1.00  0.00    -0.370 OA
HETATM   23  H6  UNL     1      19.834   5.183  49.408  1.00  0.00     0.216 HD
ENDBRANCH  19  22
ENDBRANCH  17  18
ENDBRANCH   3  17
TORSDOF 6
ENDMDL
