MODEL 1
REMARK VINA RESULT:      -7.6      0.000      0.000
REMARK  7 active torsions:
REMARK  status: ('A' for Active; 'I' for Inactive)
REMARK    1  A    between atoms: C7_7  and  N1_8 
REMARK    2  A    between atoms: N1_8  and  C8_9 
REMARK    3  A    between atoms: C12_15  and  O1_16 
REMARK    4  A    between atoms: C14_18  and  O2_19 
REMARK    5  A    between atoms: O2_19  and  C15_20 
REMARK    6  A    between atoms: C15_20  and  C16_21 
REMARK    7  A    between atoms: C16_21  and  O3_22 
ROOT
HETATM    1  C1  UNL     1      30.260   6.605  47.495  1.00  0.00     0.018 C 
HETATM    2  C2  UNL     1      29.168   6.272  47.866  1.00  0.00    -0.078 C 
HETATM    3  C3  UNL     1      27.861   5.855  48.334  1.00  0.00     0.019 A 
HETATM    4  C4  UNL     1      26.859   6.784  48.226  1.00  0.00     0.021 A 
HETATM    5  C5  UNL     1      25.624   6.426  48.656  1.00  0.00     0.004 A 
HETATM    6  C6  UNL     1      25.396   5.193  49.171  1.00  0.00     0.029 A 
HETATM    7  C7  UNL     1      26.368   4.198  49.312  1.00  0.00     0.035 A 
HETATM    8  C20 UNL     1      27.598   4.616  48.861  1.00  0.00     0.050 A 
ENDROOT
BRANCH   7   9
HETATM    9  N1  UNL     1      26.155   2.899  49.844  1.00  0.00    -0.340 N 
HETATM   10  H5  UNL     1      25.846   2.298  49.087  1.00  0.00     0.167 HD
BRANCH   9  11
HETATM   11  C8  UNL     1      26.310   2.427  51.147  1.00  0.00     0.142 A 
HETATM   12  N2  UNL     1      27.440   2.519  51.857  1.00  0.00    -0.224 NA
HETATM   13  C9  UNL     1      27.619   2.077  53.104  1.00  0.00     0.236 A 
HETATM   14  N3  UNL     1      26.577   1.482  53.709  1.00  0.00    -0.241 NA
HETATM   15  C10 UNL     1      25.394   1.341  53.073  1.00  0.00     0.075 A 
HETATM   16  C11 UNL     1      24.368   0.721  53.750  1.00  0.00     0.072 A 
HETATM   17  C19 UNL     1      25.265   1.817  51.788  1.00  0.00     0.042 A 
HETATM   18  C12 UNL     1      23.134   0.564  53.112  1.00  0.00     0.103 A 
HETATM   19  C14 UNL     1      22.933   1.024  51.802  1.00  0.00     0.103 A 
HETATM   20  C18 UNL     1      24.028   1.625  51.231  1.00  0.00     0.057 A 
BRANCH  18  21
HETATM   21  O1  UNL     1      22.162  -0.064  53.856  1.00  0.00    -0.353 OA
HETATM   22  C13 UNL     1      22.336  -1.240  54.596  1.00  0.00     0.210 C 
ENDBRANCH  18  21
BRANCH  19  23
HETATM   23  O2  UNL     1      21.673   0.763  51.387  1.00  0.00    -0.346 OA
BRANCH  23  24
HETATM   24  C15 UNL     1      20.654   1.655  51.099  1.00  0.00     0.201 C 
BRANCH  24  25
HETATM   25  C16 UNL     1      19.849   2.165  52.246  1.00  0.00     0.193 C 
BRANCH  25  26
HETATM   26  O3  UNL     1      20.220   3.432  52.698  1.00  0.00    -0.394 OA
HETATM   27  C17 UNL     1      20.930   4.182  51.799  1.00  0.00     0.201 C 
ENDBRANCH  25  26
ENDBRANCH  24  25
ENDBRANCH  23  24
ENDBRANCH  19  23
ENDBRANCH   9  11
ENDBRANCH   7   9
TORSDOF 7
ENDMDL
MODEL 2
REMARK VINA RESULT:      -7.5      3.750      5.403
REMARK  7 active torsions:
REMARK  status: ('A' for Active; 'I' for Inactive)
REMARK    1  A    between atoms: C7_7  and  N1_8 
REMARK    2  A    between atoms: N1_8  and  C8_9 
REMARK    3  A    between atoms: C12_15  and  O1_16 
REMARK    4  A    between atoms: C14_18  and  O2_19 
REMARK    5  A    between atoms: O2_19  and  C15_20 
REMARK    6  A    between atoms: C15_20  and  C16_21 
REMARK    7  A    between atoms: C16_21  and  O3_22 
ROOT
HETATM    1  C1  UNL     1      29.684  -2.164  53.392  1.00  0.00     0.018 C 
HETATM    2  C2  UNL     1      28.922  -1.242  53.298  1.00  0.00    -0.078 C 
HETATM    3  C3  UNL     1      27.982  -0.143  53.195  1.00  0.00     0.019 A 
HETATM    4  C4  UNL     1      28.512   1.115  53.318  1.00  0.00     0.021 A 
HETATM    5  C5  UNL     1      27.659   2.166  53.228  1.00  0.00     0.004 A 
HETATM    6  C6  UNL     1      26.335   1.971  53.022  1.00  0.00     0.029 A 
HETATM    7  C7  UNL     1      25.726   0.720  52.888  1.00  0.00     0.035 A 
HETATM    8  C20 UNL     1      26.635  -0.306  52.988  1.00  0.00     0.050 A 
ENDROOT
BRANCH   7   9
HETATM    9  N1  UNL     1      24.342   0.489  52.668  1.00  0.00    -0.340 N 
HETATM   10  H5  UNL     1      24.093   0.906  51.777  1.00  0.00     0.167 HD
BRANCH   9  11
HETATM   11  C8  UNL     1      23.406  -0.173  53.462  1.00  0.00     0.142 A 
HETATM   12  N2  UNL     1      23.702  -0.859  54.571  1.00  0.00    -0.224 NA
HETATM   13  C9  UNL     1      22.830  -1.504  55.349  1.00  0.00     0.236 A 
HETATM   14  N3  UNL     1      21.535  -1.468  54.995  1.00  0.00    -0.241 NA
HETATM   15  C10 UNL     1      21.136  -0.801  53.889  1.00  0.00     0.075 A 
HETATM   16  C11 UNL     1      19.795  -0.805  53.583  1.00  0.00     0.072 A 
HETATM   17  C19 UNL     1      22.079  -0.154  53.125  1.00  0.00     0.042 A 
HETATM   18  C12 UNL     1      19.359  -0.122  52.443  1.00  0.00     0.103 A 
HETATM   19  C14 UNL     1      20.265   0.559  51.618  1.00  0.00     0.103 A 
HETATM   20  C18 UNL     1      21.575   0.492  52.026  1.00  0.00     0.057 A 
BRANCH  18  21
HETATM   21  O1  UNL     1      18.004  -0.174  52.208  1.00  0.00    -0.353 OA
HETATM   22  C13 UNL     1      17.110  -1.077  52.796  1.00  0.00     0.210 C 
ENDBRANCH  18  21
BRANCH  19  23
HETATM   23  O2  UNL     1      19.626   1.140  50.578  1.00  0.00    -0.346 OA
BRANCH  23  24
HETATM   24  C15 UNL     1      19.573   2.481  50.234  1.00  0.00     0.201 C 
BRANCH  24  25
HETATM   25  C16 UNL     1      19.301   3.455  51.329  1.00  0.00     0.193 C 
BRANCH  25  26
HETATM   26  O3  UNL     1      20.402   4.226  51.707  1.00  0.00    -0.394 OA
HETATM   27  C17 UNL     1      21.394   4.316  50.769  1.00  0.00     0.201 C 
ENDBRANCH  25  26
ENDBRANCH  24  25
ENDBRANCH  23  24
ENDBRANCH  19  23
ENDBRANCH   9  11
ENDBRANCH   7   9
TORSDOF 7
ENDMDL
MODEL 3
REMARK VINA RESULT:      -7.4      2.360      5.470
REMARK  7 active torsions:
REMARK  status: ('A' for Active; 'I' for Inactive)
REMARK    1  A    between atoms: C7_7  and  N1_8 
REMARK    2  A    between atoms: N1_8  and  C8_9 
REMARK    3  A    between atoms: C12_15  and  O1_16 
REMARK    4  A    between atoms: C14_18  and  O2_19 
REMARK    5  A    between atoms: O2_19  and  C15_20 
REMARK    6  A    between atoms: C15_20  and  C16_21 
REMARK    7  A    between atoms: C16_21  and  O3_22 
ROOT
HETATM    1  C1  UNL     1      28.886  -2.734  53.184  1.00  0.00     0.018 C 
HETATM    2  C2  UNL     1      28.707  -1.551  53.278  1.00  0.00    -0.078 C 
HETATM    3  C3  UNL     1      28.466  -0.127  53.399  1.00  0.00     0.019 A 
HETATM    4  C4  UNL     1      29.509   0.622  53.878  1.00  0.00     0.021 A 
HETATM    5  C5  UNL     1      29.315   1.958  54.004  1.00  0.00     0.004 A 
HETATM    6  C6  UNL     1      28.132   2.524  53.664  1.00  0.00     0.029 A 
HETATM    7  C7  UNL     1      27.028   1.824  53.170  1.00  0.00     0.035 A 
HETATM    8  C20 UNL     1      27.280   0.478  53.064  1.00  0.00     0.050 A 
ENDROOT
BRANCH   7   9
HETATM    9  N1  UNL     1      25.780   2.395  52.804  1.00  0.00    -0.340 N 
HETATM   10  H5  UNL     1      25.210   2.462  53.641  1.00  0.00     0.167 HD
BRANCH   9  11
HETATM   11  C8  UNL     1      25.318   2.819  51.559  1.00  0.00     0.142 A 
HETATM   12  N2  UNL     1      25.956   3.691  50.770  1.00  0.00    -0.224 NA
HETATM   13  C9  UNL     1      25.540   4.116  49.575  1.00  0.00     0.236 A 
HETATM   14  N3  UNL     1      24.375   3.632  49.113  1.00  0.00    -0.241 NA
HETATM   15  C10 UNL     1      23.656   2.747  49.838  1.00  0.00     0.075 A 
HETATM   16  C11 UNL     1      22.470   2.292  49.307  1.00  0.00     0.072 A 
HETATM   17  C19 UNL     1      24.134   2.342  51.063  1.00  0.00     0.042 A 
HETATM   18  C12 UNL     1      21.709   1.375  50.039  1.00  0.00     0.103 A 
HETATM   19  C14 UNL     1      22.135   0.921  51.295  1.00  0.00     0.103 A 
HETATM   20  C18 UNL     1      23.332   1.445  51.719  1.00  0.00     0.057 A 
BRANCH  18  21
HETATM   21  O1  UNL     1      20.539   0.969  49.438  1.00  0.00    -0.353 OA
HETATM   22  C13 UNL     1      19.309   1.631  49.524  1.00  0.00     0.210 C 
ENDBRANCH  18  21
BRANCH  19  23
HETATM   23  O2  UNL     1      21.246   0.047  51.819  1.00  0.00    -0.346 OA
BRANCH  23  24
HETATM   24  C15 UNL     1      20.443   0.195  52.938  1.00  0.00     0.201 C 
BRANCH  24  25
HETATM   25  C16 UNL     1      20.617  -0.798  54.037  1.00  0.00     0.193 C 
BRANCH  25  26
HETATM   26  O3  UNL     1      21.569  -0.444  54.994  1.00  0.00    -0.394 OA
HETATM   27  C17 UNL     1      22.689  -1.230  55.014  1.00  0.00     0.201 C 
ENDBRANCH  25  26
ENDBRANCH  24  25
ENDBRANCH  23  24
ENDBRANCH  19  23
ENDBRANCH   9  11
ENDBRANCH   7   9
TORSDOF 7
ENDMDL
MODEL 4
REMARK VINA RESULT:      -7.3      2.215      4.402
REMARK  7 active torsions:
REMARK  status: ('A' for Active; 'I' for Inactive)
REMARK    1  A    between atoms: C7_7  and  N1_8 
REMARK    2  A    between atoms: N1_8  and  C8_9 
REMARK    3  A    between atoms: C12_15  and  O1_16 
REMARK    4  A    between atoms: C14_18  and  O2_19 
REMARK    5  A    between atoms: O2_19  and  C15_20 
REMARK    6  A    between atoms: C15_20  and  C16_21 
REMARK    7  A    between atoms: C16_21  and  O3_22 
ROOT
HETATM    1  C1  UNL     1      26.458   9.309  48.417  1.00  0.00     0.018 C 
HETATM    2  C2  UNL     1      26.510   8.136  48.664  1.00  0.00    -0.078 C 
HETATM    3  C3  UNL     1      26.547   6.718  48.963  1.00  0.00     0.019 A 
HETATM    4  C4  UNL     1      27.562   6.006  48.377  1.00  0.00     0.021 A 
HETATM    5  C5  UNL     1      27.624   4.676  48.636  1.00  0.00     0.004 A 
HETATM    6  C6  UNL     1      26.715   4.081  49.445  1.00  0.00     0.029 A 
HETATM    7  C7  UNL     1      25.657   4.743  50.074  1.00  0.00     0.035 A 
HETATM    8  C20 UNL     1      25.642   6.085  49.777  1.00  0.00     0.050 A 
ENDROOT
BRANCH   7   9
HETATM    9  N1  UNL     1      24.693   4.144  50.928  1.00  0.00    -0.340 N 
HETATM   10  H5  UNL     1      24.983   4.304  51.887  1.00  0.00     0.167 HD
BRANCH   9  11
HETATM   11  C8  UNL     1      23.530   3.441  50.615  1.00  0.00     0.142 A 
HETATM   12  N2  UNL     1      22.655   3.807  49.673  1.00  0.00    -0.224 NA
HETATM   13  C9  UNL     1      21.533   3.157  49.351  1.00  0.00     0.236 A 
HETATM   14  N3  UNL     1      21.248   2.033  50.030  1.00  0.00    -0.241 NA
HETATM   15  C10 UNL     1      22.072   1.583  51.003  1.00  0.00     0.075 A 
HETATM   16  C11 UNL     1      21.721   0.426  51.660  1.00  0.00     0.072 A 
HETATM   17  C19 UNL     1      23.215   2.293  51.291  1.00  0.00     0.042 A 
HETATM   18  C12 UNL     1      22.558  -0.059  52.670  1.00  0.00     0.103 A 
HETATM   19  C14 UNL     1      23.738   0.615  53.017  1.00  0.00     0.103 A 
HETATM   20  C18 UNL     1      23.982   1.755  52.292  1.00  0.00     0.057 A 
BRANCH  18  21
HETATM   21  O1  UNL     1      22.136  -1.220  53.277  1.00  0.00    -0.353 OA
HETATM   22  C13 UNL     1      21.205  -1.301  54.319  1.00  0.00     0.210 C 
ENDBRANCH  18  21
BRANCH  19  23
HETATM   23  O2  UNL     1      24.384  -0.028  54.016  1.00  0.00    -0.346 OA
BRANCH  23  24
HETATM   24  C15 UNL     1      25.509  -0.832  53.943  1.00  0.00     0.201 C 
BRANCH  24  25
HETATM   25  C16 UNL     1      26.822  -0.151  53.758  1.00  0.00     0.193 C 
BRANCH  25  26
HETATM   26  O3  UNL     1      27.689  -0.256  54.847  1.00  0.00    -0.394 OA
HETATM   27  C17 UNL     1      28.955   0.212  54.625  1.00  0.00     0.201 C 
ENDBRANCH  25  26
ENDBRANCH  24  25
ENDBRANCH  23  24
ENDBRANCH  19  23
ENDBRANCH   9  11
ENDBRANCH   7   9
TORSDOF 7
ENDMDL
MODEL 5
REMARK VINA RESULT:      -7.1      1.357      2.350
REMARK  7 active torsions:
REMARK  status: ('A' for Active; 'I' for Inactive)
REMARK    1  A    between atoms: C7_7  and  N1_8 
REMARK    2  A    between atoms: N1_8  and  C8_9 
REMARK    3  A    between atoms: C12_15  and  O1_16 
REMARK    4  A    between atoms: C14_18  and  O2_19 
REMARK    5  A    between atoms: O2_19  and  C15_20 
REMARK    6  A    between atoms: C15_20  and  C16_21 
REMARK    7  A    between atoms: C16_21  and  O3_22 
ROOT
HETATM    1  C1  UNL     1      23.780   8.343  49.710  1.00  0.00     0.018 C 
HETATM    2  C2  UNL     1      24.647   7.542  49.494  1.00  0.00    -0.078 C 
HETATM    3  C3  UNL     1      25.676   6.555  49.230  1.00  0.00     0.019 A 
HETATM    4  C4  UNL     1      26.762   6.994  48.518  1.00  0.00     0.021 A 
HETATM    5  C5  UNL     1      27.742   6.095  48.254  1.00  0.00     0.004 A 
HETATM    6  C6  UNL     1      27.645   4.814  48.682  1.00  0.00     0.029 A 
HETATM    7  C7  UNL     1      26.569   4.298  49.410  1.00  0.00     0.035 A 
HETATM    8  C20 UNL     1      25.608   5.250  49.648  1.00  0.00     0.050 A 
ENDROOT
BRANCH   7   9
HETATM    9  N1  UNL     1      26.445   2.961  49.872  1.00  0.00    -0.340 N 
HETATM   10  H5  UNL     1      26.312   2.362  49.064  1.00  0.00     0.167 HD
BRANCH   9  11
HETATM   11  C8  UNL     1      26.483   2.453  51.170  1.00  0.00     0.142 A 
HETATM   12  N2  UNL     1      27.562   2.472  51.960  1.00  0.00    -0.224 NA
HETATM   13  C9  UNL     1      27.630   1.994  53.205  1.00  0.00     0.236 A 
HETATM   14  N3  UNL     1      26.519   1.441  53.721  1.00  0.00    -0.241 NA
HETATM   15  C10 UNL     1      25.379   1.374  52.999  1.00  0.00     0.075 A 
HETATM   16  C11 UNL     1      24.278   0.794  53.587  1.00  0.00     0.072 A 
HETATM   17  C19 UNL     1      25.366   1.884  51.721  1.00  0.00     0.042 A 
HETATM   18  C12 UNL     1      23.086   0.714  52.860  1.00  0.00     0.103 A 
HETATM   19  C14 UNL     1      23.002   1.212  51.551  1.00  0.00     0.103 A 
HETATM   20  C18 UNL     1      24.164   1.768  51.074  1.00  0.00     0.057 A 
BRANCH  18  21
HETATM   21  O1  UNL     1      22.033   0.121  53.518  1.00  0.00    -0.353 OA
HETATM   22  C13 UNL     1      21.893  -1.250  53.760  1.00  0.00     0.210 C 
ENDBRANCH  18  21
BRANCH  19  23
HETATM   23  O2  UNL     1      21.763   1.025  51.043  1.00  0.00    -0.346 OA
BRANCH  23  24
HETATM   24  C15 UNL     1      21.378   0.921  49.717  1.00  0.00     0.201 C 
BRANCH  24  25
HETATM   25  C16 UNL     1      20.753   2.121  49.092  1.00  0.00     0.193 C 
BRANCH  25  26
HETATM   26  O3  UNL     1      21.568   3.255  49.071  1.00  0.00    -0.394 OA
HETATM   27  C17 UNL     1      22.548   3.245  48.116  1.00  0.00     0.201 C 
ENDBRANCH  25  26
ENDBRANCH  24  25
ENDBRANCH  23  24
ENDBRANCH  19  23
ENDBRANCH   9  11
ENDBRANCH   7   9
TORSDOF 7
ENDMDL
MODEL 6
REMARK VINA RESULT:      -7.0      1.528      2.485
REMARK  7 active torsions:
REMARK  status: ('A' for Active; 'I' for Inactive)
REMARK    1  A    between atoms: C7_7  and  N1_8 
REMARK    2  A    between atoms: N1_8  and  C8_9 
REMARK    3  A    between atoms: C12_15  and  O1_16 
REMARK    4  A    between atoms: C14_18  and  O2_19 
REMARK    5  A    between atoms: O2_19  and  C15_20 
REMARK    6  A    between atoms: C15_20  and  C16_21 
REMARK    7  A    between atoms: C16_21  and  O3_22 
ROOT
HETATM    1  C1  UNL     1      24.839   9.136  49.545  1.00  0.00     0.018 C 
HETATM    2  C2  UNL     1      25.395   8.079  49.426  1.00  0.00    -0.078 C 
HETATM    3  C3  UNL     1      26.043   6.790  49.281  1.00  0.00     0.019 A 
HETATM    4  C4  UNL     1      27.216   6.783  48.571  1.00  0.00     0.021 A 
HETATM    5  C5  UNL     1      27.846   5.593  48.416  1.00  0.00     0.004 A 
HETATM    6  C6  UNL     1      27.332   4.458  48.948  1.00  0.00     0.029 A 
HETATM    7  C7  UNL     1      26.144   4.391  49.682  1.00  0.00     0.035 A 
HETATM    8  C20 UNL     1      25.548   5.623  49.806  1.00  0.00     0.050 A 
ENDROOT
BRANCH   7   9
HETATM    9  N1  UNL     1      25.586   3.216  50.252  1.00  0.00    -0.340 N 
HETATM   10  H5  UNL     1      24.735   2.996  49.744  1.00  0.00     0.167 HD
BRANCH   9  11
HETATM   11  C8  UNL     1      26.038   2.431  51.312  1.00  0.00     0.142 A 
HETATM   12  N2  UNL     1      27.284   2.457  51.797  1.00  0.00    -0.224 NA
HETATM   13  C9  UNL     1      27.746   1.718  52.808  1.00  0.00     0.236 A 
HETATM   14  N3  UNL     1      26.890   0.868  53.400  1.00  0.00    -0.241 NA
HETATM   15  C10 UNL     1      25.610   0.769  52.980  1.00  0.00     0.075 A 
HETATM   16  C11 UNL     1      24.786  -0.122  53.629  1.00  0.00     0.072 A 
HETATM   17  C19 UNL     1      25.187   1.556  51.933  1.00  0.00     0.042 A 
HETATM   18  C12 UNL     1      23.456  -0.242  53.213  1.00  0.00     0.103 A 
HETATM   19  C14 UNL     1      22.959   0.528  52.151  1.00  0.00     0.103 A 
HETATM   20  C18 UNL     1      23.874   1.381  51.584  1.00  0.00     0.057 A 
BRANCH  18  21
HETATM   21  O1  UNL     1      22.700  -1.154  53.913  1.00  0.00    -0.353 OA
HETATM   22  C13 UNL     1      22.733  -1.345  55.299  1.00  0.00     0.210 C 
ENDBRANCH  18  21
BRANCH  19  23
HETATM   23  O2  UNL     1      21.657   0.247  51.920  1.00  0.00    -0.346 OA
BRANCH  23  24
HETATM   24  C15 UNL     1      20.534   0.785  52.526  1.00  0.00     0.201 C 
BRANCH  24  25
HETATM   25  C16 UNL     1      19.653  -0.151  53.281  1.00  0.00     0.193 C 
BRANCH  25  26
HETATM   26  O3  UNL     1      18.611  -0.700  52.532  1.00  0.00    -0.394 OA
HETATM   27  C17 UNL     1      17.615  -1.284  53.267  1.00  0.00     0.201 C 
ENDBRANCH  25  26
ENDBRANCH  24  25
ENDBRANCH  23  24
ENDBRANCH  19  23
ENDBRANCH   9  11
ENDBRANCH   7   9
TORSDOF 7
ENDMDL
MODEL 7
REMARK VINA RESULT:      -7.0      3.328      6.875
REMARK  7 active torsions:
REMARK  status: ('A' for Active; 'I' for Inactive)
REMARK    1  A    between atoms: C7_7  and  N1_8 
REMARK    2  A    between atoms: N1_8  and  C8_9 
REMARK    3  A    between atoms: C12_15  and  O1_16 
REMARK    4  A    between atoms: C14_18  and  O2_19 
REMARK    5  A    between atoms: O2_19  and  C15_20 
REMARK    6  A    between atoms: C15_20  and  C16_21 
REMARK    7  A    between atoms: C16_21  and  O3_22 
ROOT
HETATM    1  C1  UNL     1      16.892   0.631  50.030  1.00  0.00     0.018 C 
HETATM    2  C2  UNL     1      17.894   0.875  50.645  1.00  0.00    -0.078 C 
HETATM    3  C3  UNL     1      19.116   1.154  51.371  1.00  0.00     0.019 A 
HETATM    4  C4  UNL     1      19.261   2.436  51.836  1.00  0.00     0.021 A 
HETATM    5  C5  UNL     1      20.395   2.730  52.519  1.00  0.00     0.004 A 
HETATM    6  C6  UNL     1      21.343   1.787  52.732  1.00  0.00     0.029 A 
HETATM    7  C7  UNL     1      21.263   0.464  52.289  1.00  0.00     0.035 A 
HETATM    8  C20 UNL     1      20.097   0.223  51.604  1.00  0.00     0.050 A 
ENDROOT
BRANCH   7   9
HETATM    9  N1  UNL     1      22.241  -0.544  52.502  1.00  0.00    -0.340 N 
HETATM   10  H5  UNL     1      22.198  -1.192  51.723  1.00  0.00     0.167 HD
BRANCH   9  11
HETATM   11  C8  UNL     1      23.145  -0.709  53.551  1.00  0.00     0.142 A 
HETATM   12  N2  UNL     1      22.869  -1.338  54.698  1.00  0.00    -0.224 NA
HETATM   13  C9  UNL     1      23.712  -1.510  55.719  1.00  0.00     0.236 A 
HETATM   14  N3  UNL     1      24.952  -1.009  55.594  1.00  0.00    -0.241 NA
HETATM   15  C10 UNL     1      25.326  -0.355  54.472  1.00  0.00     0.075 A 
HETATM   16  C11 UNL     1      26.611   0.135  54.410  1.00  0.00     0.072 A 
HETATM   17  C19 UNL     1      24.416  -0.208  53.451  1.00  0.00     0.042 A 
HETATM   18  C12 UNL     1      27.020   0.815  53.258  1.00  0.00     0.103 A 
HETATM   19  C14 UNL     1      26.144   1.003  52.179  1.00  0.00     0.103 A 
HETATM   20  C18 UNL     1      24.892   0.470  52.358  1.00  0.00     0.057 A 
BRANCH  18  21
HETATM   21  O1  UNL     1      28.319   1.272  53.275  1.00  0.00    -0.353 OA
HETATM   22  C13 UNL     1      29.400   0.628  53.887  1.00  0.00     0.210 C 
ENDBRANCH  18  21
BRANCH  19  23
HETATM   23  O2  UNL     1      26.749   1.686  51.181  1.00  0.00    -0.346 OA
BRANCH  23  24
HETATM   24  C15 UNL     1      26.521   2.986  50.760  1.00  0.00     0.201 C 
BRANCH  24  25
HETATM   25  C16 UNL     1      25.279   3.241  49.977  1.00  0.00     0.193 C 
BRANCH  25  26
HETATM   26  O3  UNL     1      24.169   3.591  50.748  1.00  0.00    -0.394 OA
HETATM   27  C17 UNL     1      23.027   3.843  50.037  1.00  0.00     0.201 C 
ENDBRANCH  25  26
ENDBRANCH  24  25
ENDBRANCH  23  24
ENDBRANCH  19  23
ENDBRANCH   9  11
ENDBRANCH   7   9
TORSDOF 7
ENDMDL
MODEL 8
REMARK VINA RESULT:      -6.8      4.082      8.571
REMARK  7 active torsions:
REMARK  status: ('A' for Active; 'I' for Inactive)
REMARK    1  A    between atoms: C7_7  and  N1_8 
REMARK    2  A    between atoms: N1_8  and  C8_9 
REMARK    3  A    between atoms: C12_15  and  O1_16 
REMARK    4  A    between atoms: C14_18  and  O2_19 
REMARK    5  A    between atoms: O2_19  and  C15_20 
REMARK    6  A    between atoms: C15_20  and  C16_21 
REMARK    7  A    between atoms: C16_21  and  O3_22 
ROOT
HETATM    1  C1  UNL     1      21.929  -0.552  53.295  1.00  0.00     0.018 C 
HETATM    2  C2  UNL     1      22.920  -0.018  52.878  1.00  0.00    -0.078 C 
HETATM    3  C3  UNL     1      24.104   0.649  52.374  1.00  0.00     0.019 A 
HETATM    4  C4  UNL     1      25.304   0.172  52.830  1.00  0.00     0.021 A 
HETATM    5  C5  UNL     1      26.431   0.775  52.379  1.00  0.00     0.004 A 
HETATM    6  C6  UNL     1      26.365   1.810  51.507  1.00  0.00     0.029 A 
HETATM    7  C7  UNL     1      25.179   2.349  51.001  1.00  0.00     0.035 A 
HETATM    8  C20 UNL     1      24.071   1.700  51.492  1.00  0.00     0.050 A 
ENDROOT
BRANCH   7   9
HETATM    9  N1  UNL     1      25.083   3.430  50.085  1.00  0.00    -0.340 N 
HETATM   10  H5  UNL     1      25.176   3.055  49.148  1.00  0.00     0.167 HD
BRANCH   9  11
HETATM   11  C8  UNL     1      24.895   4.791  50.322  1.00  0.00     0.142 A 
HETATM   12  N2  UNL     1      23.890   5.305  51.040  1.00  0.00    -0.224 NA
HETATM   13  C9  UNL     1      23.683   6.601  51.281  1.00  0.00     0.236 A 
HETATM   14  N3  UNL     1      24.557   7.479  50.761  1.00  0.00    -0.241 NA
HETATM   15  C10 UNL     1      25.605   7.057  50.019  1.00  0.00     0.075 A 
HETATM   16  C11 UNL     1      26.461   8.009  49.514  1.00  0.00     0.072 A 
HETATM   17  C19 UNL     1      25.769   5.708  49.802  1.00  0.00     0.042 A 
HETATM   18  C12 UNL     1      27.553   7.596  48.744  1.00  0.00     0.103 A 
HETATM   19  C14 UNL     1      27.781   6.237  48.482  1.00  0.00     0.103 A 
HETATM   20  C18 UNL     1      26.860   5.384  49.039  1.00  0.00     0.057 A 
BRANCH  18  21
HETATM   21  O1  UNL     1      28.361   8.608  48.277  1.00  0.00    -0.353 OA
HETATM   22  C13 UNL     1      28.272   9.955  48.646  1.00  0.00     0.210 C 
ENDBRANCH  18  21
BRANCH  19  23
HETATM   23  O2  UNL     1      28.884   6.072  47.718  1.00  0.00    -0.346 OA
BRANCH  23  24
HETATM   24  C15 UNL     1      30.076   5.445  48.043  1.00  0.00     0.201 C 
BRANCH  24  25
HETATM   25  C16 UNL     1      31.273   6.313  48.229  1.00  0.00     0.193 C 
BRANCH  25  26
HETATM   26  O3  UNL     1      31.358   6.924  49.482  1.00  0.00    -0.394 OA
HETATM   27  C17 UNL     1      31.683   8.253  49.456  1.00  0.00     0.201 C 
ENDBRANCH  25  26
ENDBRANCH  24  25
ENDBRANCH  23  24
ENDBRANCH  19  23
ENDBRANCH   9  11
ENDBRANCH   7   9
TORSDOF 7
ENDMDL
MODEL 9
REMARK VINA RESULT:      -6.8      2.851      5.560
REMARK  7 active torsions:
REMARK  status: ('A' for Active; 'I' for Inactive)
REMARK    1  A    between atoms: C7_7  and  N1_8 
REMARK    2  A    between atoms: N1_8  and  C8_9 
REMARK    3  A    between atoms: C12_15  and  O1_16 
REMARK    4  A    between atoms: C14_18  and  O2_19 
REMARK    5  A    between atoms: O2_19  and  C15_20 
REMARK    6  A    between atoms: C15_20  and  C16_21 
REMARK    7  A    between atoms: C16_21  and  O3_22 
ROOT
HETATM    1  C1  UNL     1      29.756  -0.743  53.510  1.00  0.00     0.018 C 
HETATM    2  C2  UNL     1      28.598  -0.458  53.381  1.00  0.00    -0.078 C 
HETATM    3  C3  UNL     1      27.201  -0.113  53.201  1.00  0.00     0.019 A 
HETATM    4  C4  UNL     1      26.321  -0.686  54.082  1.00  0.00     0.021 A 
HETATM    5  C5  UNL     1      25.007  -0.384  53.939  1.00  0.00     0.004 A 
HETATM    6  C6  UNL     1      24.587   0.454  52.962  1.00  0.00     0.029 A 
HETATM    7  C7  UNL     1      25.426   1.073  52.030  1.00  0.00     0.035 A 
HETATM    8  C20 UNL     1      26.744   0.731  52.221  1.00  0.00     0.050 A 
ENDROOT
BRANCH   7   9
HETATM    9  N1  UNL     1      25.012   1.957  50.998  1.00  0.00    -0.340 N 
HETATM   10  H5  UNL     1      25.363   1.595  50.118  1.00  0.00     0.167 HD
BRANCH   9  11
HETATM   11  C8  UNL     1      24.263   3.130  51.071  1.00  0.00     0.142 A 
HETATM   12  N2  UNL     1      24.758   4.359  50.888  1.00  0.00    -0.224 NA
HETATM   13  C9  UNL     1      24.067   5.499  50.952  1.00  0.00     0.236 A 
HETATM   14  N3  UNL     1      22.754   5.417  51.225  1.00  0.00    -0.241 NA
HETATM   15  C10 UNL     1      22.161   4.219  51.427  1.00  0.00     0.075 A 
HETATM   16  C11 UNL     1      20.813   4.206  51.703  1.00  0.00     0.072 A 
HETATM   17  C19 UNL     1      22.922   3.076  51.348  1.00  0.00     0.042 A 
HETATM   18  C12 UNL     1      20.178   2.978  51.916  1.00  0.00     0.103 A 
HETATM   19  C14 UNL     1      20.893   1.774  51.852  1.00  0.00     0.103 A 
HETATM   20  C18 UNL     1      22.229   1.914  51.568  1.00  0.00     0.057 A 
BRANCH  18  21
HETATM   21  O1  UNL     1      18.830   3.051  52.186  1.00  0.00    -0.353 OA
HETATM   22  C13 UNL     1      17.849   3.523  51.307  1.00  0.00     0.210 C 
ENDBRANCH  18  21
BRANCH  19  23
HETATM   23  O2  UNL     1      20.082   0.718  52.092  1.00  0.00    -0.346 OA
BRANCH  23  24
HETATM   24  C15 UNL     1      19.922  -0.001  53.265  1.00  0.00     0.201 C 
BRANCH  24  25
HETATM   25  C16 UNL     1      20.829   0.334  54.399  1.00  0.00     0.193 C 
BRANCH  25  26
HETATM   26  O3  UNL     1      21.623  -0.726  54.839  1.00  0.00    -0.394 OA
HETATM   27  C17 UNL     1      21.555  -1.858  54.072  1.00  0.00     0.201 C 
ENDBRANCH  25  26
ENDBRANCH  24  25
ENDBRANCH  23  24
ENDBRANCH  19  23
ENDBRANCH   9  11
ENDBRANCH   7   9
TORSDOF 7
ENDMDL
