MODEL 1
REMARK VINA RESULT:      -8.6      0.000      0.000
REMARK  1 active torsions:
REMARK  status: ('A' for Active; 'I' for Inactive)
REMARK    1  A    between atoms: C7_9  and  O2_10 
ROOT
HETATM    1  C1  UNL     1      24.256   5.124  50.099  1.00  0.00     0.046 C 
HETATM    2  C2  UNL     1      25.027   3.966  50.582  1.00  0.00     0.253 C 
HETATM    3  N1  UNL     1      25.582   3.186  49.461  1.00  0.00     0.092 N 
HETATM    4  C3  UNL     1      26.745   2.559  49.979  1.00  0.00     0.296 C 
HETATM    5  C4  UNL     1      26.655   2.052  51.351  1.00  0.00     0.199 C 
HETATM    6  O1  UNL     1      25.800   2.647  52.242  1.00  0.00    -0.373 OA
HETATM    7  C5  UNL     1      24.553   3.035  51.606  1.00  0.00     0.121 C 
HETATM    8  C6  UNL     1      23.604   3.459  52.646  1.00  0.00     0.107 C 
HETATM    9  C7  UNL     1      23.168   4.847  52.741  1.00  0.00     0.047 C 
HETATM   10  C8  UNL     1      21.906   5.076  52.318  1.00  0.00     0.051 C 
HETATM   11  C9  UNL     1      20.918   4.159  51.776  1.00  0.00     0.115 C 
HETATM   12  N2  UNL     1      20.889   2.919  51.532  1.00  0.00    -0.270 NA
HETATM   13  C10 UNL     1      19.807   2.206  50.991  1.00  0.00     0.437 C 
HETATM   14  N3  UNL     1      20.540   1.745  50.021  1.00  0.00    -0.406 NA
HETATM   15  C11 UNL     1      21.943   2.032  49.824  1.00  0.00     0.233 C 
HETATM   16  N4  UNL     1      22.733   1.432  50.914  1.00  0.00    -0.353 N 
HETATM   17  C12 UNL     1      22.608   0.521  52.050  1.00  0.00     0.042 A 
HETATM   18  C13 UNL     1      21.823  -0.313  52.824  1.00  0.00     0.033 A 
HETATM   19  C14 UNL     1      22.303  -0.955  53.942  1.00  0.00     0.046 A 
HETATM   20  C15 UNL     1      23.640  -0.716  54.256  1.00  0.00     0.138 A 
HETATM   21  F1  UNL     1      24.031  -1.386  55.371  1.00  0.00    -0.204 F 
HETATM   22  C16 UNL     1      24.425   0.134  53.459  1.00  0.00     0.083 A 
HETATM   23 CL1  UNL     1      26.030   0.220  54.142  1.00  0.00    -0.080 Cl
HETATM   24  C17 UNL     1      23.929   0.769  52.339  1.00  0.00     0.019 A 
HETATM   25  C18 UNL     1      24.115   1.650  51.157  1.00  0.00     0.160 A 
HETATM   26  H5  UNL     1      24.899   2.624  48.964  1.00  0.00     0.316 HD
ENDROOT
BRANCH   9  27
HETATM   27  O2  UNL     1      23.981   5.857  53.231  1.00  0.00    -0.365 OA
HETATM   28  H12 UNL     1      24.154   6.715  52.721  1.00  0.00     0.217 HD
ENDBRANCH   9  27
TORSDOF 1
ENDMDL
MODEL 2
REMARK VINA RESULT:      -8.1      2.470      4.593
REMARK  1 active torsions:
REMARK  status: ('A' for Active; 'I' for Inactive)
REMARK    1  A    between atoms: C7_9  and  O2_10 
ROOT
HETATM    1  C1  UNL     1      19.840   3.237  49.206  1.00  0.00     0.046 C 
HETATM    2  C2  UNL     1      19.964   2.274  50.313  1.00  0.00     0.253 C 
HETATM    3  N1  UNL     1      19.086   2.638  51.440  1.00  0.00     0.092 N 
HETATM    4  C3  UNL     1      18.797   1.416  52.101  1.00  0.00     0.296 C 
HETATM    5  C4  UNL     1      19.902   0.458  52.212  1.00  0.00     0.199 C 
HETATM    6  O1  UNL     1      20.896   0.455  51.268  1.00  0.00    -0.373 OA
HETATM    7  C5  UNL     1      21.240   1.803  50.851  1.00  0.00     0.121 C 
HETATM    8  C6  UNL     1      22.448   1.745  50.016  1.00  0.00     0.107 C 
HETATM    9  C7  UNL     1      22.395   2.077  48.597  1.00  0.00     0.047 C 
HETATM   10  C8  UNL     1      22.934   3.272  48.273  1.00  0.00     0.051 C 
HETATM   11  C9  UNL     1      23.553   4.281  49.115  1.00  0.00     0.115 C 
HETATM   12  N2  UNL     1      23.791   4.389  50.353  1.00  0.00    -0.270 NA
HETATM   13  C10 UNL     1      24.414   5.477  50.985  1.00  0.00     0.437 C 
HETATM   14  N3  UNL     1      23.413   5.632  51.800  1.00  0.00    -0.406 NA
HETATM   15  C11 UNL     1      22.216   4.820  51.819  1.00  0.00     0.233 C 
HETATM   16  N4  UNL     1      22.551   3.448  52.242  1.00  0.00    -0.353 N 
HETATM   17  C12 UNL     1      23.649   2.656  52.791  1.00  0.00     0.042 A 
HETATM   18  C13 UNL     1      24.952   2.586  53.249  1.00  0.00     0.033 A 
HETATM   19  C14 UNL     1      25.534   1.407  53.651  1.00  0.00     0.046 A 
HETATM   20  C15 UNL     1      24.729   0.271  53.573  1.00  0.00     0.138 A 
HETATM   21  F1  UNL     1      25.380  -0.846  53.987  1.00  0.00    -0.204 F 
HETATM   22  C16 UNL     1      23.407   0.358  53.106  1.00  0.00     0.083 A 
HETATM   23 CL1  UNL     1      22.700  -1.238  53.122  1.00  0.00    -0.080 Cl
HETATM   24  C17 UNL     1      22.837   1.550  52.708  1.00  0.00     0.019 A 
HETATM   25  C18 UNL     1      21.675   2.331  52.208  1.00  0.00     0.160 A 
HETATM   26  H5  UNL     1      19.412   3.428  51.987  1.00  0.00     0.316 HD
ENDROOT
BRANCH   9  27
HETATM   27  O2  UNL     1      21.837   1.233  47.650  1.00  0.00    -0.365 OA
HETATM   28  H12 UNL     1      22.228   1.119  46.722  1.00  0.00     0.217 HD
ENDBRANCH   9  27
TORSDOF 1
ENDMDL
MODEL 3
REMARK VINA RESULT:      -8.1      2.128      2.755
REMARK  1 active torsions:
REMARK  status: ('A' for Active; 'I' for Inactive)
REMARK    1  A    between atoms: C7_9  and  O2_10 
ROOT
HETATM    1  C1  UNL     1      25.087   4.075  51.006  1.00  0.00     0.046 C 
HETATM    2  C2  UNL     1      24.774   2.819  51.708  1.00  0.00     0.253 C 
HETATM    3  N1  UNL     1      25.548   1.690  51.158  1.00  0.00     0.092 N 
HETATM    4  C3  UNL     1      25.674   0.765  52.227  1.00  0.00     0.296 C 
HETATM    5  C4  UNL     1      24.497   0.598  53.086  1.00  0.00     0.199 C 
HETATM    6  O1  UNL     1      23.614   1.635  53.239  1.00  0.00    -0.373 OA
HETATM    7  C5  UNL     1      23.416   2.355  51.994  1.00  0.00     0.121 C 
HETATM    8  C6  UNL     1      22.305   3.302  52.167  1.00  0.00     0.107 C 
HETATM    9  C7  UNL     1      22.536   4.741  52.143  1.00  0.00     0.047 C 
HETATM   10  C8  UNL     1      22.123   5.364  51.018  1.00  0.00     0.051 C 
HETATM   11  C9  UNL     1      21.491   4.825  49.826  1.00  0.00     0.115 C 
HETATM   12  N2  UNL     1      21.129   3.674  49.449  1.00  0.00    -0.270 NA
HETATM   13  C10 UNL     1      20.521   3.356  48.224  1.00  0.00     0.437 C 
HETATM   14  N3  UNL     1      21.436   2.474  47.950  1.00  0.00    -0.406 NA
HETATM   15  C11 UNL     1      22.561   2.146  48.797  1.00  0.00     0.233 C 
HETATM   16  N4  UNL     1      22.084   1.496  50.031  1.00  0.00    -0.353 N 
HETATM   17  C12 UNL     1      20.879   0.935  50.636  1.00  0.00     0.042 A 
HETATM   18  C13 UNL     1      19.532   0.635  50.546  1.00  0.00     0.033 A 
HETATM   19  C14 UNL     1      18.825   0.076  51.584  1.00  0.00     0.046 A 
HETATM   20  C15 UNL     1      19.550  -0.176  52.749  1.00  0.00     0.138 A 
HETATM   21  F1  UNL     1      18.778  -0.726  53.722  1.00  0.00    -0.204 F 
HETATM   22  C16 UNL     1      20.918   0.134  52.826  1.00  0.00     0.083 A 
HETATM   23 CL1  UNL     1      21.501  -0.291  54.416  1.00  0.00    -0.080 Cl
HETATM   24  C17 UNL     1      21.612   0.694  51.774  1.00  0.00     0.019 A 
HETATM   25  C18 UNL     1      22.875   1.196  51.172  1.00  0.00     0.160 A 
HETATM   26  H5  UNL     1      25.222   1.360  50.256  1.00  0.00     0.316 HD
ENDROOT
BRANCH   9  27
HETATM   27  O2  UNL     1      23.131   5.423  53.193  1.00  0.00    -0.365 OA
HETATM   28  H12 UNL     1      24.137   5.502  53.293  1.00  0.00     0.217 HD
ENDBRANCH   9  27
TORSDOF 1
ENDMDL
MODEL 4
REMARK VINA RESULT:      -7.7      3.791      5.968
REMARK  1 active torsions:
REMARK  status: ('A' for Active; 'I' for Inactive)
REMARK    1  A    between atoms: C7_9  and  O2_10 
ROOT
HETATM    1  C1  UNL     1      22.281   1.898  50.972  1.00  0.00     0.046 C 
HETATM    2  C2  UNL     1      23.694   2.308  50.917  1.00  0.00     0.253 C 
HETATM    3  N1  UNL     1      24.252   2.490  52.270  1.00  0.00     0.092 N 
HETATM    4  C3  UNL     1      25.643   2.245  52.139  1.00  0.00     0.296 C 
HETATM    5  C4  UNL     1      26.283   2.758  50.923  1.00  0.00     0.199 C 
HETATM    6  O1  UNL     1      25.547   2.898  49.775  1.00  0.00    -0.373 OA
HETATM    7  C5  UNL     1      24.205   3.375  50.057  1.00  0.00     0.121 C 
HETATM    8  C6  UNL     1      23.548   3.714  48.786  1.00  0.00     0.107 C 
HETATM    9  C7  UNL     1      22.411   2.940  48.300  1.00  0.00     0.047 C 
HETATM   10  C8  UNL     1      21.215   3.558  48.412  1.00  0.00     0.051 C 
HETATM   11  C9  UNL     1      20.882   4.868  48.945  1.00  0.00     0.115 C 
HETATM   12  N2  UNL     1      21.541   5.821  49.451  1.00  0.00    -0.270 NA
HETATM   13  C10 UNL     1      21.016   7.036  49.920  1.00  0.00     0.437 C 
HETATM   14  N3  UNL     1      21.555   6.866  51.091  1.00  0.00    -0.406 NA
HETATM   15  C11 UNL     1      22.363   5.733  51.484  1.00  0.00     0.233 C 
HETATM   16  N4  UNL     1      23.629   5.736  50.728  1.00  0.00    -0.353 N 
HETATM   17  C12 UNL     1      24.418   6.568  49.823  1.00  0.00     0.042 A 
HETATM   18  C13 UNL     1      24.568   7.749  49.119  1.00  0.00     0.033 A 
HETATM   19  C14 UNL     1      25.637   7.985  48.286  1.00  0.00     0.046 A 
HETATM   20  C15 UNL     1      26.574   6.956  48.189  1.00  0.00     0.138 A 
HETATM   21  F1  UNL     1      27.592   7.271  47.349  1.00  0.00    -0.204 F 
HETATM   22  C16 UNL     1      26.408   5.763  48.911  1.00  0.00     0.083 A 
HETATM   23 CL1  UNL     1      27.742   4.696  48.546  1.00  0.00    -0.080 Cl
HETATM   24  C17 UNL     1      25.330   5.542  49.744  1.00  0.00     0.019 A 
HETATM   25  C18 UNL     1      24.589   4.692  50.711  1.00  0.00     0.160 A 
HETATM   26  H5  UNL     1      23.943   3.334  52.740  1.00  0.00     0.316 HD
ENDROOT
BRANCH   9  27
HETATM   27  O2  UNL     1      22.543   1.670  47.762  1.00  0.00    -0.365 OA
HETATM   28  H12 UNL     1      22.287   0.832  48.271  1.00  0.00     0.217 HD
ENDBRANCH   9  27
TORSDOF 1
ENDMDL
MODEL 5
REMARK VINA RESULT:      -7.4     11.229     13.115
REMARK  1 active torsions:
REMARK  status: ('A' for Active; 'I' for Inactive)
REMARK    1  A    between atoms: C7_9  and  O2_10 
ROOT
HETATM    1  C1  UNL     1      32.538   7.891  49.462  1.00  0.00     0.046 C 
HETATM    2  C2  UNL     1      32.161   8.295  48.097  1.00  0.00     0.253 C 
HETATM    3  N1  UNL     1      30.702   8.205  47.896  1.00  0.00     0.092 N 
HETATM    4  C3  UNL     1      30.403   9.159  46.889  1.00  0.00     0.296 C 
HETATM    5  C4  UNL     1      31.367   9.269  45.789  1.00  0.00     0.199 C 
HETATM    6  O1  UNL     1      32.685   8.961  46.006  1.00  0.00    -0.373 OA
HETATM    7  C5  UNL     1      32.826   7.815  46.886  1.00  0.00     0.121 C 
HETATM    8  C6  UNL     1      34.238   7.402  46.901  1.00  0.00     0.107 C 
HETATM    9  C7  UNL     1      35.045   7.537  48.108  1.00  0.00     0.047 C 
HETATM   10  C8  UNL     1      35.304   6.378  48.751  1.00  0.00     0.051 C 
HETATM   11  C9  UNL     1      34.900   5.019  48.433  1.00  0.00     0.115 C 
HETATM   12  N2  UNL     1      34.219   4.481  47.513  1.00  0.00    -0.270 NA
HETATM   13  C10 UNL     1      33.935   3.112  47.385  1.00  0.00     0.437 C 
HETATM   14  N3  UNL     1      32.655   3.338  47.345  1.00  0.00    -0.406 NA
HETATM   15  C11 UNL     1      32.033   4.641  47.423  1.00  0.00     0.233 C 
HETATM   16  N4  UNL     1      32.367   5.426  46.221  1.00  0.00    -0.353 N 
HETATM   17  C12 UNL     1      32.990   5.295  44.906  1.00  0.00     0.042 A 
HETATM   18  C13 UNL     1      33.617   4.505  43.960  1.00  0.00     0.033 A 
HETATM   19  C14 UNL     1      34.085   5.005  42.768  1.00  0.00     0.046 A 
HETATM   20  C15 UNL     1      33.890   6.370  42.561  1.00  0.00     0.138 A 
HETATM   21  F1  UNL     1      34.381   6.781  41.363  1.00  0.00    -0.204 F 
HETATM   22  C16 UNL     1      33.251   7.161  43.531  1.00  0.00     0.083 A 
HETATM   23 CL1  UNL     1      33.190   8.810  42.960  1.00  0.00    -0.080 Cl
HETATM   24  C17 UNL     1      32.786   6.642  44.722  1.00  0.00     0.019 A 
HETATM   25  C18 UNL     1      32.088   6.804  46.024  1.00  0.00     0.160 A 
HETATM   26  H5  UNL     1      30.350   7.259  47.798  1.00  0.00     0.316 HD
ENDROOT
BRANCH   9  27
HETATM   27  O2  UNL     1      35.515   8.759  48.563  1.00  0.00    -0.365 OA
HETATM   28  H12 UNL     1      35.477   9.602  48.002  1.00  0.00     0.217 HD
ENDBRANCH   9  27
TORSDOF 1
ENDMDL
MODEL 6
REMARK VINA RESULT:      -7.1     10.034     12.319
REMARK  1 active torsions:
REMARK  status: ('A' for Active; 'I' for Inactive)
REMARK    1  A    between atoms: C7_9  and  O2_10 
ROOT
HETATM    1  C1  UNL     1      31.993   7.969  49.632  1.00  0.00     0.046 C 
HETATM    2  C2  UNL     1      33.010   7.222  48.873  1.00  0.00     0.253 C 
HETATM    3  N1  UNL     1      34.308   7.922  48.886  1.00  0.00     0.092 N 
HETATM    4  C3  UNL     1      35.285   6.904  48.728  1.00  0.00     0.296 C 
HETATM    5  C4  UNL     1      34.956   5.825  47.792  1.00  0.00     0.199 C 
HETATM    6  O1  UNL     1      33.644   5.492  47.572  1.00  0.00    -0.373 OA
HETATM    7  C5  UNL     1      32.794   6.668  47.537  1.00  0.00     0.121 C 
HETATM    8  C6  UNL     1      31.454   6.269  47.081  1.00  0.00     0.107 C 
HETATM    9  C7  UNL     1      30.307   6.335  47.979  1.00  0.00     0.047 C 
HETATM   10  C8  UNL     1      29.451   7.350  47.734  1.00  0.00     0.051 C 
HETATM   11  C9  UNL     1      29.496   8.391  46.721  1.00  0.00     0.115 C 
HETATM   12  N2  UNL     1      30.288   8.690  45.782  1.00  0.00    -0.270 NA
HETATM   13  C10 UNL     1      30.149   9.767  44.891  1.00  0.00     0.437 C 
HETATM   14  N3  UNL     1      31.328  10.224  45.194  1.00  0.00    -0.406 NA
HETATM   15  C11 UNL     1      32.240   9.625  46.143  1.00  0.00     0.233 C 
HETATM   16  N4  UNL     1      32.704   8.322  45.634  1.00  0.00    -0.353 N 
HETATM   17  C12 UNL     1      32.678   7.486  44.436  1.00  0.00     0.042 A 
HETATM   18  C13 UNL     1      32.286   7.302  43.123  1.00  0.00     0.033 A 
HETATM   19  C14 UNL     1      32.542   6.144  42.428  1.00  0.00     0.046 A 
HETATM   20  C15 UNL     1      33.228   5.151  43.128  1.00  0.00     0.138 A 
HETATM   21  F1  UNL     1      33.438   4.044  42.371  1.00  0.00    -0.204 F 
HETATM   22  C16 UNL     1      33.620   5.353  44.462  1.00  0.00     0.083 A 
HETATM   23 CL1  UNL     1      34.433   3.916  45.032  1.00  0.00    -0.080 Cl
HETATM   24  C17 UNL     1      33.357   6.523  45.144  1.00  0.00     0.019 A 
HETATM   25  C18 UNL     1      33.461   7.367  46.363  1.00  0.00     0.160 A 
HETATM   26  H5  UNL     1      34.348   8.740  48.287  1.00  0.00     0.316 HD
ENDROOT
BRANCH   9  27
HETATM   27  O2  UNL     1      30.105   5.425  49.006  1.00  0.00    -0.365 OA
HETATM   28  H12 UNL     1      29.942   5.711  49.964  1.00  0.00     0.217 HD
ENDBRANCH   9  27
TORSDOF 1
ENDMDL
MODEL 7
REMARK VINA RESULT:      -7.1      8.701     11.560
REMARK  1 active torsions:
REMARK  status: ('A' for Active; 'I' for Inactive)
REMARK    1  A    between atoms: C7_9  and  O2_10 
ROOT
HETATM    1  C1  UNL     1      32.527  11.530  46.202  1.00  0.00     0.046 C 
HETATM    2  C2  UNL     1      31.298  11.371  46.998  1.00  0.00     0.253 C 
HETATM    3  N1  UNL     1      31.491  11.849  48.380  1.00  0.00     0.092 N 
HETATM    4  C3  UNL     1      30.201  12.244  48.823  1.00  0.00     0.296 C 
HETATM    5  C4  UNL     1      29.081  11.394  48.409  1.00  0.00     0.199 C 
HETATM    6  O1  UNL     1      29.165  10.679  47.242  1.00  0.00    -0.373 OA
HETATM    7  C5  UNL     1      30.499  10.146  47.038  1.00  0.00     0.121 C 
HETATM    8  C6  UNL     1      30.468   9.216  45.899  1.00  0.00     0.107 C 
HETATM    9  C7  UNL     1      31.167   9.527  44.658  1.00  0.00     0.047 C 
HETATM   10  C8  UNL     1      32.300   8.821  44.453  1.00  0.00     0.051 C 
HETATM   11  C9  UNL     1      32.935   7.807  45.276  1.00  0.00     0.115 C 
HETATM   12  N2  UNL     1      32.672   7.264  46.388  1.00  0.00    -0.270 NA
HETATM   13  C10 UNL     1      33.437   6.277  47.030  1.00  0.00     0.437 C 
HETATM   14  N3  UNL     1      33.533   6.994  48.111  1.00  0.00    -0.406 NA
HETATM   15  C11 UNL     1      32.952   8.305  48.299  1.00  0.00     0.233 C 
HETATM   16  N4  UNL     1      31.482   8.202  48.310  1.00  0.00    -0.353 N 
HETATM   17  C12 UNL     1      30.404   7.216  48.343  1.00  0.00     0.042 A 
HETATM   18  C13 UNL     1      30.003   5.893  48.384  1.00  0.00     0.033 A 
HETATM   19  C14 UNL     1      28.681   5.517  48.346  1.00  0.00     0.046 A 
HETATM   20  C15 UNL     1      27.754   6.556  48.262  1.00  0.00     0.138 A 
HETATM   21  F1  UNL     1      26.476   6.098  48.228  1.00  0.00    -0.204 F 
HETATM   22  C16 UNL     1      28.176   7.895  48.222  1.00  0.00     0.083 A 
HETATM   23 CL1  UNL     1      26.770   8.924  48.103  1.00  0.00    -0.080 Cl
HETATM   24  C17 UNL     1      29.507   8.255  48.264  1.00  0.00     0.019 A 
HETATM   25  C18 UNL     1      30.572   9.292  48.293  1.00  0.00     0.160 A 
HETATM   26  H5  UNL     1      32.044  11.231  48.964  1.00  0.00     0.316 HD
ENDROOT
BRANCH   9  27
HETATM   27  O2  UNL     1      30.707  10.471  43.754  1.00  0.00    -0.365 OA
HETATM   28  H12 UNL     1      31.214  11.324  43.549  1.00  0.00     0.217 HD
ENDBRANCH   9  27
TORSDOF 1
ENDMDL
MODEL 8
REMARK VINA RESULT:      -7.0      8.835     11.679
REMARK  1 active torsions:
REMARK  status: ('A' for Active; 'I' for Inactive)
REMARK    1  A    between atoms: C7_9  and  O2_10 
ROOT
HETATM    1  C1  UNL     1      34.276   8.591  45.078  1.00  0.00     0.046 C 
HETATM    2  C2  UNL     1      33.123   9.239  45.726  1.00  0.00     0.253 C 
HETATM    3  N1  UNL     1      33.531   9.967  46.942  1.00  0.00     0.092 N 
HETATM    4  C3  UNL     1      32.577  11.007  47.095  1.00  0.00     0.296 C 
HETATM    5  C4  UNL     1      31.185  10.663  46.786  1.00  0.00     0.199 C 
HETATM    6  O1  UNL     1      30.915   9.676  45.874  1.00  0.00    -0.373 OA
HETATM    7  C5  UNL     1      31.848   8.571  45.991  1.00  0.00     0.121 C 
HETATM    8  C6  UNL     1      31.376   7.462  45.149  1.00  0.00     0.107 C 
HETATM    9  C7  UNL     1      32.125   7.046  43.969  1.00  0.00     0.047 C 
HETATM   10  C8  UNL     1      32.801   5.884  44.106  1.00  0.00     0.051 C 
HETATM   11  C9  UNL     1      32.904   4.988  45.245  1.00  0.00     0.115 C 
HETATM   12  N2  UNL     1      32.434   4.977  46.419  1.00  0.00    -0.270 NA
HETATM   13  C10 UNL     1      32.663   3.993  47.394  1.00  0.00     0.437 C 
HETATM   14  N3  UNL     1      33.093   4.876  48.246  1.00  0.00    -0.406 NA
HETATM   15  C11 UNL     1      33.187   6.298  48.000  1.00  0.00     0.233 C 
HETATM   16  N4  UNL     1      31.836   6.869  47.852  1.00  0.00    -0.353 N 
HETATM   17  C12 UNL     1      30.425   6.525  48.012  1.00  0.00     0.042 A 
HETATM   18  C13 UNL     1      29.458   5.598  48.355  1.00  0.00     0.033 A 
HETATM   19  C14 UNL     1      28.112   5.857  48.251  1.00  0.00     0.046 A 
HETATM   20  C15 UNL     1      27.769   7.122  47.776  1.00  0.00     0.138 A 
HETATM   21  F1  UNL     1      26.424   7.294  47.704  1.00  0.00    -0.204 F 
HETATM   22  C16 UNL     1      28.762   8.054  47.432  1.00  0.00     0.083 A 
HETATM   23 CL1  UNL     1      27.990   9.514  46.863  1.00  0.00    -0.080 Cl
HETATM   24  C17 UNL     1      30.109   7.779  47.543  1.00  0.00     0.019 A 
HETATM   25  C18 UNL     1      31.533   8.190  47.428  1.00  0.00     0.160 A 
HETATM   26  H5  UNL     1      33.743   9.372  47.735  1.00  0.00     0.316 HD
ENDROOT
BRANCH   9  27
HETATM   27  O2  UNL     1      32.142   7.781  42.794  1.00  0.00    -0.365 OA
HETATM   28  H12 UNL     1      31.332   8.285  42.453  1.00  0.00     0.217 HD
ENDBRANCH   9  27
TORSDOF 1
ENDMDL
MODEL 9
REMARK VINA RESULT:      -6.8     10.772     12.577
REMARK  1 active torsions:
REMARK  status: ('A' for Active; 'I' for Inactive)
REMARK    1  A    between atoms: C7_9  and  O2_10 
ROOT
HETATM    1  C1  UNL     1      33.113   9.732  43.559  1.00  0.00     0.046 C 
HETATM    2  C2  UNL     1      33.308   8.281  43.399  1.00  0.00     0.253 C 
HETATM    3  N1  UNL     1      32.277   7.696  42.522  1.00  0.00     0.092 N 
HETATM    4  C3  UNL     1      32.883   6.550  41.944  1.00  0.00     0.296 C 
HETATM    5  C4  UNL     1      33.744   5.754  42.824  1.00  0.00     0.199 C 
HETATM    6  O1  UNL     1      34.390   6.359  43.871  1.00  0.00    -0.373 OA
HETATM    7  C5  UNL     1      33.553   7.359  44.508  1.00  0.00     0.121 C 
HETATM    8  C6  UNL     1      34.210   7.808  45.745  1.00  0.00     0.107 C 
HETATM    9  C7  UNL     1      34.715   9.169  45.874  1.00  0.00     0.047 C 
HETATM   10  C8  UNL     1      33.976   9.977  46.664  1.00  0.00     0.051 C 
HETATM   11  C9  UNL     1      32.753   9.706  47.400  1.00  0.00     0.115 C 
HETATM   12  N2  UNL     1      32.008   8.696  47.554  1.00  0.00    -0.270 NA
HETATM   13  C10 UNL     1      30.837   8.639  48.327  1.00  0.00     0.437 C 
HETATM   14  N3  UNL     1      30.136   8.224  47.313  1.00  0.00    -0.406 NA
HETATM   15  C11 UNL     1      30.650   7.988  45.982  1.00  0.00     0.233 C 
HETATM   16  N4  UNL     1      31.586   6.849  46.002  1.00  0.00    -0.353 N 
HETATM   17  C12 UNL     1      32.066   5.780  46.873  1.00  0.00     0.042 A 
HETATM   18  C13 UNL     1      32.029   5.133  48.095  1.00  0.00     0.033 A 
HETATM   19  C14 UNL     1      32.847   4.070  48.397  1.00  0.00     0.046 A 
HETATM   20  C15 UNL     1      33.729   3.674  47.392  1.00  0.00     0.138 A 
HETATM   21  F1  UNL     1      34.499   2.623  47.772  1.00  0.00    -0.204 F 
HETATM   22  C16 UNL     1      33.756   4.341  46.155  1.00  0.00     0.083 A 
HETATM   23 CL1  UNL     1      34.976   3.605  45.147  1.00  0.00    -0.080 Cl
HETATM   24  C17 UNL     1      32.926   5.405  45.867  1.00  0.00     0.019 A 
HETATM   25  C18 UNL     1      32.418   6.439  44.928  1.00  0.00     0.160 A 
HETATM   26  H5  UNL     1      31.363   7.606  42.953  1.00  0.00     0.316 HD
ENDROOT
BRANCH   9  27
HETATM   27  O2  UNL     1      35.868   9.604  45.239  1.00  0.00    -0.365 OA
HETATM   28  H12 UNL     1      36.700   9.031  45.164  1.00  0.00     0.217 HD
ENDBRANCH   9  27
TORSDOF 1
ENDMDL
