MODEL 1
REMARK VINA RESULT:      -7.5      0.000      0.000
REMARK  5 active torsions:
REMARK  status: ('A' for Active; 'I' for Inactive)
REMARK    1  A    between atoms: C2_3  and  S1_4 
REMARK    2  A    between atoms: C2_3  and  N2_6 
REMARK    3  A    between atoms: C4_8  and  C5_9 
REMARK    4  A    between atoms: C12_17  and  C13_18 
REMARK    5  A    between atoms: C16_21  and  O1_22 
ROOT
HETATM    1  N2  UNL     1      23.458   1.941  51.564  1.00  0.00    -0.237 N 
HETATM    2  N3  UNL     1      22.051   1.787  51.448  1.00  0.00    -0.173 NA
HETATM    3  C4  UNL     1      21.663   0.730  52.034  1.00  0.00     0.067 C 
HETATM    4  C11 UNL     1      22.848   0.053  52.625  1.00  0.00     0.094 C 
HETATM    5  C12 UNL     1      23.949   0.632  51.751  1.00  0.00     0.151 C 
ENDROOT
BRANCH   5   6
HETATM    6  C13 UNL     1      25.191   0.500  52.543  1.00  0.00    -0.033 A 
HETATM    7  C14 UNL     1      25.298   0.759  53.899  1.00  0.00     0.012 A 
HETATM    8  C15 UNL     1      26.457   0.628  54.602  1.00  0.00     0.037 A 
HETATM    9  C16 UNL     1      27.604   0.224  53.990  1.00  0.00     0.068 A 
HETATM   10  C18 UNL     1      27.585  -0.056  52.637  1.00  0.00     0.037 A 
HETATM   11  C19 UNL     1      26.395   0.086  51.954  1.00  0.00     0.012 A 
BRANCH   9  12
HETATM   12  O1  UNL     1      28.786   0.090  54.707  1.00  0.00    -0.356 OA
HETATM   13  C17 UNL     1      29.937  -0.457  54.090  1.00  0.00     0.210 C 
ENDBRANCH   9  12
ENDBRANCH   5   6
BRANCH   1  14
HETATM   14  C2  UNL     1      24.020   3.240  51.478  1.00  0.00     0.180 C 
HETATM   15  N1  UNL     1      25.032   3.892  51.011  1.00  0.00    -0.270 NA
HETATM   16  C1  UNL     1      26.122   3.337  50.275  1.00  0.00     0.180 C 
BRANCH  14  17
HETATM   17  S1  UNL     1      22.752   4.141  52.383  1.00  0.00    -0.095 SA
HETATM   18  C3  UNL     1      22.194   5.569  51.418  1.00  0.00     0.099 C 
ENDBRANCH  14  17
ENDBRANCH   1  14
BRANCH   3  19
HETATM   19  C5  UNL     1      20.284   0.236  52.128  1.00  0.00    -0.010 A 
HETATM   20  C6  UNL     1      19.889  -0.479  53.240  1.00  0.00     0.015 A 
HETATM   21  C7  UNL     1      18.577  -0.924  53.282  1.00  0.00     0.020 A 
HETATM   22  C8  UNL     1      17.687  -0.674  52.268  1.00  0.00     0.011 A 
HETATM   23 BR1  UNL     1      15.865  -1.267  52.282  1.00  0.00    -0.051 Br
HETATM   24  C9  UNL     1      18.059   0.038  51.151  1.00  0.00     0.020 A 
HETATM   25  C10 UNL     1      19.377   0.479  51.118  1.00  0.00     0.015 A 
ENDBRANCH   3  19
TORSDOF 5
ENDMDL
MODEL 2
REMARK VINA RESULT:      -7.4      2.989      5.407
REMARK  5 active torsions:
REMARK  status: ('A' for Active; 'I' for Inactive)
REMARK    1  A    between atoms: C2_3  and  S1_4 
REMARK    2  A    between atoms: C2_3  and  N2_6 
REMARK    3  A    between atoms: C4_8  and  C5_9 
REMARK    4  A    between atoms: C12_17  and  C13_18 
REMARK    5  A    between atoms: C16_21  and  O1_22 
ROOT
HETATM    1  N2  UNL     1      22.989   1.681  52.620  1.00  0.00    -0.237 N 
HETATM    2  N3  UNL     1      22.362   2.798  52.006  1.00  0.00    -0.173 NA
HETATM    3  C4  UNL     1      23.224   3.651  51.634  1.00  0.00     0.067 C 
HETATM    4  C11 UNL     1      24.577   3.146  51.990  1.00  0.00     0.094 C 
HETATM    5  C12 UNL     1      24.215   2.181  53.107  1.00  0.00     0.151 C 
ENDROOT
BRANCH   5   6
HETATM    6  C13 UNL     1      25.337   1.221  53.177  1.00  0.00    -0.033 A 
HETATM    7  C14 UNL     1      25.808   0.472  52.111  1.00  0.00     0.012 A 
HETATM    8  C15 UNL     1      26.845  -0.406  52.207  1.00  0.00     0.037 A 
HETATM    9  C16 UNL     1      27.492  -0.598  53.390  1.00  0.00     0.068 A 
HETATM   10  C18 UNL     1      27.087   0.111  54.504  1.00  0.00     0.037 A 
HETATM   11  C19 UNL     1      26.033   0.993  54.374  1.00  0.00     0.012 A 
BRANCH   9  12
HETATM   12  O1  UNL     1      28.550  -1.493  53.486  1.00  0.00    -0.356 OA
HETATM   13  C17 UNL     1      29.872  -1.017  53.669  1.00  0.00     0.210 C 
ENDBRANCH   9  12
ENDBRANCH   5   6
BRANCH   1  14
HETATM   14  C2  UNL     1      22.326   0.428  52.617  1.00  0.00     0.180 C 
HETATM   15  N1  UNL     1      22.177  -0.657  53.302  1.00  0.00    -0.270 NA
HETATM   16  C1  UNL     1      22.796  -0.951  54.553  1.00  0.00     0.180 C 
BRANCH  14  17
HETATM   17  S1  UNL     1      21.448   0.593  51.054  1.00  0.00    -0.095 SA
HETATM   18  C3  UNL     1      19.667   0.382  51.315  1.00  0.00     0.099 C 
ENDBRANCH  14  17
ENDBRANCH   1  14
BRANCH   3  19
HETATM   19  C5  UNL     1      22.958   4.930  50.965  1.00  0.00    -0.010 A 
HETATM   20  C6  UNL     1      23.725   5.306  49.880  1.00  0.00     0.015 A 
HETATM   21  C7  UNL     1      23.436   6.522  49.283  1.00  0.00     0.020 A 
HETATM   22  C8  UNL     1      22.429   7.338  49.734  1.00  0.00     0.011 A 
HETATM   23 BR1  UNL     1      21.992   9.027  48.941  1.00  0.00    -0.051 Br
HETATM   24  C9  UNL     1      21.652   6.983  50.812  1.00  0.00     0.020 A 
HETATM   25  C10 UNL     1      21.950   5.762  51.405  1.00  0.00     0.015 A 
ENDBRANCH   3  19
TORSDOF 5
ENDMDL
MODEL 3
REMARK VINA RESULT:      -7.4      4.671      7.797
REMARK  5 active torsions:
REMARK  status: ('A' for Active; 'I' for Inactive)
REMARK    1  A    between atoms: C2_3  and  S1_4 
REMARK    2  A    between atoms: C2_3  and  N2_6 
REMARK    3  A    between atoms: C4_8  and  C5_9 
REMARK    4  A    between atoms: C12_17  and  C13_18 
REMARK    5  A    between atoms: C16_21  and  O1_22 
ROOT
HETATM    1  N2  UNL     1      23.093   4.179  49.886  1.00  0.00    -0.237 N 
HETATM    2  N3  UNL     1      23.978   4.971  49.107  1.00  0.00    -0.173 NA
HETATM    3  C4  UNL     1      25.182   4.778  49.457  1.00  0.00     0.067 C 
HETATM    4  C11 UNL     1      25.202   3.784  50.563  1.00  0.00     0.094 C 
HETATM    5  C12 UNL     1      23.787   3.946  51.092  1.00  0.00     0.151 C 
ENDROOT
BRANCH   5   6
HETATM    6  C13 UNL     1      23.481   2.681  51.795  1.00  0.00    -0.033 A 
HETATM    7  C14 UNL     1      22.250   2.353  52.337  1.00  0.00     0.012 A 
HETATM    8  C15 UNL     1      21.999   1.178  52.979  1.00  0.00     0.037 A 
HETATM    9  C16 UNL     1      22.974   0.238  53.125  1.00  0.00     0.068 A 
HETATM   10  C18 UNL     1      24.233   0.486  52.612  1.00  0.00     0.037 A 
HETATM   11  C19 UNL     1      24.454   1.685  51.967  1.00  0.00     0.012 A 
BRANCH   9  12
HETATM   12  O1  UNL     1      22.717  -0.959  53.780  1.00  0.00    -0.356 OA
HETATM   13  C17 UNL     1      21.551  -1.104  54.570  1.00  0.00     0.210 C 
ENDBRANCH   9  12
ENDBRANCH   5   6
BRANCH   1  14
HETATM   14  C2  UNL     1      21.830   3.823  49.349  1.00  0.00     0.180 C 
HETATM   15  N1  UNL     1      20.576   4.132  49.383  1.00  0.00    -0.270 NA
HETATM   16  C1  UNL     1      19.988   5.170  50.165  1.00  0.00     0.180 C 
BRANCH  14  17
HETATM   17  S1  UNL     1      22.361   2.469  48.288  1.00  0.00    -0.095 SA
HETATM   18  C3  UNL     1      21.558   0.927  48.799  1.00  0.00     0.099 C 
ENDBRANCH  14  17
ENDBRANCH   1  14
BRANCH   3  19
HETATM   19  C5  UNL     1      26.374   5.416  48.884  1.00  0.00    -0.010 A 
HETATM   20  C6  UNL     1      26.305   6.721  48.441  1.00  0.00     0.015 A 
HETATM   21  C7  UNL     1      27.456   7.278  47.908  1.00  0.00     0.020 A 
HETATM   22  C8  UNL     1      28.632   6.578  47.815  1.00  0.00     0.011 A 
HETATM   23 BR1  UNL     1      30.248   7.305  47.087  1.00  0.00    -0.051 Br
HETATM   24  C9  UNL     1      28.725   5.276  48.252  1.00  0.00     0.020 A 
HETATM   25  C10 UNL     1      27.564   4.726  48.783  1.00  0.00     0.015 A 
ENDBRANCH   3  19
TORSDOF 5
ENDMDL
MODEL 4
REMARK VINA RESULT:      -7.4      4.013      7.350
REMARK  5 active torsions:
REMARK  status: ('A' for Active; 'I' for Inactive)
REMARK    1  A    between atoms: C2_3  and  S1_4 
REMARK    2  A    between atoms: C2_3  and  N2_6 
REMARK    3  A    between atoms: C4_8  and  C5_9 
REMARK    4  A    between atoms: C12_17  and  C13_18 
REMARK    5  A    between atoms: C16_21  and  O1_22 
ROOT
HETATM    1  N2  UNL     1      22.300   1.665  52.067  1.00  0.00    -0.237 N 
HETATM    2  N3  UNL     1      23.720   1.683  52.099  1.00  0.00    -0.173 NA
HETATM    3  C4  UNL     1      24.169   0.687  52.745  1.00  0.00     0.067 C 
HETATM    4  C11 UNL     1      23.019  -0.125  53.226  1.00  0.00     0.094 C 
HETATM    5  C12 UNL     1      21.924   0.929  53.211  1.00  0.00     0.151 C 
ENDROOT
BRANCH   5   6
HETATM    6  C13 UNL     1      20.654   0.177  53.123  1.00  0.00    -0.033 A 
HETATM    7  C14 UNL     1      19.565   0.547  52.352  1.00  0.00     0.012 A 
HETATM    8  C15 UNL     1      18.407  -0.168  52.291  1.00  0.00     0.037 A 
HETATM    9  C16 UNL     1      18.256  -1.317  53.007  1.00  0.00     0.068 A 
HETATM   10  C18 UNL     1      19.296  -1.759  53.802  1.00  0.00     0.037 A 
HETATM   11  C19 UNL     1      20.456  -1.012  53.841  1.00  0.00     0.012 A 
BRANCH   9  12
HETATM   12  O1  UNL     1      17.075  -2.045  52.944  1.00  0.00    -0.356 OA
HETATM   13  C17 UNL     1      17.035  -3.379  53.419  1.00  0.00     0.210 C 
ENDBRANCH   9  12
ENDBRANCH   5   6
BRANCH   1  14
HETATM   14  C2  UNL     1      21.624   2.319  51.007  1.00  0.00     0.180 C 
HETATM   15  N1  UNL     1      21.211   2.153  49.794  1.00  0.00    -0.270 NA
HETATM   16  C1  UNL     1      21.363   0.971  49.010  1.00  0.00     0.180 C 
BRANCH  14  17
HETATM   17  S1  UNL     1      21.326   3.901  51.814  1.00  0.00    -0.095 SA
HETATM   18  C3  UNL     1      20.610   5.076  50.636  1.00  0.00     0.099 C 
ENDBRANCH  14  17
ENDBRANCH   1  14
BRANCH   3  19
HETATM   19  C5  UNL     1      25.580   0.367  52.992  1.00  0.00    -0.010 A 
HETATM   20  C6  UNL     1      26.405   1.312  53.567  1.00  0.00     0.015 A 
HETATM   21  C7  UNL     1      27.728   0.962  53.779  1.00  0.00     0.020 A 
HETATM   22  C8  UNL     1      28.223  -0.272  53.439  1.00  0.00     0.011 A 
HETATM   23 BR1  UNL     1      30.044  -0.801  53.713  1.00  0.00    -0.051 Br
HETATM   24  C9  UNL     1      27.418  -1.230  52.865  1.00  0.00     0.020 A 
HETATM   25  C10 UNL     1      26.093  -0.869  52.656  1.00  0.00     0.015 A 
ENDBRANCH   3  19
TORSDOF 5
ENDMDL
MODEL 5
REMARK VINA RESULT:      -7.3      4.143      7.441
REMARK  5 active torsions:
REMARK  status: ('A' for Active; 'I' for Inactive)
REMARK    1  A    between atoms: C2_3  and  S1_4 
REMARK    2  A    between atoms: C2_3  and  N2_6 
REMARK    3  A    between atoms: C4_8  and  C5_9 
REMARK    4  A    between atoms: C12_17  and  C13_18 
REMARK    5  A    between atoms: C16_21  and  O1_22 
ROOT
HETATM    1  N2  UNL     1      23.033   3.154  51.329  1.00  0.00    -0.237 N 
HETATM    2  N3  UNL     1      24.401   2.832  51.533  1.00  0.00    -0.173 NA
HETATM    3  C4  UNL     1      24.518   1.706  52.106  1.00  0.00     0.067 C 
HETATM    4  C11 UNL     1      23.159   1.152  52.347  1.00  0.00     0.094 C 
HETATM    5  C12 UNL     1      22.341   2.432  52.325  1.00  0.00     0.151 C 
ENDROOT
BRANCH   5   6
HETATM    6  C13 UNL     1      20.962   2.014  51.998  1.00  0.00    -0.033 A 
HETATM    7  C14 UNL     1      19.860   2.852  51.989  1.00  0.00     0.012 A 
HETATM    8  C15 UNL     1      18.599   2.436  51.683  1.00  0.00     0.037 A 
HETATM    9  C16 UNL     1      18.351   1.136  51.359  1.00  0.00     0.068 A 
HETATM   10  C18 UNL     1      19.396   0.233  51.342  1.00  0.00     0.037 A 
HETATM   11  C19 UNL     1      20.660   0.686  51.657  1.00  0.00     0.012 A 
BRANCH   9  12
HETATM   12  O1  UNL     1      17.065   0.713  51.046  1.00  0.00    -0.356 OA
HETATM   13  C17 UNL     1      16.853  -0.193  49.979  1.00  0.00     0.210 C 
ENDBRANCH   9  12
ENDBRANCH   5   6
BRANCH   1  14
HETATM   14  C2  UNL     1      22.681   4.040  50.280  1.00  0.00     0.180 C 
HETATM   15  N1  UNL     1      22.139   5.189  50.044  1.00  0.00    -0.270 NA
HETATM   16  C1  UNL     1      21.625   6.091  51.022  1.00  0.00     0.180 C 
BRANCH  14  17
HETATM   17  S1  UNL     1      23.265   3.056  48.890  1.00  0.00    -0.095 SA
HETATM   18  C3  UNL     1      22.007   1.841  48.416  1.00  0.00     0.099 C 
ENDBRANCH  14  17
ENDBRANCH   1  14
BRANCH   3  19
HETATM   19  C5  UNL     1      25.772   1.040  52.481  1.00  0.00    -0.010 A 
HETATM   20  C6  UNL     1      25.812  -0.336  52.578  1.00  0.00     0.015 A 
HETATM   21  C7  UNL     1      27.018  -0.918  52.935  1.00  0.00     0.020 A 
HETATM   22  C8  UNL     1      28.143  -0.174  53.186  1.00  0.00     0.011 A 
HETATM   23 BR1  UNL     1      29.831  -0.932  53.682  1.00  0.00    -0.051 Br
HETATM   24  C9  UNL     1      28.126   1.199  53.094  1.00  0.00     0.020 A 
HETATM   25  C10 UNL     1      26.912   1.773  52.736  1.00  0.00     0.015 A 
ENDBRANCH   3  19
TORSDOF 5
ENDMDL
MODEL 6
REMARK VINA RESULT:      -7.2      4.121      7.430
REMARK  5 active torsions:
REMARK  status: ('A' for Active; 'I' for Inactive)
REMARK    1  A    between atoms: C2_3  and  S1_4 
REMARK    2  A    between atoms: C2_3  and  N2_6 
REMARK    3  A    between atoms: C4_8  and  C5_9 
REMARK    4  A    between atoms: C12_17  and  C13_18 
REMARK    5  A    between atoms: C16_21  and  O1_22 
ROOT
HETATM    1  N2  UNL     1      23.214   2.923  50.902  1.00  0.00    -0.237 N 
HETATM    2  N3  UNL     1      24.591   2.655  51.126  1.00  0.00    -0.173 NA
HETATM    3  C4  UNL     1      24.736   1.662  51.902  1.00  0.00     0.067 C 
HETATM    4  C11 UNL     1      23.390   1.156  52.283  1.00  0.00     0.094 C 
HETATM    5  C12 UNL     1      22.557   2.403  52.037  1.00  0.00     0.151 C 
ENDROOT
BRANCH   5   6
HETATM    6  C13 UNL     1      21.175   1.919  51.835  1.00  0.00    -0.033 A 
HETATM    7  C14 UNL     1      20.828   0.614  51.532  1.00  0.00     0.012 A 
HETATM    8  C15 UNL     1      19.543   0.198  51.351  1.00  0.00     0.037 A 
HETATM    9  C16 UNL     1      18.503   1.071  51.463  1.00  0.00     0.068 A 
HETATM   10  C18 UNL     1      18.762   2.394  51.764  1.00  0.00     0.037 A 
HETATM   11  C19 UNL     1      20.074   2.782  51.941  1.00  0.00     0.012 A 
BRANCH   9  12
HETATM   12  O1  UNL     1      17.194   0.646  51.279  1.00  0.00    -0.356 OA
HETATM   13  C17 UNL     1      16.784   0.119  50.030  1.00  0.00     0.210 C 
ENDBRANCH   9  12
ENDBRANCH   5   6
BRANCH   1  14
HETATM   14  C2  UNL     1      22.824   3.587  49.711  1.00  0.00     0.180 C 
HETATM   15  N1  UNL     1      22.348   3.380  48.528  1.00  0.00    -0.270 NA
HETATM   16  C1  UNL     1      22.003   2.113  47.972  1.00  0.00     0.180 C 
BRANCH  14  17
HETATM   17  S1  UNL     1      23.193   5.276  50.213  1.00  0.00    -0.095 SA
HETATM   18  C3  UNL     1      21.798   5.971  51.136  1.00  0.00     0.099 C 
ENDBRANCH  14  17
ENDBRANCH   1  14
BRANCH   3  19
HETATM   19  C5  UNL     1      26.007   1.089  52.364  1.00  0.00    -0.010 A 
HETATM   20  C6  UNL     1      27.026   1.926  52.771  1.00  0.00     0.015 A 
HETATM   21  C7  UNL     1      28.205   1.337  53.197  1.00  0.00     0.020 A 
HETATM   22  C8  UNL     1      28.376  -0.024  53.222  1.00  0.00     0.011 A 
HETATM   23 BR1  UNL     1      29.987  -0.883  53.803  1.00  0.00    -0.051 Br
HETATM   24  C9  UNL     1      27.374  -0.877  52.822  1.00  0.00     0.020 A 
HETATM   25  C10 UNL     1      26.195  -0.277  52.395  1.00  0.00     0.015 A 
ENDBRANCH   3  19
TORSDOF 5
ENDMDL
MODEL 7
REMARK VINA RESULT:      -7.0      4.415      7.163
REMARK  5 active torsions:
REMARK  status: ('A' for Active; 'I' for Inactive)
REMARK    1  A    between atoms: C2_3  and  S1_4 
REMARK    2  A    between atoms: C2_3  and  N2_6 
REMARK    3  A    between atoms: C4_8  and  C5_9 
REMARK    4  A    between atoms: C12_17  and  C13_18 
REMARK    5  A    between atoms: C16_21  and  O1_22 
ROOT
HETATM    1  N2  UNL     1      23.669   3.776  50.598  1.00  0.00    -0.237 N 
HETATM    2  N3  UNL     1      23.938   4.853  49.711  1.00  0.00    -0.173 NA
HETATM    3  C4  UNL     1      25.188   5.003  49.550  1.00  0.00     0.067 C 
HETATM    4  C11 UNL     1      25.898   3.979  50.363  1.00  0.00     0.094 C 
HETATM    5  C12 UNL     1      24.828   3.671  51.397  1.00  0.00     0.151 C 
ENDROOT
BRANCH   5   6
HETATM    6  C13 UNL     1      25.153   2.324  51.912  1.00  0.00    -0.033 A 
HETATM    7  C14 UNL     1      24.440   1.656  52.893  1.00  0.00     0.012 A 
HETATM    8  C15 UNL     1      24.765   0.413  53.348  1.00  0.00     0.037 A 
HETATM    9  C16 UNL     1      25.840  -0.256  52.845  1.00  0.00     0.068 A 
HETATM   10  C18 UNL     1      26.606   0.339  51.861  1.00  0.00     0.037 A 
HETATM   11  C19 UNL     1      26.250   1.598  51.423  1.00  0.00     0.012 A 
BRANCH   9  12
HETATM   12  O1  UNL     1      26.170  -1.523  53.308  1.00  0.00    -0.356 OA
HETATM   13  C17 UNL     1      27.151  -2.293  52.637  1.00  0.00     0.210 C 
ENDBRANCH   9  12
ENDBRANCH   5   6
BRANCH   1  14
HETATM   14  C2  UNL     1      22.426   3.101  50.508  1.00  0.00     0.180 C 
HETATM   15  N1  UNL     1      21.764   2.260  49.785  1.00  0.00    -0.270 NA
HETATM   16  C1  UNL     1      22.227   1.634  48.589  1.00  0.00     0.180 C 
BRANCH  14  17
HETATM   17  S1  UNL     1      21.648   3.774  51.985  1.00  0.00    -0.095 SA
HETATM   18  C3  UNL     1      19.885   3.358  52.005  1.00  0.00     0.099 C 
ENDBRANCH  14  17
ENDBRANCH   1  14
BRANCH   3  19
HETATM   19  C5  UNL     1      25.848   6.008  48.710  1.00  0.00    -0.010 A 
HETATM   20  C6  UNL     1      25.090   6.961  48.060  1.00  0.00     0.015 A 
HETATM   21  C7  UNL     1      25.759   7.888  47.278  1.00  0.00     0.020 A 
HETATM   22  C8  UNL     1      27.124   7.880  47.140  1.00  0.00     0.011 A 
HETATM   23 BR1  UNL     1      28.094   9.140  46.071  1.00  0.00    -0.051 Br
HETATM   24  C9  UNL     1      27.901   6.940  47.780  1.00  0.00     0.020 A 
HETATM   25  C10 UNL     1      27.220   6.014  48.561  1.00  0.00     0.015 A 
ENDBRANCH   3  19
TORSDOF 5
ENDMDL
MODEL 8
REMARK VINA RESULT:      -6.9      6.632      9.157
REMARK  5 active torsions:
REMARK  status: ('A' for Active; 'I' for Inactive)
REMARK    1  A    between atoms: C2_3  and  S1_4 
REMARK    2  A    between atoms: C2_3  and  N2_6 
REMARK    3  A    between atoms: C4_8  and  C5_9 
REMARK    4  A    between atoms: C12_17  and  C13_18 
REMARK    5  A    between atoms: C16_21  and  O1_22 
ROOT
HETATM    1  N2  UNL     1      28.659   7.810  47.970  1.00  0.00    -0.237 N 
HETATM    2  N3  UNL     1      27.405   7.258  48.345  1.00  0.00    -0.173 NA
HETATM    3  C4  UNL     1      27.509   6.012  48.566  1.00  0.00     0.067 C 
HETATM    4  C11 UNL     1      28.923   5.607  48.343  1.00  0.00     0.094 C 
HETATM    5  C12 UNL     1      29.379   6.727  47.423  1.00  0.00     0.151 C 
ENDROOT
BRANCH   5   6
HETATM    6  C13 UNL     1      30.850   6.777  47.563  1.00  0.00    -0.033 A 
HETATM    7  C14 UNL     1      31.711   7.396  46.672  1.00  0.00     0.012 A 
HETATM    8  C15 UNL     1      33.064   7.425  46.828  1.00  0.00     0.037 A 
HETATM    9  C16 UNL     1      33.657   6.830  47.900  1.00  0.00     0.068 A 
HETATM   10  C18 UNL     1      32.871   6.191  48.838  1.00  0.00     0.037 A 
HETATM   11  C19 UNL     1      31.504   6.179  48.651  1.00  0.00     0.012 A 
BRANCH   9  12
HETATM   12  O1  UNL     1      35.037   6.861  48.058  1.00  0.00    -0.356 OA
HETATM   13  C17 UNL     1      35.663   6.026  49.016  1.00  0.00     0.210 C 
ENDBRANCH   9  12
ENDBRANCH   5   6
BRANCH   1  14
HETATM   14  C2  UNL     1      28.902   9.188  48.197  1.00  0.00     0.180 C 
HETATM   15  N1  UNL     1      29.697  10.004  48.806  1.00  0.00    -0.270 NA
HETATM   16  C1  UNL     1      30.820   9.641  49.608  1.00  0.00     0.180 C 
BRANCH  14  17
HETATM   17  S1  UNL     1      27.539   9.863  47.233  1.00  0.00    -0.095 SA
HETATM   18  C3  UNL     1      26.423  10.804  48.307  1.00  0.00     0.099 C 
ENDBRANCH  14  17
ENDBRANCH   1  14
BRANCH   3  19
HETATM   19  C5  UNL     1      26.432   5.102  48.973  1.00  0.00    -0.010 A 
HETATM   20  C6  UNL     1      26.743   3.843  49.446  1.00  0.00     0.015 A 
HETATM   21  C7  UNL     1      25.692   3.021  49.817  1.00  0.00     0.020 A 
HETATM   22  C8  UNL     1      24.383   3.422  49.727  1.00  0.00     0.011 A 
HETATM   23 BR1  UNL     1      22.897   2.321  50.229  1.00  0.00    -0.051 Br
HETATM   24  C9  UNL     1      24.049   4.672  49.260  1.00  0.00     0.020 A 
HETATM   25  C10 UNL     1      25.111   5.489  48.890  1.00  0.00     0.015 A 
ENDBRANCH   3  19
TORSDOF 5
ENDMDL
MODEL 9
REMARK VINA RESULT:      -6.7      2.244      2.619
REMARK  5 active torsions:
REMARK  status: ('A' for Active; 'I' for Inactive)
REMARK    1  A    between atoms: C2_3  and  S1_4 
REMARK    2  A    between atoms: C2_3  and  N2_6 
REMARK    3  A    between atoms: C4_8  and  C5_9 
REMARK    4  A    between atoms: C12_17  and  C13_18 
REMARK    5  A    between atoms: C16_21  and  O1_22 
ROOT
HETATM    1  N2  UNL     1      24.007   3.721  50.242  1.00  0.00    -0.237 N 
HETATM    2  N3  UNL     1      22.669   3.746  49.766  1.00  0.00    -0.173 NA
HETATM    3  C4  UNL     1      21.997   2.789  50.258  1.00  0.00     0.067 C 
HETATM    4  C11 UNL     1      22.883   1.999  51.156  1.00  0.00     0.094 C 
HETATM    5  C12 UNL     1      24.241   2.373  50.585  1.00  0.00     0.151 C 
ENDROOT
BRANCH   5   6
HETATM    6  C13 UNL     1      25.208   2.128  51.677  1.00  0.00    -0.033 A 
HETATM    7  C14 UNL     1      24.964   2.365  53.019  1.00  0.00     0.012 A 
HETATM    8  C15 UNL     1      25.876   2.130  54.004  1.00  0.00     0.037 A 
HETATM    9  C16 UNL     1      27.110   1.635  53.710  1.00  0.00     0.068 A 
HETATM   10  C18 UNL     1      27.435   1.369  52.393  1.00  0.00     0.037 A 
HETATM   11  C19 UNL     1      26.489   1.618  51.420  1.00  0.00     0.012 A 
BRANCH   9  12
HETATM   12  O1  UNL     1      28.040   1.394  54.714  1.00  0.00    -0.356 OA
HETATM   13  C17 UNL     1      28.680   0.135  54.806  1.00  0.00     0.210 C 
ENDBRANCH   9  12
ENDBRANCH   5   6
BRANCH   1  14
HETATM   14  C2  UNL     1      24.753   4.926  50.271  1.00  0.00     0.180 C 
HETATM   15  N1  UNL     1      25.831   5.478  49.823  1.00  0.00    -0.270 NA
HETATM   16  C1  UNL     1      26.794   4.866  48.966  1.00  0.00     0.180 C 
BRANCH  14  17
HETATM   17  S1  UNL     1      23.672   5.884  51.346  1.00  0.00    -0.095 SA
HETATM   18  C3  UNL     1      23.527   7.582  50.730  1.00  0.00     0.099 C 
ENDBRANCH  14  17
ENDBRANCH   1  14
BRANCH   3  19
HETATM   19  C5  UNL     1      20.584   2.488  50.002  1.00  0.00    -0.010 A 
HETATM   20  C6  UNL     1      20.090   1.231  50.287  1.00  0.00     0.015 A 
HETATM   21  C7  UNL     1      18.749   0.996  50.027  1.00  0.00     0.020 A 
HETATM   22  C8  UNL     1      17.925   1.962  49.508  1.00  0.00     0.011 A 
HETATM   23 BR1  UNL     1      16.066   1.684  49.132  1.00  0.00    -0.051 Br
HETATM   24  C9  UNL     1      18.395   3.222  49.217  1.00  0.00     0.020 A 
HETATM   25  C10 UNL     1      19.741   3.447  49.480  1.00  0.00     0.015 A 
ENDBRANCH   3  19
TORSDOF 5
ENDMDL
