MODEL 1
REMARK VINA RESULT:      -9.5      0.000      0.000
REMARK  5 active torsions:
REMARK  status: ('A' for Active; 'I' for Inactive)
REMARK    1  A    between atoms: C5_5  and  C6_6 
REMARK       I    between atoms: C6_6  and  N1_8 
REMARK    2  A    between atoms: N1_8  and  C7_9 
REMARK    3  A    between atoms: C11_13  and  N2_14 
REMARK    4  A    between atoms: N2_14  and  C12_15 
REMARK    5  A    between atoms: C15_19  and  C16_20 
ROOT
HETATM    1  C7  UNL     1      23.482   2.847  49.543  1.00  0.00     0.037 A 
HETATM    2  C8  UNL     1      22.622   2.405  48.557  1.00  0.00     0.029 A 
HETATM    3  C9  UNL     1      21.676   1.408  48.815  1.00  0.00     0.004 A 
HETATM    4  C10 UNL     1      21.640   0.882  50.109  1.00  0.00     0.030 A 
HETATM    5  C11 UNL     1      22.500   1.318  51.112  1.00  0.00     0.051 A 
HETATM    6  C20 UNL     1      23.423   2.315  50.796  1.00  0.00     0.059 A 
ENDROOT
BRANCH   5   7
HETATM    7  N2  UNL     1      22.417   0.736  52.423  1.00  0.00    -0.188 N 
HETATM    8  H10 UNL     1      21.471   0.651  52.824  1.00  0.00     0.184 HD
BRANCH   7   9
HETATM    9  C12 UNL     1      23.652   0.348  53.010  1.00  0.00     0.727 A 
HETATM   10  N3  UNL     1      23.523  -0.491  54.071  1.00  0.00    -0.075 NA
HETATM   11  C13 UNL     1      24.582  -0.956  54.744  1.00  0.00     0.138 A 
HETATM   12  C14 UNL     1      25.884  -0.593  54.379  1.00  0.00     0.048 A 
HETATM   13  C15 UNL     1      25.993   0.271  53.284  1.00  0.00     0.067 A 
HETATM   14  N5  UNL     1      24.904   0.701  52.654  1.00  0.00    -0.066 NA
BRANCH  13  15
HETATM   15  C16 UNL     1      27.330   0.723  52.808  1.00  0.00     0.103 A 
HETATM   16  C17 UNL     1      28.431   0.123  53.636  1.00  0.00     0.009 A 
HETATM   17  C18 UNL     1      29.062   1.093  54.274  1.00  0.00     0.113 A 
HETATM   18  N4  UNL     1      28.477   2.371  53.954  1.00  0.00    -0.276 NA
HETATM   19  C19 UNL     1      27.495   2.167  53.123  1.00  0.00     0.104 A 
ENDBRANCH  13  15
ENDBRANCH   7   9
ENDBRANCH   5   7
BRANCH   1  20
HETATM   20  N1  UNL     1      24.423   3.862  49.219  1.00  0.00    -0.323 N 
HETATM   21  C6  UNL     1      25.840   3.861  49.326  1.00  0.00     0.256 C 
HETATM   22  O1  UNL     1      26.510   2.880  49.758  1.00  0.00    -0.267 OA
HETATM   23  H6  UNL     1      23.868   4.669  48.862  1.00  0.00     0.169 HD
BRANCH  21  24
HETATM   24  C5  UNL     1      26.607   5.032  48.927  1.00  0.00     0.032 A 
HETATM   25  C4  UNL     1      27.930   4.868  48.576  1.00  0.00     0.017 A 
HETATM   26  C3  UNL     1      28.725   5.951  48.183  1.00  0.00     0.007 A 
HETATM   27  C2  UNL     1      28.193   7.227  48.138  1.00  0.00    -0.062 A 
HETATM   28  C1  UNL     1      29.011   8.408  47.723  1.00  0.00     0.048 C 
HETATM   29  C22 UNL     1      26.870   7.411  48.485  1.00  0.00     0.007 A 
HETATM   30  C21 UNL     1      26.121   6.319  48.867  1.00  0.00     0.017 A 
ENDBRANCH  21  24
ENDBRANCH   1  20
TORSDOF 5
ENDMDL
MODEL 2
REMARK VINA RESULT:      -9.5      3.240      4.994
REMARK  5 active torsions:
REMARK  status: ('A' for Active; 'I' for Inactive)
REMARK    1  A    between atoms: C5_5  and  C6_6 
REMARK       I    between atoms: C6_6  and  N1_8 
REMARK    2  A    between atoms: N1_8  and  C7_9 
REMARK    3  A    between atoms: C11_13  and  N2_14 
REMARK    4  A    between atoms: N2_14  and  C12_15 
REMARK    5  A    between atoms: C15_19  and  C16_20 
ROOT
HETATM    1  C7  UNL     1      28.015   5.440  48.459  1.00  0.00     0.037 A 
HETATM    2  C8  UNL     1      27.626   6.765  48.483  1.00  0.00     0.029 A 
HETATM    3  C9  UNL     1      26.369   7.141  48.968  1.00  0.00     0.004 A 
HETATM    4  C10 UNL     1      25.529   6.121  49.424  1.00  0.00     0.030 A 
HETATM    5  C11 UNL     1      25.908   4.783  49.404  1.00  0.00     0.051 A 
HETATM    6  C20 UNL     1      27.174   4.467  48.910  1.00  0.00     0.059 A 
ENDROOT
BRANCH   5   7
HETATM    7  N2  UNL     1      24.999   3.778  49.884  1.00  0.00    -0.188 N 
HETATM    8  H10 UNL     1      24.176   3.590  49.293  1.00  0.00     0.184 HD
BRANCH   7   9
HETATM    9  C12 UNL     1      25.348   3.164  51.117  1.00  0.00     0.727 A 
HETATM   10  N3  UNL     1      24.395   3.270  52.079  1.00  0.00    -0.075 NA
HETATM   11  C13 UNL     1      24.555   2.751  53.303  1.00  0.00     0.138 A 
HETATM   12  C14 UNL     1      25.728   2.068  53.647  1.00  0.00     0.048 A 
HETATM   13  C15 UNL     1      26.696   1.971  52.642  1.00  0.00     0.067 A 
HETATM   14  N5  UNL     1      26.480   2.507  51.445  1.00  0.00    -0.066 NA
BRANCH  13  15
HETATM   15  C16 UNL     1      27.982   1.266  52.897  1.00  0.00     0.103 A 
HETATM   16  C17 UNL     1      27.774   0.056  53.763  1.00  0.00     0.009 A 
HETATM   17  C18 UNL     1      28.407   0.237  54.909  1.00  0.00     0.113 A 
HETATM   18  N4  UNL     1      29.067   1.519  54.923  1.00  0.00    -0.276 NA
HETATM   19  C19 UNL     1      28.829   2.106  53.784  1.00  0.00     0.104 A 
ENDBRANCH  13  15
ENDBRANCH   7   9
ENDBRANCH   5   7
BRANCH   1  20
HETATM   20  N1  UNL     1      29.304   5.120  47.953  1.00  0.00    -0.323 N 
HETATM   21  C6  UNL     1      30.559   5.743  48.190  1.00  0.00     0.256 C 
HETATM   22  O1  UNL     1      30.713   6.747  48.943  1.00  0.00    -0.267 OA
HETATM   23  H6  UNL     1      29.175   4.292  47.332  1.00  0.00     0.169 HD
BRANCH  21  24
HETATM   24  C5  UNL     1      31.764   5.234  47.552  1.00  0.00     0.032 A 
HETATM   25  C4  UNL     1      31.718   3.998  46.942  1.00  0.00     0.017 A 
HETATM   26  C3  UNL     1      32.839   3.449  46.310  1.00  0.00     0.007 A 
HETATM   27  C2  UNL     1      34.035   4.144  46.283  1.00  0.00    -0.062 A 
HETATM   28  C1  UNL     1      35.254   3.590  45.617  1.00  0.00     0.048 C 
HETATM   29  C22 UNL     1      34.101   5.383  46.887  1.00  0.00     0.007 A 
HETATM   30  C21 UNL     1      32.974   5.889  47.500  1.00  0.00     0.017 A 
ENDBRANCH  21  24
ENDBRANCH   1  20
TORSDOF 5
ENDMDL
MODEL 3
REMARK VINA RESULT:      -9.2      1.775      4.734
REMARK  5 active torsions:
REMARK  status: ('A' for Active; 'I' for Inactive)
REMARK    1  A    between atoms: C5_5  and  C6_6 
REMARK       I    between atoms: C6_6  and  N1_8 
REMARK    2  A    between atoms: N1_8  and  C7_9 
REMARK    3  A    between atoms: C11_13  and  N2_14 
REMARK    4  A    between atoms: N2_14  and  C12_15 
REMARK    5  A    between atoms: C15_19  and  C16_20 
ROOT
HETATM    1  C7  UNL     1      27.006   2.073  52.300  1.00  0.00     0.037 A 
HETATM    2  C8  UNL     1      28.038   1.995  53.215  1.00  0.00     0.029 A 
HETATM    3  C9  UNL     1      28.105   0.952  54.145  1.00  0.00     0.004 A 
HETATM    4  C10 UNL     1      27.086  -0.002  54.107  1.00  0.00     0.030 A 
HETATM    5  C11 UNL     1      26.040   0.063  53.192  1.00  0.00     0.051 A 
HETATM    6  C20 UNL     1      26.025   1.126  52.288  1.00  0.00     0.059 A 
ENDROOT
BRANCH   5   7
HETATM    7  N2  UNL     1      25.019  -0.948  53.204  1.00  0.00    -0.188 N 
HETATM    8  H10 UNL     1      25.342  -1.922  53.115  1.00  0.00     0.184 HD
BRANCH   7   9
HETATM    9  C12 UNL     1      23.684  -0.480  53.338  1.00  0.00     0.727 A 
HETATM   10  N3  UNL     1      23.059  -0.902  54.469  1.00  0.00    -0.075 NA
HETATM   11  C13 UNL     1      21.798  -0.558  54.757  1.00  0.00     0.138 A 
HETATM   12  C14 UNL     1      21.059   0.261  53.894  1.00  0.00     0.048 A 
HETATM   13  C15 UNL     1      21.721   0.683  52.736  1.00  0.00     0.067 A 
HETATM   14  N5  UNL     1      22.976   0.309  52.504  1.00  0.00    -0.066 NA
BRANCH  13  15
HETATM   15  C16 UNL     1      21.033   1.556  51.747  1.00  0.00     0.103 A 
HETATM   16  C17 UNL     1      21.763   2.858  51.574  1.00  0.00     0.009 A 
HETATM   17  C18 UNL     1      20.988   3.843  51.994  1.00  0.00     0.113 A 
HETATM   18  N4  UNL     1      19.728   3.324  52.466  1.00  0.00    -0.276 NA
HETATM   19  C19 UNL     1      19.748   2.029  52.328  1.00  0.00     0.104 A 
ENDBRANCH  13  15
ENDBRANCH   7   9
ENDBRANCH   5   7
BRANCH   1  20
HETATM   20  N1  UNL     1      26.991   3.157  51.382  1.00  0.00    -0.323 N 
HETATM   21  C6  UNL     1      26.047   3.488  50.374  1.00  0.00     0.256 C 
HETATM   22  O1  UNL     1      25.007   2.809  50.137  1.00  0.00    -0.267 OA
HETATM   23  H6  UNL     1      27.849   3.716  51.580  1.00  0.00     0.169 HD
BRANCH  21  24
HETATM   24  C5  UNL     1      26.244   4.666  49.541  1.00  0.00     0.032 A 
HETATM   25  C4  UNL     1      27.483   4.875  48.974  1.00  0.00     0.017 A 
HETATM   26  C3  UNL     1      27.740   5.986  48.162  1.00  0.00     0.007 A 
HETATM   27  C2  UNL     1      26.743   6.911  47.908  1.00  0.00    -0.062 A 
HETATM   28  C1  UNL     1      26.981   8.109  47.047  1.00  0.00     0.048 C 
HETATM   29  C22 UNL     1      25.496   6.718  48.467  1.00  0.00     0.007 A 
HETATM   30  C21 UNL     1      25.283   5.611  49.261  1.00  0.00     0.017 A 
ENDBRANCH  21  24
ENDBRANCH   1  20
TORSDOF 5
ENDMDL
MODEL 4
REMARK VINA RESULT:      -9.2      1.797      2.449
REMARK  5 active torsions:
REMARK  status: ('A' for Active; 'I' for Inactive)
REMARK    1  A    between atoms: C5_5  and  C6_6 
REMARK       I    between atoms: C6_6  and  N1_8 
REMARK    2  A    between atoms: N1_8  and  C7_9 
REMARK    3  A    between atoms: C11_13  and  N2_14 
REMARK    4  A    between atoms: N2_14  and  C12_15 
REMARK    5  A    between atoms: C15_19  and  C16_20 
ROOT
HETATM    1  C7  UNL     1      24.249   4.537  50.924  1.00  0.00     0.037 A 
HETATM    2  C8  UNL     1      23.500   5.456  51.632  1.00  0.00     0.029 A 
HETATM    3  C9  UNL     1      22.336   5.075  52.309  1.00  0.00     0.004 A 
HETATM    4  C10 UNL     1      21.968   3.729  52.236  1.00  0.00     0.030 A 
HETATM    5  C11 UNL     1      22.713   2.792  51.527  1.00  0.00     0.051 A 
HETATM    6  C20 UNL     1      23.864   3.230  50.872  1.00  0.00     0.059 A 
ENDROOT
BRANCH   5   7
HETATM    7  N2  UNL     1      22.282   1.422  51.487  1.00  0.00    -0.188 N 
HETATM    8  H10 UNL     1      21.700   1.152  50.681  1.00  0.00     0.184 HD
BRANCH   7   9
HETATM    9  C12 UNL     1      22.713   0.604  52.566  1.00  0.00     0.727 A 
HETATM   10  N3  UNL     1      21.706   0.163  53.365  1.00  0.00    -0.075 NA
HETATM   11  C13 UNL     1      21.931  -0.618  54.429  1.00  0.00     0.138 A 
HETATM   12  C14 UNL     1      23.229  -1.017  54.769  1.00  0.00     0.048 A 
HETATM   13  C15 UNL     1      24.250  -0.551  53.934  1.00  0.00     0.067 A 
HETATM   14  N5  UNL     1      23.966   0.223  52.890  1.00  0.00    -0.066 NA
BRANCH  13  15
HETATM   15  C16 UNL     1      25.669  -0.912  54.201  1.00  0.00     0.103 A 
HETATM   16  C17 UNL     1      26.378   0.187  54.940  1.00  0.00     0.009 A 
HETATM   17  C18 UNL     1      27.336   0.672  54.169  1.00  0.00     0.113 A 
HETATM   18  N4  UNL     1      27.361  -0.018  52.904  1.00  0.00    -0.276 NA
HETATM   19  C19 UNL     1      26.419  -0.917  52.917  1.00  0.00     0.104 A 
ENDBRANCH  13  15
ENDBRANCH   7   9
ENDBRANCH   5   7
BRANCH   1  20
HETATM   20  N1  UNL     1      25.420   4.985  50.256  1.00  0.00    -0.323 N 
HETATM   21  C6  UNL     1      25.560   5.678  49.024  1.00  0.00     0.256 C 
HETATM   22  O1  UNL     1      24.584   6.017  48.295  1.00  0.00    -0.267 OA
HETATM   23  H6  UNL     1      26.224   4.705  50.859  1.00  0.00     0.169 HD
BRANCH  21  24
HETATM   24  C5  UNL     1      26.881   6.039  48.530  1.00  0.00     0.032 A 
HETATM   25  C4  UNL     1      27.892   5.105  48.602  1.00  0.00     0.017 A 
HETATM   26  C3  UNL     1      29.185   5.387  48.145  1.00  0.00     0.007 A 
HETATM   27  C2  UNL     1      29.479   6.625  47.603  1.00  0.00    -0.062 A 
HETATM   28  C1  UNL     1      30.848   6.962  47.105  1.00  0.00     0.048 C 
HETATM   29  C22 UNL     1      28.480   7.573  47.522  1.00  0.00     0.007 A 
HETATM   30  C21 UNL     1      27.220   7.257  47.983  1.00  0.00     0.017 A 
ENDBRANCH  21  24
ENDBRANCH   1  20
TORSDOF 5
ENDMDL
MODEL 5
REMARK VINA RESULT:      -9.0      2.894      6.773
REMARK  5 active torsions:
REMARK  status: ('A' for Active; 'I' for Inactive)
REMARK    1  A    between atoms: C5_5  and  C6_6 
REMARK       I    between atoms: C6_6  and  N1_8 
REMARK    2  A    between atoms: N1_8  and  C7_9 
REMARK    3  A    between atoms: C11_13  and  N2_14 
REMARK    4  A    between atoms: N2_14  and  C12_15 
REMARK    5  A    between atoms: C15_19  and  C16_20 
ROOT
HETATM    1  C7  UNL     1      22.275  -0.410  52.978  1.00  0.00     0.037 A 
HETATM    2  C8  UNL     1      21.432  -0.928  53.943  1.00  0.00     0.029 A 
HETATM    3  C9  UNL     1      20.043  -0.807  53.832  1.00  0.00     0.004 A 
HETATM    4  C10 UNL     1      19.549  -0.143  52.706  1.00  0.00     0.030 A 
HETATM    5  C11 UNL     1      20.385   0.384  51.727  1.00  0.00     0.051 A 
HETATM    6  C20 UNL     1      21.762   0.233  51.891  1.00  0.00     0.059 A 
ENDROOT
BRANCH   5   7
HETATM    7  N2  UNL     1      19.817   1.059  50.593  1.00  0.00    -0.188 N 
HETATM    8  H10 UNL     1      18.803   0.937  50.452  1.00  0.00     0.184 HD
BRANCH   7   9
HETATM    9  C12 UNL     1      20.723   1.817  49.803  1.00  0.00     0.727 A 
HETATM   10  N3  UNL     1      21.159   1.175  48.688  1.00  0.00    -0.075 NA
HETATM   11  C13 UNL     1      22.017   1.739  47.830  1.00  0.00     0.138 A 
HETATM   12  C14 UNL     1      22.510   3.031  48.049  1.00  0.00     0.048 A 
HETATM   13  C15 UNL     1      22.049   3.674  49.203  1.00  0.00     0.067 A 
HETATM   14  N5  UNL     1      21.195   3.062  50.019  1.00  0.00    -0.066 NA
BRANCH  13  15
HETATM   15  C16 UNL     1      22.507   5.051  49.536  1.00  0.00     0.103 A 
HETATM   16  C17 UNL     1      24.003   5.159  49.451  1.00  0.00     0.009 A 
HETATM   17  C18 UNL     1      24.481   5.420  50.655  1.00  0.00     0.113 A 
HETATM   18  N4  UNL     1      23.409   5.507  51.615  1.00  0.00    -0.276 NA
HETATM   19  C19 UNL     1      22.287   5.299  50.985  1.00  0.00     0.104 A 
ENDBRANCH  13  15
ENDBRANCH   7   9
ENDBRANCH   5   7
BRANCH   1  20
HETATM   20  N1  UNL     1      23.677  -0.563  53.148  1.00  0.00    -0.323 N 
HETATM   21  C6  UNL     1      24.682   0.416  53.373  1.00  0.00     0.256 C 
HETATM   22  O1  UNL     1      24.447   1.656  53.458  1.00  0.00    -0.267 OA
HETATM   23  H6  UNL     1      23.868  -1.585  53.077  1.00  0.00     0.169 HD
BRANCH  21  24
HETATM   24  C5  UNL     1      26.075   0.020  53.518  1.00  0.00     0.032 A 
HETATM   25  C4  UNL     1      26.559  -0.997  52.723  1.00  0.00     0.017 A 
HETATM   26  C3  UNL     1      27.889  -1.428  52.811  1.00  0.00     0.007 A 
HETATM   27  C2  UNL     1      28.756  -0.835  53.710  1.00  0.00    -0.062 A 
HETATM   28  C1  UNL     1      30.182  -1.268  53.833  1.00  0.00     0.048 C 
HETATM   29  C22 UNL     1      28.290   0.185  54.514  1.00  0.00     0.007 A 
HETATM   30  C21 UNL     1      26.974   0.580  54.398  1.00  0.00     0.017 A 
ENDBRANCH  21  24
ENDBRANCH   1  20
TORSDOF 5
ENDMDL
MODEL 6
REMARK VINA RESULT:      -9.0      1.785      2.551
REMARK  5 active torsions:
REMARK  status: ('A' for Active; 'I' for Inactive)
REMARK    1  A    between atoms: C5_5  and  C6_6 
REMARK       I    between atoms: C6_6  and  N1_8 
REMARK    2  A    between atoms: N1_8  and  C7_9 
REMARK    3  A    between atoms: C11_13  and  N2_14 
REMARK    4  A    between atoms: N2_14  and  C12_15 
REMARK    5  A    between atoms: C15_19  and  C16_20 
ROOT
HETATM    1  C7  UNL     1      24.892   5.386  49.347  1.00  0.00     0.037 A 
HETATM    2  C8  UNL     1      23.758   5.388  48.558  1.00  0.00     0.029 A 
HETATM    3  C9  UNL     1      22.542   4.891  49.038  1.00  0.00     0.004 A 
HETATM    4  C10 UNL     1      22.526   4.395  50.344  1.00  0.00     0.030 A 
HETATM    5  C11 UNL     1      23.661   4.387  51.149  1.00  0.00     0.051 A 
HETATM    6  C20 UNL     1      24.846   4.895  50.617  1.00  0.00     0.059 A 
ENDROOT
BRANCH   5   7
HETATM    7  N2  UNL     1      23.583   3.861  52.484  1.00  0.00    -0.188 N 
HETATM    8  H10 UNL     1      23.060   4.429  53.167  1.00  0.00     0.184 HD
BRANCH   7   9
HETATM    9  C12 UNL     1      24.237   2.618  52.701  1.00  0.00     0.727 A 
HETATM   10  N3  UNL     1      23.394   1.584  52.957  1.00  0.00    -0.075 NA
HETATM   11  C13 UNL     1      23.838   0.342  53.187  1.00  0.00     0.138 A 
HETATM   12  C14 UNL     1      25.208   0.053  53.172  1.00  0.00     0.048 A 
HETATM   13  C15 UNL     1      26.058   1.132  52.907  1.00  0.00     0.067 A 
HETATM   14  N5  UNL     1      25.558   2.344  52.687  1.00  0.00    -0.066 NA
BRANCH  13  15
HETATM   15  C16 UNL     1      27.533   0.940  52.868  1.00  0.00     0.103 A 
HETATM   16  C17 UNL     1      27.972  -0.089  53.871  1.00  0.00     0.009 A 
HETATM   17  C18 UNL     1      28.736   0.496  54.778  1.00  0.00     0.113 A 
HETATM   18  N4  UNL     1      28.875   1.901  54.487  1.00  0.00    -0.276 NA
HETATM   19  C19 UNL     1      28.196   2.158  53.405  1.00  0.00     0.104 A 
ENDBRANCH  13  15
ENDBRANCH   7   9
ENDBRANCH   5   7
BRANCH   1  20
HETATM   20  N1  UNL     1      26.099   5.903  48.802  1.00  0.00    -0.323 N 
HETATM   21  C6  UNL     1      27.366   5.282  48.636  1.00  0.00     0.256 C 
HETATM   22  O1  UNL     1      27.613   4.089  48.977  1.00  0.00    -0.267 OA
HETATM   23  H6  UNL     1      25.893   6.886  48.521  1.00  0.00     0.169 HD
BRANCH  21  24
HETATM   24  C5  UNL     1      28.473   6.018  48.045  1.00  0.00     0.032 A 
HETATM   25  C4  UNL     1      28.205   7.201  47.388  1.00  0.00     0.017 A 
HETATM   26  C3  UNL     1      29.223   7.960  46.798  1.00  0.00     0.007 A 
HETATM   27  C2  UNL     1      30.538   7.533  46.861  1.00  0.00    -0.062 A 
HETATM   28  C1  UNL     1      31.651   8.316  46.243  1.00  0.00     0.048 C 
HETATM   29  C22 UNL     1      30.825   6.352  47.515  1.00  0.00     0.007 A 
HETATM   30  C21 UNL     1      29.795   5.634  48.083  1.00  0.00     0.017 A 
ENDBRANCH  21  24
ENDBRANCH   1  20
TORSDOF 5
ENDMDL
MODEL 7
REMARK VINA RESULT:      -8.9      2.689      4.447
REMARK  5 active torsions:
REMARK  status: ('A' for Active; 'I' for Inactive)
REMARK    1  A    between atoms: C5_5  and  C6_6 
REMARK       I    between atoms: C6_6  and  N1_8 
REMARK    2  A    between atoms: N1_8  and  C7_9 
REMARK    3  A    between atoms: C11_13  and  N2_14 
REMARK    4  A    between atoms: N2_14  and  C12_15 
REMARK    5  A    between atoms: C15_19  and  C16_20 
ROOT
HETATM    1  C7  UNL     1      27.231   6.248  48.736  1.00  0.00     0.037 A 
HETATM    2  C8  UNL     1      26.302   7.216  48.406  1.00  0.00     0.029 A 
HETATM    3  C9  UNL     1      24.930   6.945  48.440  1.00  0.00     0.004 A 
HETATM    4  C10 UNL     1      24.544   5.657  48.821  1.00  0.00     0.030 A 
HETATM    5  C11 UNL     1      25.469   4.672  49.154  1.00  0.00     0.051 A 
HETATM    6  C20 UNL     1      26.824   5.000  49.102  1.00  0.00     0.059 A 
ENDROOT
BRANCH   5   7
HETATM    7  N2  UNL     1      25.010   3.364  49.535  1.00  0.00    -0.188 N 
HETATM    8  H10 UNL     1      24.456   2.854  48.832  1.00  0.00     0.184 HD
BRANCH   7   9
HETATM    9  C12 UNL     1      25.377   2.933  50.838  1.00  0.00     0.727 A 
HETATM   10  N3  UNL     1      24.435   3.169  51.788  1.00  0.00    -0.075 NA
HETATM   11  C13 UNL     1      24.614   2.829  53.070  1.00  0.00     0.138 A 
HETATM   12  C14 UNL     1      25.795   2.208  53.492  1.00  0.00     0.048 A 
HETATM   13  C15 UNL     1      26.752   1.974  52.499  1.00  0.00     0.067 A 
HETATM   14  N5  UNL     1      26.518   2.334  51.241  1.00  0.00    -0.066 NA
BRANCH  13  15
HETATM   15  C16 UNL     1      28.046   1.319  52.834  1.00  0.00     0.103 A 
HETATM   16  C17 UNL     1      27.831   0.103  53.690  1.00  0.00     0.009 A 
HETATM   17  C18 UNL     1      28.385   0.309  54.872  1.00  0.00     0.113 A 
HETATM   18  N4  UNL     1      28.993   1.615  54.922  1.00  0.00    -0.276 NA
HETATM   19  C19 UNL     1      28.804   2.192  53.769  1.00  0.00     0.104 A 
ENDBRANCH  13  15
ENDBRANCH   7   9
ENDBRANCH   5   7
BRANCH   1  20
HETATM   20  N1  UNL     1      28.611   6.584  48.680  1.00  0.00    -0.323 N 
HETATM   21  C6  UNL     1      29.728   5.795  48.297  1.00  0.00     0.256 C 
HETATM   22  O1  UNL     1      29.641   4.590  47.923  1.00  0.00    -0.267 OA
HETATM   23  H6  UNL     1      28.680   7.578  48.988  1.00  0.00     0.169 HD
BRANCH  21  24
HETATM   24  C5  UNL     1      31.069   6.360  48.319  1.00  0.00     0.032 A 
HETATM   25  C4  UNL     1      31.208   7.732  48.322  1.00  0.00     0.017 A 
HETATM   26  C3  UNL     1      32.468   8.342  48.343  1.00  0.00     0.007 A 
HETATM   27  C2  UNL     1      33.617   7.571  48.362  1.00  0.00    -0.062 A 
HETATM   28  C1  UNL     1      34.979   8.186  48.385  1.00  0.00     0.048 C 
HETATM   29  C22 UNL     1      33.497   6.196  48.360  1.00  0.00     0.007 A 
HETATM   30  C21 UNL     1      32.239   5.634  48.338  1.00  0.00     0.017 A 
ENDBRANCH  21  24
ENDBRANCH   1  20
TORSDOF 5
ENDMDL
MODEL 8
REMARK VINA RESULT:      -8.9      3.165      8.743
REMARK  5 active torsions:
REMARK  status: ('A' for Active; 'I' for Inactive)
REMARK    1  A    between atoms: C5_5  and  C6_6 
REMARK       I    between atoms: C6_6  and  N1_8 
REMARK    2  A    between atoms: N1_8  and  C7_9 
REMARK    3  A    between atoms: C11_13  and  N2_14 
REMARK    4  A    between atoms: N2_14  and  C12_15 
REMARK    5  A    between atoms: C15_19  and  C16_20 
ROOT
HETATM    1  C7  UNL     1      25.896   4.507  49.810  1.00  0.00     0.037 A 
HETATM    2  C8  UNL     1      25.217   5.697  49.636  1.00  0.00     0.029 A 
HETATM    3  C9  UNL     1      25.768   6.744  48.891  1.00  0.00     0.004 A 
HETATM    4  C10 UNL     1      27.033   6.533  48.335  1.00  0.00     0.030 A 
HETATM    5  C11 UNL     1      27.729   5.341  48.503  1.00  0.00     0.051 A 
HETATM    6  C20 UNL     1      27.129   4.332  49.256  1.00  0.00     0.059 A 
ENDROOT
BRANCH   5   7
HETATM    7  N2  UNL     1      29.028   5.185  47.907  1.00  0.00    -0.188 N 
HETATM    8  H10 UNL     1      29.112   4.456  47.184  1.00  0.00     0.184 HD
BRANCH   7   9
HETATM    9  C12 UNL     1      30.040   6.058  48.389  1.00  0.00     0.727 A 
HETATM   10  N3  UNL     1      30.945   5.461  49.208  1.00  0.00    -0.075 NA
HETATM   11  C13 UNL     1      31.966   6.134  49.754  1.00  0.00     0.138 A 
HETATM   12  C14 UNL     1      32.146   7.499  49.500  1.00  0.00     0.048 A 
HETATM   13  C15 UNL     1      31.203   8.093  48.655  1.00  0.00     0.067 A 
HETATM   14  N5  UNL     1      30.210   7.374  48.143  1.00  0.00    -0.066 NA
BRANCH  13  15
HETATM   15  C16 UNL     1      31.297   9.540  48.317  1.00  0.00     0.103 A 
HETATM   16  C17 UNL     1      30.508  10.375  49.286  1.00  0.00     0.009 A 
HETATM   17  C18 UNL     1      29.519  10.963  48.636  1.00  0.00     0.113 A 
HETATM   18  N4  UNL     1      29.547  10.600  47.241  1.00  0.00    -0.276 NA
HETATM   19  C19 UNL     1      30.553   9.793  47.055  1.00  0.00     0.104 A 
ENDBRANCH  13  15
ENDBRANCH   7   9
ENDBRANCH   5   7
BRANCH   1  20
HETATM   20  N1  UNL     1      25.284   3.481  50.580  1.00  0.00    -0.323 N 
HETATM   21  C6  UNL     1      25.866   2.522  51.451  1.00  0.00     0.256 C 
HETATM   22  O1  UNL     1      27.107   2.443  51.680  1.00  0.00    -0.267 OA
HETATM   23  H6  UNL     1      24.261   3.548  50.390  1.00  0.00     0.169 HD
BRANCH  21  24
HETATM   24  C5  UNL     1      25.027   1.553  52.142  1.00  0.00     0.032 A 
HETATM   25  C4  UNL     1      23.678   1.812  52.259  1.00  0.00     0.017 A 
HETATM   26  C3  UNL     1      22.814   0.923  52.911  1.00  0.00     0.007 A 
HETATM   27  C2  UNL     1      23.303  -0.249  53.459  1.00  0.00    -0.062 A 
HETATM   28  C1  UNL     1      22.412  -1.222  54.162  1.00  0.00     0.048 C 
HETATM   29  C22 UNL     1      24.651  -0.525  53.351  1.00  0.00     0.007 A 
HETATM   30  C21 UNL     1      25.468   0.375  52.702  1.00  0.00     0.017 A 
ENDBRANCH  21  24
ENDBRANCH   1  20
TORSDOF 5
ENDMDL
MODEL 9
REMARK VINA RESULT:      -8.7      1.737      5.190
REMARK  5 active torsions:
REMARK  status: ('A' for Active; 'I' for Inactive)
REMARK    1  A    between atoms: C5_5  and  C6_6 
REMARK       I    between atoms: C6_6  and  N1_8 
REMARK    2  A    between atoms: N1_8  and  C7_9 
REMARK    3  A    between atoms: C11_13  and  N2_14 
REMARK    4  A    between atoms: N2_14  and  C12_15 
REMARK    5  A    between atoms: C15_19  and  C16_20 
ROOT
HETATM    1  C7  UNL     1      26.048   2.332  51.476  1.00  0.00     0.037 A 
HETATM    2  C8  UNL     1      26.841   1.245  51.789  1.00  0.00     0.029 A 
HETATM    3  C9  UNL     1      26.344   0.181  52.548  1.00  0.00     0.004 A 
HETATM    4  C10 UNL     1      25.016   0.267  52.974  1.00  0.00     0.030 A 
HETATM    5  C11 UNL     1      24.206   1.355  52.667  1.00  0.00     0.051 A 
HETATM    6  C20 UNL     1      24.756   2.387  51.906  1.00  0.00     0.059 A 
ENDROOT
BRANCH   5   7
HETATM    7  N2  UNL     1      22.848   1.387  53.136  1.00  0.00    -0.188 N 
HETATM    8  H10 UNL     1      22.697   1.091  54.111  1.00  0.00     0.184 HD
BRANCH   7   9
HETATM    9  C12 UNL     1      21.877   1.824  52.195  1.00  0.00     0.727 A 
HETATM   10  N3  UNL     1      20.906   2.614  52.726  1.00  0.00    -0.075 NA
HETATM   11  C13 UNL     1      19.911   3.114  51.984  1.00  0.00     0.138 A 
HETATM   12  C14 UNL     1      19.825   2.842  50.614  1.00  0.00     0.048 A 
HETATM   13  C15 UNL     1      20.834   2.027  50.089  1.00  0.00     0.067 A 
HETATM   14  N5  UNL     1      21.799   1.559  50.875  1.00  0.00    -0.066 NA
BRANCH  13  15
HETATM   15  C16 UNL     1      20.843   1.672  48.643  1.00  0.00     0.103 A 
HETATM   16  C17 UNL     1      22.206   1.877  48.044  1.00  0.00     0.009 A 
HETATM   17  C18 UNL     1      22.133   2.831  47.132  1.00  0.00     0.113 A 
HETATM   18  N4  UNL     1      20.785   3.333  47.036  1.00  0.00    -0.276 NA
HETATM   19  C19 UNL     1      20.050   2.679  47.890  1.00  0.00     0.104 A 
ENDBRANCH  13  15
ENDBRANCH   7   9
ENDBRANCH   5   7
BRANCH   1  20
HETATM   20  N1  UNL     1      26.611   3.383  50.703  1.00  0.00    -0.323 N 
HETATM   21  C6  UNL     1      26.097   4.052  49.560  1.00  0.00     0.256 C 
HETATM   22  O1  UNL     1      24.980   3.783  49.032  1.00  0.00    -0.267 OA
HETATM   23  H6  UNL     1      27.531   3.604  51.140  1.00  0.00     0.169 HD
BRANCH  21  24
HETATM   24  C5  UNL     1      26.863   5.115  48.925  1.00  0.00     0.032 A 
HETATM   25  C4  UNL     1      26.231   6.309  48.646  1.00  0.00     0.017 A 
HETATM   26  C3  UNL     1      26.908   7.373  48.037  1.00  0.00     0.007 A 
HETATM   27  C2  UNL     1      28.244   7.247  47.698  1.00  0.00    -0.062 A 
HETATM   28  C1  UNL     1      28.999   8.360  47.047  1.00  0.00     0.048 C 
HETATM   29  C22 UNL     1      28.892   6.060  47.969  1.00  0.00     0.007 A 
HETATM   30  C21 UNL     1      28.191   5.036  48.569  1.00  0.00     0.017 A 
ENDBRANCH  21  24
ENDBRANCH   1  20
TORSDOF 5
ENDMDL
