MODEL 1
REMARK VINA RESULT:      -8.7      0.000      0.000
REMARK  1 active torsions:
REMARK  status: ('A' for Active; 'I' for Inactive)
REMARK    1  A    between atoms: O1_2  and  C2_3 
ROOT
HETATM    1  C2  UNL     1      24.403   0.889  53.084  1.00  0.00     0.080 A 
HETATM    2  C3  UNL     1      24.233  -0.142  53.969  1.00  0.00     0.037 A 
HETATM    3  C4  UNL     1      23.039  -0.763  54.182  1.00  0.00     0.004 A 
HETATM    4  C5  UNL     1      21.923  -0.367  53.496  1.00  0.00     0.013 A 
HETATM    5  C6  UNL     1      22.064   0.667  52.600  1.00  0.00    -0.016 A 
HETATM    6  C7  UNL     1      23.316   1.320  52.374  1.00  0.00     0.018 A 
HETATM    7  C8  UNL     1      23.543   2.442  51.407  1.00  0.00     0.011 C 
HETATM    8  C9  UNL     1      24.564   2.085  50.658  1.00  0.00    -0.003 C 
HETATM    9  C10 UNL     1      24.737   3.172  49.625  1.00  0.00     0.070 C 
HETATM   10  C11 UNL     1      24.784   4.447  50.430  1.00  0.00     0.292 C 
HETATM   11  N1  UNL     1      23.347   4.753  50.559  1.00  0.00     0.160 NA
HETATM   12  C12 UNL     1      23.023   4.668  49.125  1.00  0.00     0.488 C 
HETATM   13  N2  UNL     1      21.656   4.666  48.792  1.00  0.00     0.130 N 
HETATM   14  C13 UNL     1      21.370   3.509  47.942  1.00  0.00     0.246 C 
HETATM   15  C14 UNL     1      22.610   2.712  48.036  1.00  0.00     0.016 C 
HETATM   16  C15 UNL     1      23.504   3.260  48.848  1.00  0.00    -0.009 C 
HETATM   17  C16 UNL     1      20.128   2.791  48.440  1.00  0.00     0.040 C 
HETATM   18  C17 UNL     1      20.421   1.566  49.219  1.00  0.00     0.003 C 
HETATM   19  C18 UNL     1      19.222   1.056  50.035  1.00  0.00     0.005 C 
HETATM   20  C19 UNL     1      19.786   0.132  51.122  1.00  0.00     0.039 C 
HETATM   21  C20 UNL     1      20.728   0.974  51.978  1.00  0.00    -0.049 C 
HETATM   22  C21 UNL     1      20.369   2.275  52.259  1.00  0.00     0.007 C 
HETATM   23  C22 UNL     1      20.723   3.710  52.475  1.00  0.00     0.199 C 
HETATM   24  O2  UNL     1      22.085   4.000  52.474  1.00  0.00    -0.350 OA
HETATM   25  C23 UNL     1      22.741   3.701  51.298  1.00  0.00     0.397 C 
HETATM   26  H12 UNL     1      20.962   4.852  49.511  1.00  0.00     0.320 HD
ENDROOT
BRANCH   1  27
HETATM   27  O1  UNL     1      25.545   1.605  52.775  1.00  0.00    -0.355 OA
HETATM   28  C1  UNL     1      26.502   1.824  53.789  1.00  0.00     0.210 C 
ENDBRANCH   1  27
TORSDOF 1
ENDMDL
MODEL 2
REMARK VINA RESULT:      -8.6      2.046      4.111
REMARK  1 active torsions:
REMARK  status: ('A' for Active; 'I' for Inactive)
REMARK    1  A    between atoms: O1_2  and  C2_3 
ROOT
HETATM    1  C2  UNL     1      21.785   0.383  53.570  1.00  0.00     0.080 A 
HETATM    2  C3  UNL     1      20.422   0.279  53.492  1.00  0.00     0.037 A 
HETATM    3  C4  UNL     1      19.650   1.061  52.686  1.00  0.00     0.004 A 
HETATM    4  C5  UNL     1      20.229   2.016  51.894  1.00  0.00     0.013 A 
HETATM    5  C6  UNL     1      21.597   2.143  51.950  1.00  0.00    -0.016 A 
HETATM    6  C7  UNL     1      22.408   1.323  52.795  1.00  0.00     0.018 A 
HETATM    7  C8  UNL     1      23.902   1.401  52.898  1.00  0.00     0.011 C 
HETATM    8  C9  UNL     1      24.349   0.176  52.718  1.00  0.00    -0.003 C 
HETATM    9  C10 UNL     1      25.856   0.266  52.730  1.00  0.00     0.070 C 
HETATM   10  C11 UNL     1      26.174   1.021  53.997  1.00  0.00     0.292 C 
HETATM   11  N1  UNL     1      26.062   2.416  53.530  1.00  0.00     0.160 NA
HETATM   12  C12 UNL     1      26.964   2.283  52.373  1.00  0.00     0.488 C 
HETATM   13  N2  UNL     1      26.977   3.358  51.465  1.00  0.00     0.130 N 
HETATM   14  C13 UNL     1      26.733   2.849  50.115  1.00  0.00     0.246 C 
HETATM   15  C14 UNL     1      26.318   1.452  50.355  1.00  0.00     0.016 C 
HETATM   16  C15 UNL     1      26.266   1.155  51.646  1.00  0.00    -0.009 C 
HETATM   17  C16 UNL     1      25.687   3.700  49.417  1.00  0.00     0.040 C 
HETATM   18  C17 UNL     1      24.339   3.086  49.396  1.00  0.00     0.003 C 
HETATM   19  C18 UNL     1      23.218   4.078  49.046  1.00  0.00     0.005 C 
HETATM   20  C19 UNL     1      21.905   3.452  49.531  1.00  0.00     0.039 C 
HETATM   21  C20 UNL     1      22.032   3.260  51.040  1.00  0.00    -0.049 C 
HETATM   22  C21 UNL     1      22.673   4.237  51.771  1.00  0.00     0.007 C 
HETATM   23  C22 UNL     1      23.567   4.655  52.893  1.00  0.00     0.199 C 
HETATM   24  O2  UNL     1      23.986   3.631  53.739  1.00  0.00    -0.350 OA
HETATM   25  C23 UNL     1      24.717   2.634  53.126  1.00  0.00     0.397 C 
HETATM   26  H12 UNL     1      26.486   4.218  51.695  1.00  0.00     0.320 HD
ENDROOT
BRANCH   1  27
HETATM   27  O1  UNL     1      22.681  -0.335  54.341  1.00  0.00    -0.355 OA
HETATM   28  C1  UNL     1      22.237  -1.516  54.971  1.00  0.00     0.210 C 
ENDBRANCH   1  27
TORSDOF 1
ENDMDL
MODEL 3
REMARK VINA RESULT:      -8.3      1.970      4.380
REMARK  1 active torsions:
REMARK  status: ('A' for Active; 'I' for Inactive)
REMARK    1  A    between atoms: O1_2  and  C2_3 
ROOT
HETATM    1  C2  UNL     1      24.709   1.354  51.898  1.00  0.00     0.080 A 
HETATM    2  C3  UNL     1      26.038   1.638  51.726  1.00  0.00     0.037 A 
HETATM    3  C4  UNL     1      26.506   2.530  50.808  1.00  0.00     0.004 A 
HETATM    4  C5  UNL     1      25.635   3.201  49.993  1.00  0.00     0.013 A 
HETATM    5  C6  UNL     1      24.294   2.937  50.144  1.00  0.00    -0.016 A 
HETATM    6  C7  UNL     1      23.800   2.002  51.107  1.00  0.00     0.018 A 
HETATM    7  C8  UNL     1      22.355   1.675  51.331  1.00  0.00     0.011 C 
HETATM    8  C9  UNL     1      22.139   1.818  52.621  1.00  0.00    -0.003 C 
HETATM    9  C10 UNL     1      20.665   1.578  52.836  1.00  0.00     0.070 C 
HETATM   10  C11 UNL     1      20.398   0.259  52.156  1.00  0.00     0.292 C 
HETATM   11  N1  UNL     1      20.157   0.701  50.769  1.00  0.00     0.160 NA
HETATM   12  C12 UNL     1      19.135   1.712  51.085  1.00  0.00     0.488 C 
HETATM   13  N2  UNL     1      18.769   2.580  50.039  1.00  0.00     0.130 N 
HETATM   14  C13 UNL     1      18.902   3.964  50.495  1.00  0.00     0.246 C 
HETATM   15  C14 UNL     1      19.619   3.825  51.779  1.00  0.00     0.016 C 
HETATM   16  C15 UNL     1      19.925   2.565  52.054  1.00  0.00    -0.009 C 
HETATM   17  C16 UNL     1      19.639   4.788  49.454  1.00  0.00     0.040 C 
HETATM   18  C17 UNL     1      21.063   5.027  49.784  1.00  0.00     0.003 C 
HETATM   19  C18 UNL     1      21.898   5.514  48.588  1.00  0.00     0.005 C 
HETATM   20  C19 UNL     1      23.367   5.248  48.935  1.00  0.00     0.039 C 
HETATM   21  C20 UNL     1      23.511   3.742  49.142  1.00  0.00    -0.049 C 
HETATM   22  C21 UNL     1      22.807   2.899  48.310  1.00  0.00     0.007 C 
HETATM   23  C22 UNL     1      22.029   1.645  48.076  1.00  0.00     0.199 C 
HETATM   24  O2  UNL     1      21.955   0.773  49.159  1.00  0.00    -0.350 OA
HETATM   25  C23 UNL     1      21.354   1.296  50.286  1.00  0.00     0.397 C 
HETATM   26  H12 UNL     1      19.108   2.404  49.097  1.00  0.00     0.320 HD
ENDROOT
BRANCH   1  27
HETATM   27  O1  UNL     1      24.102   0.477  52.779  1.00  0.00    -0.355 OA
HETATM   28  C1  UNL     1      24.895  -0.501  53.415  1.00  0.00     0.210 C 
ENDBRANCH   1  27
TORSDOF 1
ENDMDL
MODEL 4
REMARK VINA RESULT:      -8.2      1.988      4.992
REMARK  1 active torsions:
REMARK  status: ('A' for Active; 'I' for Inactive)
REMARK    1  A    between atoms: O1_2  and  C2_3 
ROOT
HETATM    1  C2  UNL     1      24.552   4.594  49.084  1.00  0.00     0.080 A 
HETATM    2  C3  UNL     1      25.862   4.728  48.707  1.00  0.00     0.037 A 
HETATM    3  C4  UNL     1      26.895   4.097  49.332  1.00  0.00     0.004 A 
HETATM    4  C5  UNL     1      26.656   3.275  50.400  1.00  0.00     0.013 A 
HETATM    5  C6  UNL     1      25.350   3.120  50.801  1.00  0.00    -0.016 A 
HETATM    6  C7  UNL     1      24.264   3.780  50.146  1.00  0.00     0.018 A 
HETATM    7  C8  UNL     1      22.820   3.649  50.523  1.00  0.00     0.011 C 
HETATM    8  C9  UNL     1      22.176   3.335  49.419  1.00  0.00    -0.003 C 
HETATM    9  C10 UNL     1      20.736   3.113  49.813  1.00  0.00     0.070 C 
HETATM   10  C11 UNL     1      20.366   4.351  50.591  1.00  0.00     0.292 C 
HETATM   11  N1  UNL     1      20.827   3.983  51.943  1.00  0.00     0.160 NA
HETATM   12  C12 UNL     1      20.122   2.693  52.020  1.00  0.00     0.488 C 
HETATM   13  N2  UNL     1      20.472   1.852  53.093  1.00  0.00     0.130 N 
HETATM   14  C13 UNL     1      20.831   0.532  52.572  1.00  0.00     0.246 C 
HETATM   15  C14 UNL     1      20.917   0.761  51.116  1.00  0.00     0.016 C 
HETATM   16  C15 UNL     1      20.695   2.026  50.788  1.00  0.00    -0.009 C 
HETATM   17  C16 UNL     1      22.126   0.056  53.207  1.00  0.00     0.040 C 
HETATM   18  C17 UNL     1      23.311   0.216  52.332  1.00  0.00     0.003 C 
HETATM   19  C18 UNL     1      24.648   0.103  53.083  1.00  0.00     0.005 C 
HETATM   20  C19 UNL     1      25.713   0.756  52.194  1.00  0.00     0.039 C 
HETATM   21  C20 UNL     1      25.301   2.213  52.001  1.00  0.00    -0.049 C 
HETATM   22  C21 UNL     1      24.753   2.883  53.074  1.00  0.00     0.007 C 
HETATM   23  C22 UNL     1      23.785   3.871  53.641  1.00  0.00     0.199 C 
HETATM   24  O2  UNL     1      23.037   4.583  52.707  1.00  0.00    -0.350 OA
HETATM   25  C23 UNL     1      22.237   3.810  51.892  1.00  0.00     0.397 C 
HETATM   26  H12 UNL     1      21.077   2.202  53.831  1.00  0.00     0.320 HD
ENDROOT
BRANCH   1  27
HETATM   27  O1  UNL     1      23.417   5.173  48.547  1.00  0.00    -0.355 OA
HETATM   28  C1  UNL     1      23.532   6.427  47.912  1.00  0.00     0.210 C 
ENDBRANCH   1  27
TORSDOF 1
ENDMDL
MODEL 5
REMARK VINA RESULT:      -8.1      1.638      2.987
REMARK  1 active torsions:
REMARK  status: ('A' for Active; 'I' for Inactive)
REMARK    1  A    between atoms: O1_2  and  C2_3 
ROOT
HETATM    1  C2  UNL     1      25.429   3.296  50.100  1.00  0.00     0.080 A 
HETATM    2  C3  UNL     1      26.386   2.582  50.769  1.00  0.00     0.037 A 
HETATM    3  C4  UNL     1      26.103   1.596  51.667  1.00  0.00     0.004 A 
HETATM    4  C5  UNL     1      24.803   1.269  51.943  1.00  0.00     0.013 A 
HETATM    5  C6  UNL     1      23.819   1.969  51.285  1.00  0.00    -0.016 A 
HETATM    6  C7  UNL     1      24.114   3.003  50.343  1.00  0.00     0.018 A 
HETATM    7  C8  UNL     1      23.094   3.797  49.584  1.00  0.00     0.011 C 
HETATM    8  C9  UNL     1      23.434   3.719  48.314  1.00  0.00    -0.003 C 
HETATM    9  C10 UNL     1      22.358   4.440  47.540  1.00  0.00     0.070 C 
HETATM   10  C11 UNL     1      22.243   5.781  48.221  1.00  0.00     0.292 C 
HETATM   11  N1  UNL     1      21.294   5.465  49.306  1.00  0.00     0.160 NA
HETATM   12  C12 UNL     1      20.258   4.854  48.457  1.00  0.00     0.488 C 
HETATM   13  N2  UNL     1      19.222   4.175  49.125  1.00  0.00     0.130 N 
HETATM   14  C13 UNL     1      19.106   2.821  48.581  1.00  0.00     0.246 C 
HETATM   15  C14 UNL     1      20.317   2.693  47.746  1.00  0.00     0.016 C 
HETATM   16  C15 UNL     1      21.086   3.772  47.799  1.00  0.00    -0.009 C 
HETATM   17  C16 UNL     1      19.017   1.810  49.711  1.00  0.00     0.040 C 
HETATM   18  C17 UNL     1      20.289   1.100  49.974  1.00  0.00     0.003 C 
HETATM   19  C18 UNL     1      20.318   0.375  51.330  1.00  0.00     0.005 C 
HETATM   20  C19 UNL     1      21.792   0.124  51.668  1.00  0.00     0.039 C 
HETATM   21  C20 UNL     1      22.470   1.489  51.749  1.00  0.00    -0.049 C 
HETATM   22  C21 UNL     1      21.771   2.532  52.318  1.00  0.00     0.007 C 
HETATM   23  C22 UNL     1      21.400   3.978  52.376  1.00  0.00     0.199 C 
HETATM   24  O2  UNL     1      22.083   4.810  51.492  1.00  0.00    -0.350 OA
HETATM   25  C23 UNL     1      21.908   4.506  50.158  1.00  0.00     0.397 C 
HETATM   26  H12 UNL     1      19.149   4.238  50.137  1.00  0.00     0.320 HD
ENDROOT
BRANCH   1  27
HETATM   27  O1  UNL     1      25.574   4.315  49.176  1.00  0.00    -0.355 OA
HETATM   28  C1  UNL     1      26.856   4.865  48.971  1.00  0.00     0.210 C 
ENDBRANCH   1  27
TORSDOF 1
ENDMDL
MODEL 6
REMARK VINA RESULT:      -7.9      1.514      3.086
REMARK  1 active torsions:
REMARK  status: ('A' for Active; 'I' for Inactive)
REMARK    1  A    between atoms: O1_2  and  C2_3 
ROOT
HETATM    1  C2  UNL     1      20.839   0.268  52.943  1.00  0.00     0.080 A 
HETATM    2  C3  UNL     1      19.707  -0.501  52.898  1.00  0.00     0.037 A 
HETATM    3  C4  UNL     1      18.729  -0.352  51.960  1.00  0.00     0.004 A 
HETATM    4  C5  UNL     1      18.846   0.607  50.990  1.00  0.00     0.013 A 
HETATM    5  C6  UNL     1      19.974   1.395  51.010  1.00  0.00    -0.016 A 
HETATM    6  C7  UNL     1      21.000   1.239  51.993  1.00  0.00     0.018 A 
HETATM    7  C8  UNL     1      22.256   2.053  52.066  1.00  0.00     0.011 C 
HETATM    8  C9  UNL     1      23.251   1.194  52.127  1.00  0.00    -0.003 C 
HETATM    9  C10 UNL     1      24.521   2.009  52.109  1.00  0.00     0.070 C 
HETATM   10  C11 UNL     1      24.323   3.032  53.200  1.00  0.00     0.292 C 
HETATM   11  N1  UNL     1      23.597   4.088  52.468  1.00  0.00     0.160 NA
HETATM   12  C12 UNL     1      24.550   4.212  51.353  1.00  0.00     0.488 C 
HETATM   13  N2  UNL     1      24.127   4.977  50.250  1.00  0.00     0.130 N 
HETATM   14  C13 UNL     1      24.280   4.185  49.029  1.00  0.00     0.246 C 
HETATM   15  C14 UNL     1      24.567   2.831  49.543  1.00  0.00     0.016 C 
HETATM   16  C15 UNL     1      24.549   2.778  50.868  1.00  0.00    -0.009 C 
HETATM   17  C16 UNL     1      23.019   4.279  48.186  1.00  0.00     0.040 C 
HETATM   18  C17 UNL     1      22.141   3.091  48.297  1.00  0.00     0.003 C 
HETATM   19  C18 UNL     1      20.717   3.329  47.768  1.00  0.00     0.005 C 
HETATM   20  C19 UNL     1      19.829   2.238  48.377  1.00  0.00     0.039 C 
HETATM   21  C20 UNL     1      19.898   2.402  49.894  1.00  0.00    -0.049 C 
HETATM   22  C21 UNL     1      19.922   3.679  50.412  1.00  0.00     0.007 C 
HETATM   23  C22 UNL     1      20.401   4.669  51.423  1.00  0.00     0.199 C 
HETATM   24  O2  UNL     1      21.183   4.149  52.450  1.00  0.00    -0.350 OA
HETATM   25  C23 UNL     1      22.355   3.546  52.040  1.00  0.00     0.397 C 
HETATM   26  H12 UNL     1      23.265   5.512  50.310  1.00  0.00     0.320 HD
ENDROOT
BRANCH   1  27
HETATM   27  O1  UNL     1      21.897   0.227  53.832  1.00  0.00    -0.355 OA
HETATM   28  C1  UNL     1      21.892  -0.754  54.846  1.00  0.00     0.210 C 
ENDBRANCH   1  27
TORSDOF 1
ENDMDL
MODEL 7
REMARK VINA RESULT:      -7.7      2.063      4.874
REMARK  1 active torsions:
REMARK  status: ('A' for Active; 'I' for Inactive)
REMARK    1  A    between atoms: O1_2  and  C2_3 
ROOT
HETATM    1  C2  UNL     1      19.191   4.520  50.701  1.00  0.00     0.080 A 
HETATM    2  C3  UNL     1      17.843   4.305  50.813  1.00  0.00     0.037 A 
HETATM    3  C4  UNL     1      17.297   3.111  51.177  1.00  0.00     0.004 A 
HETATM    4  C5  UNL     1      18.103   2.041  51.456  1.00  0.00     0.013 A 
HETATM    5  C6  UNL     1      19.462   2.227  51.353  1.00  0.00    -0.016 A 
HETATM    6  C7  UNL     1      20.037   3.479  50.971  1.00  0.00     0.018 A 
HETATM    7  C8  UNL     1      21.505   3.754  50.850  1.00  0.00     0.011 C 
HETATM    8  C9  UNL     1      21.740   4.834  51.564  1.00  0.00    -0.003 C 
HETATM    9  C10 UNL     1      23.232   5.061  51.517  1.00  0.00     0.070 C 
HETATM   10  C11 UNL     1      23.569   5.025  50.048  1.00  0.00     0.292 C 
HETATM   11  N1  UNL     1      23.750   3.576  49.835  1.00  0.00     0.160 NA
HETATM   12  C12 UNL     1      24.710   3.360  50.930  1.00  0.00     0.488 C 
HETATM   13  N2  UNL     1      24.994   2.020  51.257  1.00  0.00     0.130 N 
HETATM   14  C13 UNL     1      24.781   1.820  52.691  1.00  0.00     0.246 C 
HETATM   15  C14 UNL     1      24.103   3.065  53.104  1.00  0.00     0.016 C 
HETATM   16  C15 UNL     1      23.887   3.886  52.086  1.00  0.00    -0.009 C 
HETATM   17  C16 UNL     1      23.969   0.558  52.925  1.00  0.00     0.040 C 
HETATM   18  C17 UNL     1      22.540   0.818  53.217  1.00  0.00     0.003 C 
HETATM   19  C18 UNL     1      21.649  -0.427  53.078  1.00  0.00     0.005 C 
HETATM   20  C19 UNL     1      20.208   0.073  52.923  1.00  0.00     0.039 C 
HETATM   21  C20 UNL     1      20.168   0.934  51.663  1.00  0.00    -0.049 C 
HETATM   22  C21 UNL     1      20.907   0.530  50.573  1.00  0.00     0.007 C 
HETATM   23  C22 UNL     1      21.760   0.840  49.386  1.00  0.00     0.199 C 
HETATM   24  O2  UNL     1      21.915   2.193  49.094  1.00  0.00    -0.350 OA
HETATM   25  C23 UNL     1      22.506   2.939  50.093  1.00  0.00     0.397 C 
HETATM   26  H12 UNL     1      24.647   1.272  50.662  1.00  0.00     0.320 HD
ENDROOT
BRANCH   1  27
HETATM   27  O1  UNL     1      19.873   5.667  50.340  1.00  0.00    -0.355 OA
HETATM   28  C1  UNL     1      19.378   6.442  49.271  1.00  0.00     0.210 C 
ENDBRANCH   1  27
TORSDOF 1
ENDMDL
MODEL 8
REMARK VINA RESULT:      -7.6      2.028      5.888
REMARK  1 active torsions:
REMARK  status: ('A' for Active; 'I' for Inactive)
REMARK    1  A    between atoms: O1_2  and  C2_3 
ROOT
HETATM    1  C2  UNL     1      21.010   4.708  48.403  1.00  0.00     0.080 A 
HETATM    2  C3  UNL     1      21.653   5.485  47.477  1.00  0.00     0.037 A 
HETATM    3  C4  UNL     1      22.990   5.745  47.508  1.00  0.00     0.004 A 
HETATM    4  C5  UNL     1      23.772   5.220  48.501  1.00  0.00     0.013 A 
HETATM    5  C6  UNL     1      23.153   4.434  49.445  1.00  0.00    -0.016 A 
HETATM    6  C7  UNL     1      21.751   4.159  49.414  1.00  0.00     0.018 A 
HETATM    7  C8  UNL     1      21.016   3.305  50.403  1.00  0.00     0.011 C 
HETATM    8  C9  UNL     1      20.337   2.425  49.698  1.00  0.00    -0.003 C 
HETATM    9  C10 UNL     1      19.669   1.507  50.692  1.00  0.00     0.070 C 
HETATM   10  C11 UNL     1      18.960   2.439  51.643  1.00  0.00     0.292 C 
HETATM   11  N1  UNL     1      20.041   2.741  52.600  1.00  0.00     0.160 NA
HETATM   12  C12 UNL     1      20.405   1.346  52.896  1.00  0.00     0.488 C 
HETATM   13  N2  UNL     1      21.594   1.150  53.622  1.00  0.00     0.130 N 
HETATM   14  C13 UNL     1      22.451   0.210  52.897  1.00  0.00     0.246 C 
HETATM   15  C14 UNL     1      21.781   0.092  51.586  1.00  0.00     0.016 C 
HETATM   16  C15 UNL     1      20.711   0.869  51.492  1.00  0.00    -0.009 C 
HETATM   17  C16 UNL     1      23.870   0.745  52.828  1.00  0.00     0.040 C 
HETATM   18  C17 UNL     1      24.214   1.351  51.521  1.00  0.00     0.003 C 
HETATM   19  C18 UNL     1      25.482   2.220  51.562  1.00  0.00     0.005 C 
HETATM   20  C19 UNL     1      25.431   3.137  50.334  1.00  0.00     0.039 C 
HETATM   21  C20 UNL     1      24.168   3.984  50.462  1.00  0.00    -0.049 C 
HETATM   22  C21 UNL     1      23.812   4.441  51.713  1.00  0.00     0.007 C 
HETATM   23  C22 UNL     1      22.775   4.779  52.734  1.00  0.00     0.199 C 
HETATM   24  O2  UNL     1      21.454   4.676  52.305  1.00  0.00    -0.350 OA
HETATM   25  C23 UNL     1      21.073   3.415  51.893  1.00  0.00     0.397 C 
HETATM   26  H12 UNL     1      22.078   1.950  54.022  1.00  0.00     0.320 HD
ENDROOT
BRANCH   1  27
HETATM   27  O1  UNL     1      19.672   4.369  48.493  1.00  0.00    -0.355 OA
HETATM   28  C1  UNL     1      18.704   5.346  48.178  1.00  0.00     0.210 C 
ENDBRANCH   1  27
TORSDOF 1
ENDMDL
MODEL 9
REMARK VINA RESULT:      -7.5      6.881     10.043
REMARK  1 active torsions:
REMARK  status: ('A' for Active; 'I' for Inactive)
REMARK    1  A    between atoms: O1_2  and  C2_3 
ROOT
HETATM    1  C2  UNL     1      25.922   6.639  48.599  1.00  0.00     0.080 A 
HETATM    2  C3  UNL     1      26.064   5.315  48.920  1.00  0.00     0.037 A 
HETATM    3  C4  UNL     1      27.250   4.646  48.854  1.00  0.00     0.004 A 
HETATM    4  C5  UNL     1      28.385   5.293  48.450  1.00  0.00     0.013 A 
HETATM    5  C6  UNL     1      28.273   6.624  48.122  1.00  0.00    -0.016 A 
HETATM    6  C7  UNL     1      27.031   7.329  48.190  1.00  0.00     0.018 A 
HETATM    7  C8  UNL     1      26.840   8.777  47.858  1.00  0.00     0.011 C 
HETATM    8  C9  UNL     1      26.224   9.316  48.889  1.00  0.00    -0.003 C 
HETATM    9  C10 UNL     1      26.113  10.792  48.596  1.00  0.00     0.070 C 
HETATM   10  C11 UNL     1      25.500  10.854  47.219  1.00  0.00     0.292 C 
HETATM   11  N1  UNL     1      26.702  10.744  46.371  1.00  0.00     0.160 NA
HETATM   12  C12 UNL     1      27.464  11.830  47.009  1.00  0.00     0.488 C 
HETATM   13  N2  UNL     1      28.822  11.935  46.653  1.00  0.00     0.130 N 
HETATM   14  C13 UNL     1      29.637  11.947  47.868  1.00  0.00     0.246 C 
HETATM   15  C14 UNL     1      28.670  11.576  48.922  1.00  0.00     0.016 C 
HETATM   16  C15 UNL     1      27.462  11.327  48.436  1.00  0.00    -0.009 C 
HETATM   17  C16 UNL     1      30.803  10.984  47.724  1.00  0.00     0.040 C 
HETATM   18  C17 UNL     1      30.600   9.695  48.424  1.00  0.00     0.003 C 
HETATM   19  C18 UNL     1      31.576   8.594  47.978  1.00  0.00     0.005 C 
HETATM   20  C19 UNL     1      30.955   7.256  48.395  1.00  0.00     0.039 C 
HETATM   21  C20 UNL     1      29.614   7.142  47.674  1.00  0.00    -0.049 C 
HETATM   22  C21 UNL     1      29.530   7.597  46.375  1.00  0.00     0.007 C 
HETATM   23  C22 UNL     1      28.778   8.268  45.272  1.00  0.00     0.199 C 
HETATM   24  O2  UNL     1      27.457   8.598  45.561  1.00  0.00    -0.350 OA
HETATM   25  C23 UNL     1      27.293   9.474  46.614  1.00  0.00     0.397 C 
HETATM   26  H12 UNL     1      29.189  11.365  45.895  1.00  0.00     0.320 HD
ENDROOT
BRANCH   1  27
HETATM   27  O1  UNL     1      24.791   7.433  48.616  1.00  0.00    -0.355 OA
HETATM   28  C1  UNL     1      23.534   6.818  48.799  1.00  0.00     0.210 C 
ENDBRANCH   1  27
TORSDOF 1
ENDMDL
