MODEL 1
REMARK VINA RESULT:      -7.3      0.000      0.000
REMARK  6 active torsions:
REMARK  status: ('A' for Active; 'I' for Inactive)
REMARK    1  A    between atoms: C2_3  and  C3_4 
REMARK    2  A    between atoms: C4_5  and  C5_6 
REMARK    3  A    between atoms: C5_6  and  N2_7 
REMARK       I    between atoms: N2_7  and  C6_8 
REMARK    4  A    between atoms: C6_8  and  C7_10 
REMARK    5  A    between atoms: C9_14  and  C10_15 
REMARK    6  A    between atoms: C13_18  and  O3_19 
ROOT
HETATM    1  C7  UNL     1      27.317   0.849  53.283  1.00  0.00     0.160 A 
HETATM    2  N3  UNL     1      28.600   0.902  53.752  1.00  0.00    -0.228 NA
HETATM    3  C8  UNL     1      28.630   0.196  54.856  1.00  0.00     0.259 A 
HETATM    4  O2  UNL     1      27.458  -0.261  55.061  1.00  0.00    -0.301 OA
HETATM    5  C9  UNL     1      26.584   0.085  54.149  1.00  0.00     0.121 A 
ENDROOT
BRANCH   1   6
HETATM    6  C6  UNL     1      26.778   1.474  52.095  1.00  0.00     0.273 C 
HETATM    7  N2  UNL     1      25.893   2.582  52.416  1.00  0.00    -0.345 N 
HETATM    8  H7  UNL     1      25.647   2.926  53.416  1.00  0.00     0.163 HD
HETATM    9  O1  UNL     1      26.565   1.693  50.885  1.00  0.00    -0.266 OA
BRANCH   7  10
HETATM   10  C5  UNL     1      25.262   3.317  51.308  1.00  0.00     0.217 C 
BRANCH  10  11
HETATM   11  C4  UNL     1      23.900   3.624  51.675  1.00  0.00    -0.081 C 
HETATM   12  C3  UNL     1      22.763   3.891  51.965  1.00  0.00    -0.058 C 
BRANCH  12  13
HETATM   13  C2  UNL     1      21.419   4.228  52.302  1.00  0.00     0.174 C 
HETATM   14  N1  UNL     1      20.488   3.412  52.577  1.00  0.00    -0.298 NA
HETATM   15  C1  UNL     1      20.543   1.988  52.619  1.00  0.00     0.178 C 
ENDBRANCH  12  13
ENDBRANCH  10  11
ENDBRANCH   7  10
ENDBRANCH   1   6
BRANCH   5  16
HETATM   16  C10 UNL     1      25.212  -0.344  54.225  1.00  0.00     0.001 A 
HETATM   17  C11 UNL     1      24.205  -0.241  53.317  1.00  0.00     0.017 A 
HETATM   18  C12 UNL     1      22.923  -0.662  53.455  1.00  0.00     0.037 A 
HETATM   19  C13 UNL     1      22.521  -1.264  54.605  1.00  0.00     0.068 A 
HETATM   20  C15 UNL     1      23.474  -1.413  55.584  1.00  0.00     0.037 A 
HETATM   21  C16 UNL     1      24.758  -0.970  55.392  1.00  0.00     0.017 A 
BRANCH  19  22
HETATM   22  O3  UNL     1      21.253  -1.727  54.853  1.00  0.00    -0.356 OA
HETATM   23  C14 UNL     1      20.155  -1.506  53.990  1.00  0.00     0.210 C 
ENDBRANCH  19  22
ENDBRANCH   5  16
TORSDOF 6
ENDMDL
MODEL 2
REMARK VINA RESULT:      -7.3      3.055      4.492
REMARK  6 active torsions:
REMARK  status: ('A' for Active; 'I' for Inactive)
REMARK    1  A    between atoms: C2_3  and  C3_4 
REMARK    2  A    between atoms: C4_5  and  C5_6 
REMARK    3  A    between atoms: C5_6  and  N2_7 
REMARK       I    between atoms: N2_7  and  C6_8 
REMARK    4  A    between atoms: C6_8  and  C7_10 
REMARK    5  A    between atoms: C9_14  and  C10_15 
REMARK    6  A    between atoms: C13_18  and  O3_19 
ROOT
HETATM    1  C7  UNL     1      27.180   2.070  52.518  1.00  0.00     0.160 A 
HETATM    2  N3  UNL     1      28.480   2.396  52.786  1.00  0.00    -0.228 NA
HETATM    3  C8  UNL     1      28.812   1.762  53.884  1.00  0.00     0.259 A 
HETATM    4  O2  UNL     1      27.800   1.092  54.272  1.00  0.00    -0.301 OA
HETATM    5  C9  UNL     1      26.750   1.217  53.498  1.00  0.00     0.121 A 
ENDROOT
BRANCH   1   6
HETATM    6  C6  UNL     1      26.358   2.521  51.416  1.00  0.00     0.273 C 
HETATM    7  N2  UNL     1      27.029   3.530  50.613  1.00  0.00    -0.345 N 
HETATM    8  H7  UNL     1      28.027   3.919  50.791  1.00  0.00     0.163 HD
HETATM    9  O1  UNL     1      25.374   2.610  50.654  1.00  0.00    -0.266 OA
BRANCH   7  10
HETATM   10  C5  UNL     1      26.315   4.090  49.455  1.00  0.00     0.217 C 
BRANCH  10  11
HETATM   11  C4  UNL     1      27.160   5.078  48.826  1.00  0.00    -0.081 C 
HETATM   12  C3  UNL     1      27.876   5.885  48.296  1.00  0.00    -0.058 C 
BRANCH  12  13
HETATM   13  C2  UNL     1      28.742   6.833  47.675  1.00  0.00     0.174 C 
HETATM   14  N1  UNL     1      29.992   6.944  47.862  1.00  0.00    -0.298 NA
HETATM   15  C1  UNL     1      30.830   6.172  48.718  1.00  0.00     0.178 C 
ENDBRANCH  12  13
ENDBRANCH  10  11
ENDBRANCH   7  10
ENDBRANCH   1   6
BRANCH   5  16
HETATM   16  C10 UNL     1      25.519   0.529  53.788  1.00  0.00     0.001 A 
HETATM   17  C11 UNL     1      24.287   0.656  53.228  1.00  0.00     0.017 A 
HETATM   18  C12 UNL     1      23.158  -0.022  53.556  1.00  0.00     0.037 A 
HETATM   19  C13 UNL     1      23.181  -0.949  54.550  1.00  0.00     0.068 A 
HETATM   20  C15 UNL     1      24.389  -1.145  55.177  1.00  0.00     0.037 A 
HETATM   21  C16 UNL     1      25.501  -0.433  54.805  1.00  0.00     0.017 A 
BRANCH  19  22
HETATM   22  O3  UNL     1      22.103  -1.691  54.965  1.00  0.00    -0.356 OA
HETATM   23  C14 UNL     1      20.836  -1.648  54.339  1.00  0.00     0.210 C 
ENDBRANCH  19  22
ENDBRANCH   5  16
TORSDOF 6
ENDMDL
MODEL 3
REMARK VINA RESULT:      -7.2      2.953      4.064
REMARK  6 active torsions:
REMARK  status: ('A' for Active; 'I' for Inactive)
REMARK    1  A    between atoms: C2_3  and  C3_4 
REMARK    2  A    between atoms: C4_5  and  C5_6 
REMARK    3  A    between atoms: C5_6  and  N2_7 
REMARK       I    between atoms: N2_7  and  C6_8 
REMARK    4  A    between atoms: C6_8  and  C7_10 
REMARK    5  A    between atoms: C9_14  and  C10_15 
REMARK    6  A    between atoms: C13_18  and  O3_19 
ROOT
HETATM    1  C7  UNL     1      27.076   2.130  52.437  1.00  0.00     0.160 A 
HETATM    2  N3  UNL     1      28.367   2.494  52.700  1.00  0.00    -0.228 NA
HETATM    3  C8  UNL     1      28.711   1.895  53.814  1.00  0.00     0.259 A 
HETATM    4  O2  UNL     1      27.714   1.211  54.216  1.00  0.00    -0.301 OA
HETATM    5  C9  UNL     1      26.664   1.291  53.437  1.00  0.00     0.121 A 
ENDROOT
BRANCH   1   6
HETATM    6  C6  UNL     1      26.247   2.533  51.322  1.00  0.00     0.273 C 
HETATM    7  N2  UNL     1      26.863   3.593  50.541  1.00  0.00    -0.345 N 
HETATM    8  H7  UNL     1      27.829   4.047  50.741  1.00  0.00     0.163 HD
HETATM    9  O1  UNL     1      25.274   2.562  50.542  1.00  0.00    -0.266 OA
BRANCH   7  10
HETATM   10  C5  UNL     1      26.135   4.113  49.373  1.00  0.00     0.217 C 
BRANCH  10  11
HETATM   11  C4  UNL     1      26.763   5.342  48.948  1.00  0.00    -0.081 C 
HETATM   12  C3  UNL     1      27.273   6.367  48.580  1.00  0.00    -0.058 C 
BRANCH  12  13
HETATM   13  C2  UNL     1      27.876   7.577  48.124  1.00  0.00     0.174 C 
HETATM   14  N1  UNL     1      27.894   8.685  48.739  1.00  0.00    -0.298 NA
HETATM   15  C1  UNL     1      27.331   9.001  50.010  1.00  0.00     0.178 C 
ENDBRANCH  12  13
ENDBRANCH  10  11
ENDBRANCH   7  10
ENDBRANCH   1   6
BRANCH   5  16
HETATM   16  C10 UNL     1      25.449   0.581  53.741  1.00  0.00     0.001 A 
HETATM   17  C11 UNL     1      24.194   0.727  53.239  1.00  0.00     0.017 A 
HETATM   18  C12 UNL     1      23.083   0.027  53.577  1.00  0.00     0.037 A 
HETATM   19  C13 UNL     1      23.151  -0.951  54.520  1.00  0.00     0.068 A 
HETATM   20  C15 UNL     1      24.384  -1.171  55.085  1.00  0.00     0.037 A 
HETATM   21  C16 UNL     1      25.477  -0.433  54.706  1.00  0.00     0.017 A 
BRANCH  19  22
HETATM   22  O3  UNL     1      22.094  -1.720  54.938  1.00  0.00    -0.356 OA
HETATM   23  C14 UNL     1      20.809  -1.671  54.352  1.00  0.00     0.210 C 
ENDBRANCH  19  22
ENDBRANCH   5  16
TORSDOF 6
ENDMDL
MODEL 4
REMARK VINA RESULT:      -6.9      2.227      5.327
REMARK  6 active torsions:
REMARK  status: ('A' for Active; 'I' for Inactive)
REMARK    1  A    between atoms: C2_3  and  C3_4 
REMARK    2  A    between atoms: C4_5  and  C5_6 
REMARK    3  A    between atoms: C5_6  and  N2_7 
REMARK       I    between atoms: N2_7  and  C6_8 
REMARK    4  A    between atoms: C6_8  and  C7_10 
REMARK    5  A    between atoms: C9_14  and  C10_15 
REMARK    6  A    between atoms: C13_18  and  O3_19 
ROOT
HETATM    1  C7  UNL     1      22.309  -0.141  53.083  1.00  0.00     0.160 A 
HETATM    2  N3  UNL     1      21.240  -0.683  53.740  1.00  0.00    -0.228 NA
HETATM    3  C8  UNL     1      21.717  -1.327  54.777  1.00  0.00     0.259 A 
HETATM    4  O2  UNL     1      22.985  -1.197  54.770  1.00  0.00    -0.301 OA
HETATM    5  C9  UNL     1      23.442  -0.486  53.769  1.00  0.00     0.121 A 
ENDROOT
BRANCH   1   6
HETATM    6  C6  UNL     1      22.302   0.655  51.876  1.00  0.00     0.273 C 
HETATM    7  N2  UNL     1      22.768   2.011  52.115  1.00  0.00    -0.345 N 
HETATM    8  H7  UNL     1      23.092   2.410  53.072  1.00  0.00     0.163 HD
HETATM    9  O1  UNL     1      22.143   0.953  50.675  1.00  0.00    -0.266 OA
BRANCH   7  10
HETATM   10  C5  UNL     1      22.814   2.945  50.978  1.00  0.00     0.217 C 
BRANCH  10  11
HETATM   11  C4  UNL     1      24.185   3.071  50.541  1.00  0.00    -0.081 C 
HETATM   12  C3  UNL     1      25.324   3.158  50.168  1.00  0.00    -0.058 C 
BRANCH  12  13
HETATM   13  C2  UNL     1      26.679   3.242  49.730  1.00  0.00     0.174 C 
HETATM   14  N1  UNL     1      27.223   4.233  49.155  1.00  0.00    -0.298 NA
HETATM   15  C1  UNL     1      26.636   5.485  48.808  1.00  0.00     0.178 C 
ENDBRANCH  12  13
ENDBRANCH  10  11
ENDBRANCH   7  10
ENDBRANCH   1   6
BRANCH   5  16
HETATM   16  C10 UNL     1      24.852  -0.240  53.607  1.00  0.00     0.001 A 
HETATM   17  C11 UNL     1      25.605  -0.147  52.479  1.00  0.00     0.017 A 
HETATM   18  C12 UNL     1      26.940   0.080  52.395  1.00  0.00     0.037 A 
HETATM   19  C13 UNL     1      27.679   0.243  53.525  1.00  0.00     0.068 A 
HETATM   20  C15 UNL     1      26.999   0.164  54.717  1.00  0.00     0.037 A 
HETATM   21  C16 UNL     1      25.647  -0.067  54.746  1.00  0.00     0.017 A 
BRANCH  19  22
HETATM   22  O3  UNL     1      29.031   0.476  53.559  1.00  0.00    -0.356 OA
HETATM   23  C14 UNL     1      30.004  -0.549  53.533  1.00  0.00     0.210 C 
ENDBRANCH  19  22
ENDBRANCH   5  16
TORSDOF 6
ENDMDL
MODEL 5
REMARK VINA RESULT:      -6.8      1.922      4.177
REMARK  6 active torsions:
REMARK  status: ('A' for Active; 'I' for Inactive)
REMARK    1  A    between atoms: C2_3  and  C3_4 
REMARK    2  A    between atoms: C4_5  and  C5_6 
REMARK    3  A    between atoms: C5_6  and  N2_7 
REMARK       I    between atoms: N2_7  and  C6_8 
REMARK    4  A    between atoms: C6_8  and  C7_10 
REMARK    5  A    between atoms: C9_14  and  C10_15 
REMARK    6  A    between atoms: C13_18  and  O3_19 
ROOT
HETATM    1  C7  UNL     1      27.217   0.102  54.571  1.00  0.00     0.160 A 
HETATM    2  N3  UNL     1      28.539  -0.171  54.790  1.00  0.00    -0.228 NA
HETATM    3  C8  UNL     1      29.223   0.560  53.943  1.00  0.00     0.259 A 
HETATM    4  O2  UNL     1      28.394   1.236  53.250  1.00  0.00    -0.301 OA
HETATM    5  C9  UNL     1      27.140   1.024  53.562  1.00  0.00     0.121 A 
ENDROOT
BRANCH   1   6
HETATM    6  C6  UNL     1      26.069  -0.457  55.250  1.00  0.00     0.273 C 
HETATM    7  N2  UNL     1      24.947  -0.659  54.347  1.00  0.00    -0.345 N 
HETATM    8  H7  UNL     1      24.941  -0.430  53.285  1.00  0.00     0.163 HD
HETATM    9  O1  UNL     1      25.367  -0.911  56.176  1.00  0.00    -0.266 OA
BRANCH   7  10
HETATM   10  C5  UNL     1      23.702  -1.219  54.894  1.00  0.00     0.217 C 
BRANCH  10  11
HETATM   11  C4  UNL     1      22.584  -0.519  54.306  1.00  0.00    -0.081 C 
HETATM   12  C3  UNL     1      21.650   0.074  53.835  1.00  0.00    -0.058 C 
BRANCH  12  13
HETATM   13  C2  UNL     1      20.532   0.774  53.292  1.00  0.00     0.174 C 
HETATM   14  N1  UNL     1      20.331   1.033  52.067  1.00  0.00    -0.298 NA
HETATM   15  C1  UNL     1      21.148   0.702  50.947  1.00  0.00     0.178 C 
ENDBRANCH  12  13
ENDBRANCH  10  11
ENDBRANCH   7  10
ENDBRANCH   1   6
BRANCH   5  16
HETATM   16  C10 UNL     1      26.072   1.706  52.879  1.00  0.00     0.001 A 
HETATM   17  C11 UNL     1      25.701   1.673  51.572  1.00  0.00     0.017 A 
HETATM   18  C12 UNL     1      24.682   2.352  50.986  1.00  0.00     0.037 A 
HETATM   19  C13 UNL     1      23.898   3.180  51.725  1.00  0.00     0.068 A 
HETATM   20  C15 UNL     1      24.199   3.277  53.062  1.00  0.00     0.037 A 
HETATM   21  C16 UNL     1      25.241   2.568  53.605  1.00  0.00     0.017 A 
BRANCH  19  22
HETATM   22  O3  UNL     1      22.844   3.913  51.239  1.00  0.00    -0.356 OA
HETATM   23  C14 UNL     1      21.873   4.531  52.061  1.00  0.00     0.210 C 
ENDBRANCH  19  22
ENDBRANCH   5  16
TORSDOF 6
ENDMDL
MODEL 6
REMARK VINA RESULT:      -6.7      2.547      4.843
REMARK  6 active torsions:
REMARK  status: ('A' for Active; 'I' for Inactive)
REMARK    1  A    between atoms: C2_3  and  C3_4 
REMARK    2  A    between atoms: C4_5  and  C5_6 
REMARK    3  A    between atoms: C5_6  and  N2_7 
REMARK       I    between atoms: N2_7  and  C6_8 
REMARK    4  A    between atoms: C6_8  and  C7_10 
REMARK    5  A    between atoms: C9_14  and  C10_15 
REMARK    6  A    between atoms: C13_18  and  O3_19 
ROOT
HETATM    1  C7  UNL     1      25.548  -0.626  53.765  1.00  0.00     0.160 A 
HETATM    2  N3  UNL     1      26.704  -1.330  53.576  1.00  0.00    -0.228 NA
HETATM    3  C8  UNL     1      27.393  -0.691  52.662  1.00  0.00     0.259 A 
HETATM    4  O2  UNL     1      26.721   0.333  52.309  1.00  0.00    -0.301 OA
HETATM    5  C9  UNL     1      25.574   0.458  52.930  1.00  0.00     0.121 A 
ENDROOT
BRANCH   1   6
HETATM    6  C6  UNL     1      24.458  -0.930  54.667  1.00  0.00     0.273 C 
HETATM    7  N2  UNL     1      23.183  -1.009  53.973  1.00  0.00    -0.345 N 
HETATM    8  H7  UNL     1      23.033  -0.866  52.907  1.00  0.00     0.163 HD
HETATM    9  O1  UNL     1      23.862  -1.186  55.732  1.00  0.00    -0.266 OA
BRANCH   7  10
HETATM   10  C5  UNL     1      21.977  -1.308  54.761  1.00  0.00     0.217 C 
BRANCH  10  11
HETATM   11  C4  UNL     1      20.817  -0.913  53.996  1.00  0.00    -0.081 C 
HETATM   12  C3  UNL     1      19.852  -0.603  53.350  1.00  0.00    -0.058 C 
BRANCH  12  13
HETATM   13  C2  UNL     1      18.715  -0.243  52.567  1.00  0.00     0.174 C 
HETATM   14  N1  UNL     1      17.624  -0.884  52.488  1.00  0.00    -0.298 NA
HETATM   15  C1  UNL     1      17.263  -2.098  53.143  1.00  0.00     0.178 C 
ENDBRANCH  12  13
ENDBRANCH  10  11
ENDBRANCH   7  10
ENDBRANCH   1   6
BRANCH   5  16
HETATM   16  C10 UNL     1      24.687   1.558  52.652  1.00  0.00     0.001 A 
HETATM   17  C11 UNL     1      24.614   2.793  53.215  1.00  0.00     0.017 A 
HETATM   18  C12 UNL     1      23.742   3.787  52.911  1.00  0.00     0.037 A 
HETATM   19  C13 UNL     1      22.803   3.603  51.945  1.00  0.00     0.068 A 
HETATM   20  C15 UNL     1      22.802   2.379  51.319  1.00  0.00     0.037 A 
HETATM   21  C16 UNL     1      23.707   1.408  51.664  1.00  0.00     0.017 A 
BRANCH  19  22
HETATM   22  O3  UNL     1      21.875   4.536  51.557  1.00  0.00    -0.356 OA
HETATM   23  C14 UNL     1      20.535   4.220  51.233  1.00  0.00     0.210 C 
ENDBRANCH  19  22
ENDBRANCH   5  16
TORSDOF 6
ENDMDL
MODEL 7
REMARK VINA RESULT:      -6.6      2.703      4.287
REMARK  6 active torsions:
REMARK  status: ('A' for Active; 'I' for Inactive)
REMARK    1  A    between atoms: C2_3  and  C3_4 
REMARK    2  A    between atoms: C4_5  and  C5_6 
REMARK    3  A    between atoms: C5_6  and  N2_7 
REMARK       I    between atoms: N2_7  and  C6_8 
REMARK    4  A    between atoms: C6_8  and  C7_10 
REMARK    5  A    between atoms: C9_14  and  C10_15 
REMARK    6  A    between atoms: C13_18  and  O3_19 
ROOT
HETATM    1  C7  UNL     1      24.923   1.180  53.072  1.00  0.00     0.160 A 
HETATM    2  N3  UNL     1      26.172   0.775  53.450  1.00  0.00    -0.228 NA
HETATM    3  C8  UNL     1      26.044  -0.426  53.959  1.00  0.00     0.259 A 
HETATM    4  O2  UNL     1      24.811  -0.746  53.904  1.00  0.00    -0.301 OA
HETATM    5  C9  UNL     1      24.045   0.175  53.375  1.00  0.00     0.121 A 
ENDROOT
BRANCH   1   6
HETATM    6  C6  UNL     1      24.540   2.436  52.463  1.00  0.00     0.273 C 
HETATM    7  N2  UNL     1      24.952   2.514  51.071  1.00  0.00    -0.345 N 
HETATM    8  H7  UNL     1      25.481   1.740  50.523  1.00  0.00     0.163 HD
HETATM    9  O1  UNL     1      24.051   3.578  52.352  1.00  0.00    -0.266 OA
BRANCH   7  10
HETATM   10  C5  UNL     1      24.636   3.737  50.316  1.00  0.00     0.217 C 
BRANCH  10  11
HETATM   11  C4  UNL     1      25.834   4.189  49.648  1.00  0.00    -0.081 C 
HETATM   12  C3  UNL     1      26.839   4.572  49.110  1.00  0.00    -0.058 C 
BRANCH  12  13
HETATM   13  C2  UNL     1      28.029   5.045  48.482  1.00  0.00     0.174 C 
HETATM   14  N1  UNL     1      28.316   6.254  48.231  1.00  0.00    -0.298 NA
HETATM   15  C1  UNL     1      27.544   7.422  48.504  1.00  0.00     0.178 C 
ENDBRANCH  12  13
ENDBRANCH  10  11
ENDBRANCH   7  10
ENDBRANCH   1   6
BRANCH   5  16
HETATM   16  C10 UNL     1      22.625  -0.021  53.234  1.00  0.00     0.001 A 
HETATM   17  C11 UNL     1      21.762   0.441  52.291  1.00  0.00     0.017 A 
HETATM   18  C12 UNL     1      20.424   0.226  52.221  1.00  0.00     0.037 A 
HETATM   19  C13 UNL     1      19.802  -0.527  53.167  1.00  0.00     0.068 A 
HETATM   20  C15 UNL     1      20.598  -1.038  54.164  1.00  0.00     0.037 A 
HETATM   21  C16 UNL     1      21.948  -0.790  54.187  1.00  0.00     0.017 A 
BRANCH  19  22
HETATM   22  O3  UNL     1      18.459  -0.809  53.195  1.00  0.00    -0.356 OA
HETATM   23  C14 UNL     1      17.931  -2.073  53.546  1.00  0.00     0.210 C 
ENDBRANCH  19  22
ENDBRANCH   5  16
TORSDOF 6
ENDMDL
MODEL 8
REMARK VINA RESULT:      -6.6      3.681      6.926
REMARK  6 active torsions:
REMARK  status: ('A' for Active; 'I' for Inactive)
REMARK    1  A    between atoms: C2_3  and  C3_4 
REMARK    2  A    between atoms: C4_5  and  C5_6 
REMARK    3  A    between atoms: C5_6  and  N2_7 
REMARK       I    between atoms: N2_7  and  C6_8 
REMARK    4  A    between atoms: C6_8  and  C7_10 
REMARK    5  A    between atoms: C9_14  and  C10_15 
REMARK    6  A    between atoms: C13_18  and  O3_19 
ROOT
HETATM    1  C7  UNL     1      22.060  -0.741  54.451  1.00  0.00     0.160 A 
HETATM    2  N3  UNL     1      22.344  -1.596  55.479  1.00  0.00    -0.228 NA
HETATM    3  C8  UNL     1      23.647  -1.597  55.624  1.00  0.00     0.259 A 
HETATM    4  O2  UNL     1      24.139  -0.805  54.754  1.00  0.00    -0.301 OA
HETATM    5  C9  UNL     1      23.244  -0.232  53.989  1.00  0.00     0.121 A 
ENDROOT
BRANCH   1   6
HETATM    6  C6  UNL     1      20.763  -0.403  53.906  1.00  0.00     0.273 C 
HETATM    7  N2  UNL     1      19.822  -1.505  54.018  1.00  0.00    -0.345 N 
HETATM    8  H7  UNL     1      20.034  -2.477  54.453  1.00  0.00     0.163 HD
HETATM    9  O1  UNL     1      19.865   0.272  53.364  1.00  0.00    -0.266 OA
BRANCH   7  10
HETATM   10  C5  UNL     1      18.457  -1.313  53.502  1.00  0.00     0.217 C 
BRANCH  10  11
HETATM   11  C4  UNL     1      17.757  -2.574  53.572  1.00  0.00    -0.081 C 
HETATM   12  C3  UNL     1      17.185  -3.630  53.646  1.00  0.00    -0.058 C 
BRANCH  12  13
HETATM   13  C2  UNL     1      16.526  -4.891  53.736  1.00  0.00     0.174 C 
HETATM   14  N1  UNL     1      15.548  -5.279  53.028  1.00  0.00    -0.298 NA
HETATM   15  C1  UNL     1      14.874  -4.574  51.988  1.00  0.00     0.178 C 
ENDBRANCH  12  13
ENDBRANCH  10  11
ENDBRANCH   7  10
ENDBRANCH   1   6
BRANCH   5  16
HETATM   16  C10 UNL     1      23.625   0.693  52.953  1.00  0.00     0.001 A 
HETATM   17  C11 UNL     1      22.863   1.509  52.178  1.00  0.00     0.017 A 
HETATM   18  C12 UNL     1      23.287   2.356  51.207  1.00  0.00     0.037 A 
HETATM   19  C13 UNL     1      24.612   2.455  50.915  1.00  0.00     0.068 A 
HETATM   20  C15 UNL     1      25.461   1.663  51.650  1.00  0.00     0.037 A 
HETATM   21  C16 UNL     1      24.979   0.824  52.623  1.00  0.00     0.017 A 
BRANCH  19  22
HETATM   22  O3  UNL     1      25.151   3.275  49.956  1.00  0.00    -0.356 OA
HETATM   23  C14 UNL     1      26.520   3.277  49.606  1.00  0.00     0.210 C 
ENDBRANCH  19  22
ENDBRANCH   5  16
TORSDOF 6
ENDMDL
MODEL 9
REMARK VINA RESULT:      -6.6      2.730      5.826
REMARK  6 active torsions:
REMARK  status: ('A' for Active; 'I' for Inactive)
REMARK    1  A    between atoms: C2_3  and  C3_4 
REMARK    2  A    between atoms: C4_5  and  C5_6 
REMARK    3  A    between atoms: C5_6  and  N2_7 
REMARK       I    between atoms: N2_7  and  C6_8 
REMARK    4  A    between atoms: C6_8  and  C7_10 
REMARK    5  A    between atoms: C9_14  and  C10_15 
REMARK    6  A    between atoms: C13_18  and  O3_19 
ROOT
HETATM    1  C7  UNL     1      22.003   2.246  51.904  1.00  0.00     0.160 A 
HETATM    2  N3  UNL     1      20.710   1.893  51.636  1.00  0.00    -0.228 NA
HETATM    3  C8  UNL     1      20.656   0.584  51.682  1.00  0.00     0.259 A 
HETATM    4  O2  UNL     1      21.824   0.154  51.959  1.00  0.00    -0.301 OA
HETATM    5  C9  UNL     1      22.717   1.098  52.113  1.00  0.00     0.121 A 
ENDROOT
BRANCH   1   6
HETATM    6  C6  UNL     1      22.568   3.577  51.963  1.00  0.00     0.273 C 
HETATM    7  N2  UNL     1      23.363   3.884  50.785  1.00  0.00    -0.345 N 
HETATM    8  H7  UNL     1      23.530   3.219  49.944  1.00  0.00     0.163 HD
HETATM    9  O1  UNL     1      22.834   4.713  52.404  1.00  0.00    -0.266 OA
BRANCH   7  10
HETATM   10  C5  UNL     1      24.007   5.205  50.702  1.00  0.00     0.217 C 
BRANCH  10  11
HETATM   11  C4  UNL     1      25.254   5.064  49.986  1.00  0.00    -0.081 C 
HETATM   12  C3  UNL     1      26.288   4.927  49.388  1.00  0.00    -0.058 C 
BRANCH  12  13
HETATM   13  C2  UNL     1      27.518   4.748  48.689  1.00  0.00     0.174 C 
HETATM   14  N1  UNL     1      28.262   5.667  48.230  1.00  0.00    -0.298 NA
HETATM   15  C1  UNL     1      28.065   7.078  48.293  1.00  0.00     0.178 C 
ENDBRANCH  12  13
ENDBRANCH  10  11
ENDBRANCH   7  10
ENDBRANCH   1   6
BRANCH   5  16
HETATM   16  C10 UNL     1      24.088   0.789  52.429  1.00  0.00     0.001 A 
HETATM   17  C11 UNL     1      25.240   1.165  51.812  1.00  0.00     0.017 A 
HETATM   18  C12 UNL     1      26.508   0.829  52.158  1.00  0.00     0.037 A 
HETATM   19  C13 UNL     1      26.735   0.027  53.232  1.00  0.00     0.068 A 
HETATM   20  C15 UNL     1      25.626  -0.404  53.919  1.00  0.00     0.037 A 
HETATM   21  C16 UNL     1      24.364  -0.033  53.527  1.00  0.00     0.017 A 
BRANCH  19  22
HETATM   22  O3  UNL     1      27.972  -0.375  53.670  1.00  0.00    -0.356 OA
HETATM   23  C14 UNL     1      28.576   0.103  54.855  1.00  0.00     0.210 C 
ENDBRANCH  19  22
ENDBRANCH   5  16
TORSDOF 6
ENDMDL
