MODEL 1
REMARK VINA RESULT:      -7.5      0.000      0.000
REMARK  3 active torsions:
REMARK  status: ('A' for Active; 'I' for Inactive)
REMARK    1  A    between atoms: O1_2  and  C2_3 
REMARK    2  A    between atoms: N1_7  and  C6_8 
REMARK    3  A    between atoms: C16_20  and  O3_21 
ROOT
HETATM    1  C6  UNL     1      25.823   1.346  52.676  1.00  0.00     0.263 C 
HETATM    2  N2  UNL     1      26.161   1.922  54.051  1.00  0.00    -0.362 N 
HETATM    3  C7  UNL     1      26.603   0.704  54.785  1.00  0.00     0.028 C 
HETATM    4  C8  UNL     1      25.938  -0.301  55.508  1.00  0.00     0.029 C 
HETATM    5  C9  UNL     1      24.681  -0.817  54.688  1.00  0.00     0.205 C 
HETATM    6  O2  UNL     1      25.169  -1.070  53.258  1.00  0.00    -0.348 OA
HETATM    7  C10 UNL     1      26.188  -0.127  52.778  1.00  0.00     0.091 C 
HETATM    8  C11 UNL     1      27.332  -0.853  52.534  1.00  0.00     0.043 C 
HETATM    9  C12 UNL     1      28.448  -0.387  53.514  1.00  0.00    -0.057 C 
HETATM   10  C13 UNL     1      29.846  -0.513  53.239  1.00  0.00     0.048 C 
HETATM   11  C14 UNL     1      28.042   0.090  54.795  1.00  0.00     0.035 C 
HETATM   12  H8  UNL     1      25.997   2.934  54.075  1.00  0.00     0.162 HD
ENDROOT
BRANCH   1  13
HETATM   13  N1  UNL     1      26.487   2.047  51.650  1.00  0.00    -0.261 NA
HETATM   14  C5  UNL     1      25.881   2.956  50.961  1.00  0.00     0.038 A 
HETATM   15  C4  UNL     1      26.862   3.489  49.972  1.00  0.00     0.089 A 
HETATM   16  C15 UNL     1      24.508   3.441  51.054  1.00  0.00     0.066 A 
HETATM   17  C3  UNL     1      26.209   4.552  49.142  1.00  0.00     0.019 A 
HETATM   18  C2  UNL     1      24.961   4.991  49.229  1.00  0.00     0.098 A 
HETATM   19  C16 UNL     1      24.096   4.392  50.236  1.00  0.00     0.103 A 
BRANCH  18  20
HETATM   20  O1  UNL     1      24.371   5.978  48.451  1.00  0.00    -0.353 OA
HETATM   21  C1  UNL     1      24.900   7.240  48.179  1.00  0.00     0.210 C 
ENDBRANCH  18  20
BRANCH  19  22
HETATM   22  O3  UNL     1      22.759   4.785  50.410  1.00  0.00    -0.353 OA
HETATM   23  C17 UNL     1      22.365   5.125  51.733  1.00  0.00     0.210 C 
ENDBRANCH  19  22
ENDBRANCH   1  13
TORSDOF 3
ENDMDL
MODEL 2
REMARK VINA RESULT:      -7.5      2.417      6.971
REMARK  3 active torsions:
REMARK  status: ('A' for Active; 'I' for Inactive)
REMARK    1  A    between atoms: O1_2  and  C2_3 
REMARK    2  A    between atoms: N1_7  and  C6_8 
REMARK    3  A    between atoms: C16_20  and  O3_21 
ROOT
HETATM    1  C6  UNL     1      23.066   3.278  52.305  1.00  0.00     0.263 C 
HETATM    2  N2  UNL     1      21.578   3.622  52.226  1.00  0.00    -0.362 N 
HETATM    3  C7  UNL     1      21.507   4.345  50.926  1.00  0.00     0.028 C 
HETATM    4  C8  UNL     1      21.709   5.679  50.532  1.00  0.00     0.029 C 
HETATM    5  C9  UNL     1      23.047   6.238  51.177  1.00  0.00     0.205 C 
HETATM    6  O2  UNL     1      24.123   5.176  50.933  1.00  0.00    -0.348 OA
HETATM    7  C10 UNL     1      23.646   3.788  50.995  1.00  0.00     0.091 C 
HETATM    8  C11 UNL     1      23.833   3.237  49.747  1.00  0.00     0.043 C 
HETATM    9  C12 UNL     1      22.445   2.889  49.134  1.00  0.00    -0.057 C 
HETATM   10  C13 UNL     1      22.250   1.876  48.143  1.00  0.00     0.048 C 
HETATM   11  C14 UNL     1      21.337   3.704  49.509  1.00  0.00     0.035 C 
HETATM   12  H8  UNL     1      21.077   3.272  53.049  1.00  0.00     0.162 HD
ENDROOT
BRANCH   1  13
HETATM   13  N1  UNL     1      23.262   1.904  52.541  1.00  0.00    -0.261 NA
HETATM   14  C5  UNL     1      24.368   1.462  53.039  1.00  0.00     0.038 A 
HETATM   15  C4  UNL     1      24.241  -0.020  53.156  1.00  0.00     0.089 A 
HETATM   16  C15 UNL     1      25.567   2.186  53.445  1.00  0.00     0.066 A 
HETATM   17  C3  UNL     1      25.502  -0.588  53.732  1.00  0.00     0.019 A 
HETATM   18  C2  UNL     1      26.590   0.073  54.099  1.00  0.00     0.098 A 
HETATM   19  C16 UNL     1      26.596   1.522  53.938  1.00  0.00     0.103 A 
BRANCH  18  20
HETATM   20  O1  UNL     1      27.752  -0.469  54.632  1.00  0.00    -0.353 OA
HETATM   21  C1  UNL     1      28.871  -0.889  53.912  1.00  0.00     0.210 C 
ENDBRANCH  18  20
BRANCH  19  22
HETATM   22  O3  UNL     1      27.698   2.315  54.296  1.00  0.00    -0.353 OA
HETATM   23  C17 UNL     1      28.652   2.572  53.274  1.00  0.00     0.210 C 
ENDBRANCH  19  22
ENDBRANCH   1  13
TORSDOF 3
ENDMDL
MODEL 3
REMARK VINA RESULT:      -7.4      2.906      6.890
REMARK  3 active torsions:
REMARK  status: ('A' for Active; 'I' for Inactive)
REMARK    1  A    between atoms: O1_2  and  C2_3 
REMARK    2  A    between atoms: N1_7  and  C6_8 
REMARK    3  A    between atoms: C16_20  and  O3_21 
ROOT
HETATM    1  C6  UNL     1      22.886   1.646  51.923  1.00  0.00     0.263 C 
HETATM    2  N2  UNL     1      22.227   0.310  51.580  1.00  0.00    -0.362 N 
HETATM    3  C7  UNL     1      21.060   0.751  50.766  1.00  0.00     0.028 C 
HETATM    4  C8  UNL     1      19.756   1.174  51.070  1.00  0.00     0.029 C 
HETATM    5  C9  UNL     1      19.790   2.238  52.246  1.00  0.00     0.205 C 
HETATM    6  O2  UNL     1      20.880   3.252  51.882  1.00  0.00    -0.348 OA
HETATM    7  C10 UNL     1      22.047   2.683  51.193  1.00  0.00     0.091 C 
HETATM    8  C11 UNL     1      22.099   3.254  49.941  1.00  0.00     0.043 C 
HETATM    9  C12 UNL     1      21.875   2.147  48.869  1.00  0.00    -0.057 C 
HETATM   10  C13 UNL     1      22.358   2.238  47.526  1.00  0.00     0.048 C 
HETATM   11  C14 UNL     1      21.051   1.041  49.229  1.00  0.00     0.035 C 
HETATM   12  H8  UNL     1      22.751  -0.473  51.986  1.00  0.00     0.162 HD
ENDROOT
BRANCH   1  13
HETATM   13  N1  UNL     1      24.251   1.646  51.580  1.00  0.00    -0.261 NA
HETATM   14  C5  UNL     1      25.129   1.069  52.330  1.00  0.00     0.038 A 
HETATM   15  C4  UNL     1      26.460   1.257  51.681  1.00  0.00     0.089 A 
HETATM   16  C15 UNL     1      24.958   0.347  53.586  1.00  0.00     0.066 A 
HETATM   17  C3  UNL     1      27.520   0.604  52.514  1.00  0.00     0.019 A 
HETATM   18  C2  UNL     1      27.361  -0.051  53.655  1.00  0.00     0.098 A 
HETATM   19  C16 UNL     1      26.011  -0.169  54.191  1.00  0.00     0.103 A 
BRANCH  18  20
HETATM   20  O1  UNL     1      28.356  -0.651  54.415  1.00  0.00    -0.353 OA
HETATM   21  C1  UNL     1      29.645  -0.968  53.984  1.00  0.00     0.210 C 
ENDBRANCH  18  20
BRANCH  19  22
HETATM   22  O3  UNL     1      25.735  -0.843  55.392  1.00  0.00    -0.353 OA
HETATM   23  C17 UNL     1      24.393  -1.271  55.584  1.00  0.00     0.210 C 
ENDBRANCH  19  22
ENDBRANCH   1  13
TORSDOF 3
ENDMDL
MODEL 4
REMARK VINA RESULT:      -7.0      2.466      7.255
REMARK  3 active torsions:
REMARK  status: ('A' for Active; 'I' for Inactive)
REMARK    1  A    between atoms: O1_2  and  C2_3 
REMARK    2  A    between atoms: N1_7  and  C6_8 
REMARK    3  A    between atoms: C16_20  and  O3_21 
ROOT
HETATM    1  C6  UNL     1      23.425   4.521  51.970  1.00  0.00     0.263 C 
HETATM    2  N2  UNL     1      22.086   5.255  52.047  1.00  0.00    -0.362 N 
HETATM    3  C7  UNL     1      22.153   6.126  50.840  1.00  0.00     0.028 C 
HETATM    4  C8  UNL     1      22.691   7.396  50.575  1.00  0.00     0.029 C 
HETATM    5  C9  UNL     1      24.161   7.496  51.166  1.00  0.00     0.205 C 
HETATM    6  O2  UNL     1      24.893   6.224  50.726  1.00  0.00    -0.348 OA
HETATM    7  C10 UNL     1      24.059   5.016  50.679  1.00  0.00     0.091 C 
HETATM    8  C11 UNL     1      24.027   4.594  49.369  1.00  0.00     0.043 C 
HETATM    9  C12 UNL     1      22.569   4.706  48.835  1.00  0.00    -0.057 C 
HETATM   10  C13 UNL     1      22.056   3.911  47.762  1.00  0.00     0.048 C 
HETATM   11  C14 UNL     1      21.745   5.733  49.382  1.00  0.00     0.035 C 
HETATM   12  H8  UNL     1      21.549   4.952  52.866  1.00  0.00     0.162 HD
ENDROOT
BRANCH   1  13
HETATM   13  N1  UNL     1      23.250   3.126  52.043  1.00  0.00    -0.261 NA
HETATM   14  C5  UNL     1      24.141   2.368  52.587  1.00  0.00     0.038 A 
HETATM   15  C4  UNL     1      23.644   0.964  52.496  1.00  0.00     0.089 A 
HETATM   16  C15 UNL     1      25.417   2.715  53.201  1.00  0.00     0.066 A 
HETATM   17  C3  UNL     1      24.644   0.036  53.116  1.00  0.00     0.019 A 
HETATM   18  C2  UNL     1      25.803   0.355  53.674  1.00  0.00     0.098 A 
HETATM   19  C16 UNL     1      26.181   1.763  53.704  1.00  0.00     0.103 A 
BRANCH  18  20
HETATM   20  O1  UNL     1      26.719  -0.517  54.244  1.00  0.00    -0.353 OA
HETATM   21  C1  UNL     1      27.771  -1.156  53.585  1.00  0.00     0.210 C 
ENDBRANCH  18  20
BRANCH  19  22
HETATM   22  O3  UNL     1      27.387   2.206  54.271  1.00  0.00    -0.353 OA
HETATM   23  C17 UNL     1      28.468   2.420  53.373  1.00  0.00     0.210 C 
ENDBRANCH  19  22
ENDBRANCH   1  13
TORSDOF 3
ENDMDL
MODEL 5
REMARK VINA RESULT:      -6.9      3.244      5.393
REMARK  3 active torsions:
REMARK  status: ('A' for Active; 'I' for Inactive)
REMARK    1  A    between atoms: O1_2  and  C2_3 
REMARK    2  A    between atoms: N1_7  and  C6_8 
REMARK    3  A    between atoms: C16_20  and  O3_21 
ROOT
HETATM    1  C6  UNL     1      24.364   4.889  50.003  1.00  0.00     0.263 C 
HETATM    2  N2  UNL     1      24.477   5.423  51.431  1.00  0.00    -0.362 N 
HETATM    3  C7  UNL     1      23.455   4.604  52.139  1.00  0.00     0.028 C 
HETATM    4  C8  UNL     1      22.069   4.721  52.338  1.00  0.00     0.029 C 
HETATM    5  C9  UNL     1      21.352   5.075  50.968  1.00  0.00     0.205 C 
HETATM    6  O2  UNL     1      21.917   4.109  49.920  1.00  0.00    -0.348 OA
HETATM    7  C10 UNL     1      23.336   3.772  50.093  1.00  0.00     0.091 C 
HETATM    8  C11 UNL     1      23.406   2.419  50.337  1.00  0.00     0.043 C 
HETATM    9  C12 UNL     1      23.955   2.190  51.776  1.00  0.00    -0.057 C 
HETATM   10  C13 UNL     1      24.636   0.999  52.182  1.00  0.00     0.048 C 
HETATM   11  C14 UNL     1      23.664   3.182  52.757  1.00  0.00     0.035 C 
HETATM   12  H8  UNL     1      25.191   6.157  51.492  1.00  0.00     0.162 HD
ENDROOT
BRANCH   1  13
HETATM   13  N1  UNL     1      25.620   4.494  49.503  1.00  0.00    -0.261 NA
HETATM   14  C5  UNL     1      26.496   5.367  49.132  1.00  0.00     0.038 A 
HETATM   15  C4  UNL     1      27.696   4.617  48.661  1.00  0.00     0.089 A 
HETATM   16  C15 UNL     1      26.424   6.824  49.133  1.00  0.00     0.066 A 
HETATM   17  C3  UNL     1      28.750   5.585  48.216  1.00  0.00     0.019 A 
HETATM   18  C2  UNL     1      28.682   6.909  48.218  1.00  0.00     0.098 A 
HETATM   19  C16 UNL     1      27.455   7.528  48.703  1.00  0.00     0.103 A 
BRANCH  18  20
HETATM   20  O1  UNL     1      29.668   7.793  47.802  1.00  0.00    -0.353 OA
HETATM   21  C1  UNL     1      30.825   8.129  48.507  1.00  0.00     0.210 C 
ENDBRANCH  18  20
BRANCH  19  22
HETATM   22  O3  UNL     1      27.282   8.921  48.746  1.00  0.00    -0.353 OA
HETATM   23  C17 UNL     1      27.497   9.547  50.004  1.00  0.00     0.210 C 
ENDBRANCH  19  22
ENDBRANCH   1  13
TORSDOF 3
ENDMDL
MODEL 6
REMARK VINA RESULT:      -6.9      2.652      7.072
REMARK  3 active torsions:
REMARK  status: ('A' for Active; 'I' for Inactive)
REMARK    1  A    between atoms: O1_2  and  C2_3 
REMARK    2  A    between atoms: N1_7  and  C6_8 
REMARK    3  A    between atoms: C16_20  and  O3_21 
ROOT
HETATM    1  C6  UNL     1      22.234   2.370  51.123  1.00  0.00     0.263 C 
HETATM    2  N2  UNL     1      21.584   2.572  49.755  1.00  0.00    -0.362 N 
HETATM    3  C7  UNL     1      20.664   3.711  50.025  1.00  0.00     0.028 C 
HETATM    4  C8  UNL     1      19.355   3.819  50.524  1.00  0.00     0.029 C 
HETATM    5  C9  UNL     1      19.192   2.917  51.819  1.00  0.00     0.205 C 
HETATM    6  O2  UNL     1      20.401   3.217  52.712  1.00  0.00    -0.348 OA
HETATM    7  C10 UNL     1      21.653   3.477  51.989  1.00  0.00     0.091 C 
HETATM    8  C11 UNL     1      22.025   4.772  52.271  1.00  0.00     0.043 C 
HETATM    9  C12 UNL     1      21.978   5.611  50.961  1.00  0.00    -0.057 C 
HETATM   10  C13 UNL     1      22.759   6.790  50.748  1.00  0.00     0.048 C 
HETATM   11  C14 UNL     1      21.023   5.233  49.972  1.00  0.00     0.035 C 
HETATM   12  H8  UNL     1      21.950   1.898  49.072  1.00  0.00     0.162 HD
ENDROOT
BRANCH   1  13
HETATM   13  N1  UNL     1      23.639   2.373  51.028  1.00  0.00    -0.261 NA
HETATM   14  C5  UNL     1      24.364   1.642  51.807  1.00  0.00     0.038 A 
HETATM   15  C4  UNL     1      25.790   1.883  51.442  1.00  0.00     0.089 A 
HETATM   16  C15 UNL     1      23.964   0.724  52.868  1.00  0.00     0.066 A 
HETATM   17  C3  UNL     1      26.679   1.055  52.318  1.00  0.00     0.019 A 
HETATM   18  C2  UNL     1      26.313   0.222  53.282  1.00  0.00     0.098 A 
HETATM   19  C16 UNL     1      24.888   0.069  53.547  1.00  0.00     0.103 A 
BRANCH  18  20
HETATM   20  O1  UNL     1      27.151  -0.539  54.086  1.00  0.00    -0.353 OA
HETATM   21  C1  UNL     1      28.271  -0.077  54.779  1.00  0.00     0.210 C 
ENDBRANCH  18  20
BRANCH  19  22
HETATM   22  O3  UNL     1      24.396  -0.788  54.544  1.00  0.00    -0.353 OA
HETATM   23  C17 UNL     1      22.990  -1.000  54.561  1.00  0.00     0.210 C 
ENDBRANCH  19  22
ENDBRANCH   1  13
TORSDOF 3
ENDMDL
MODEL 7
REMARK VINA RESULT:      -6.7      4.878      8.086
REMARK  3 active torsions:
REMARK  status: ('A' for Active; 'I' for Inactive)
REMARK    1  A    between atoms: O1_2  and  C2_3 
REMARK    2  A    between atoms: N1_7  and  C6_8 
REMARK    3  A    between atoms: C16_20  and  O3_21 
ROOT
HETATM    1  C6  UNL     1      29.796   6.173  47.924  1.00  0.00     0.263 C 
HETATM    2  N2  UNL     1      30.391   6.066  49.328  1.00  0.00    -0.362 N 
HETATM    3  C7  UNL     1      31.687   6.780  49.160  1.00  0.00     0.028 C 
HETATM    4  C8  UNL     1      32.967   6.401  48.723  1.00  0.00     0.029 C 
HETATM    5  C9  UNL     1      32.855   5.550  47.388  1.00  0.00     0.205 C 
HETATM    6  O2  UNL     1      31.905   6.317  46.463  1.00  0.00    -0.348 OA
HETATM    7  C10 UNL     1      30.802   7.006  47.145  1.00  0.00     0.091 C 
HETATM    8  C11 UNL     1      30.962   8.355  46.919  1.00  0.00     0.043 C 
HETATM    9  C12 UNL     1      31.244   9.067  48.274  1.00  0.00    -0.057 C 
HETATM   10  C13 UNL     1      30.953  10.447  48.518  1.00  0.00     0.048 C 
HETATM   11  C14 UNL     1      31.925   8.322  49.281  1.00  0.00     0.035 C 
HETATM   12  H8  UNL     1      29.759   5.558  49.957  1.00  0.00     0.162 HD
ENDROOT
BRANCH   1  13
HETATM   13  N1  UNL     1      28.493   6.705  47.960  1.00  0.00    -0.261 NA
HETATM   14  C5  UNL     1      27.496   6.005  48.389  1.00  0.00     0.038 A 
HETATM   15  C4  UNL     1      26.278   6.862  48.292  1.00  0.00     0.089 A 
HETATM   16  C15 UNL     1      27.461   4.637  48.892  1.00  0.00     0.066 A 
HETATM   17  C3  UNL     1      25.087   6.096  48.779  1.00  0.00     0.019 A 
HETATM   18  C2  UNL     1      25.058   4.852  49.236  1.00  0.00     0.098 A 
HETATM   19  C16 UNL     1      26.314   4.114  49.283  1.00  0.00     0.103 A 
BRANCH  18  20
HETATM   20  O1  UNL     1      23.944   4.156  49.684  1.00  0.00    -0.353 OA
HETATM   21  C1  UNL     1      23.093   3.371  48.904  1.00  0.00     0.210 C 
ENDBRANCH  18  20
BRANCH  19  22
HETATM   22  O3  UNL     1      26.392   2.792  49.750  1.00  0.00    -0.353 OA
HETATM   23  C17 UNL     1      26.619   2.624  51.144  1.00  0.00     0.210 C 
ENDBRANCH  19  22
ENDBRANCH   1  13
TORSDOF 3
ENDMDL
MODEL 8
REMARK VINA RESULT:      -6.6      2.505      7.682
REMARK  3 active torsions:
REMARK  status: ('A' for Active; 'I' for Inactive)
REMARK    1  A    between atoms: O1_2  and  C2_3 
REMARK    2  A    between atoms: N1_7  and  C6_8 
REMARK    3  A    between atoms: C16_20  and  O3_21 
ROOT
HETATM    1  C6  UNL     1      24.015   4.813  51.090  1.00  0.00     0.263 C 
HETATM    2  N2  UNL     1      24.119   6.026  52.014  1.00  0.00    -0.362 N 
HETATM    3  C7  UNL     1      24.105   7.150  51.037  1.00  0.00     0.028 C 
HETATM    4  C8  UNL     1      25.090   7.802  50.277  1.00  0.00     0.029 C 
HETATM    5  C9  UNL     1      26.029   6.732  49.574  1.00  0.00     0.205 C 
HETATM    6  O2  UNL     1      25.101   5.695  48.934  1.00  0.00    -0.348 OA
HETATM    7  C10 UNL     1      23.879   5.406  49.696  1.00  0.00     0.091 C 
HETATM    8  C11 UNL     1      22.812   5.790  48.915  1.00  0.00     0.043 C 
HETATM    9  C12 UNL     1      22.067   6.964  49.615  1.00  0.00    -0.057 C 
HETATM   10  C13 UNL     1      20.685   7.264  49.400  1.00  0.00     0.048 C 
HETATM   11  C14 UNL     1      22.840   7.842  50.429  1.00  0.00     0.035 C 
HETATM   12  H8  UNL     1      24.166   5.735  52.997  1.00  0.00     0.162 HD
ENDROOT
BRANCH   1  13
HETATM   13  N1  UNL     1      22.959   3.965  51.475  1.00  0.00    -0.261 NA
HETATM   14  C5  UNL     1      23.187   2.840  52.065  1.00  0.00     0.038 A 
HETATM   15  C4  UNL     1      21.864   2.202  52.329  1.00  0.00     0.089 A 
HETATM   16  C15 UNL     1      24.452   2.222  52.447  1.00  0.00     0.066 A 
HETATM   17  C3  UNL     1      22.070   0.887  53.017  1.00  0.00     0.019 A 
HETATM   18  C2  UNL     1      23.220   0.328  53.362  1.00  0.00     0.098 A 
HETATM   19  C16 UNL     1      24.449   1.049  53.052  1.00  0.00     0.103 A 
BRANCH  18  20
HETATM   20  O1  UNL     1      23.394  -0.893  54.000  1.00  0.00    -0.353 OA
HETATM   21  C1  UNL     1      22.755  -1.311  55.168  1.00  0.00     0.210 C 
ENDBRANCH  18  20
BRANCH  19  22
HETATM   22  O3  UNL     1      25.719   0.544  53.375  1.00  0.00    -0.353 OA
HETATM   23  C17 UNL     1      26.446  -0.067  52.317  1.00  0.00     0.210 C 
ENDBRANCH  19  22
ENDBRANCH   1  13
TORSDOF 3
ENDMDL
MODEL 9
REMARK VINA RESULT:      -6.4      4.963      7.717
REMARK  3 active torsions:
REMARK  status: ('A' for Active; 'I' for Inactive)
REMARK    1  A    between atoms: O1_2  and  C2_3 
REMARK    2  A    between atoms: N1_7  and  C6_8 
REMARK    3  A    between atoms: C16_20  and  O3_21 
ROOT
HETATM    1  C6  UNL     1      26.120   7.017  49.074  1.00  0.00     0.263 C 
HETATM    2  N2  UNL     1      26.043   7.216  50.588  1.00  0.00    -0.362 N 
HETATM    3  C7  UNL     1      24.609   6.917  50.857  1.00  0.00     0.028 C 
HETATM    4  C8  UNL     1      23.426   7.673  50.824  1.00  0.00     0.029 C 
HETATM    5  C9  UNL     1      23.365   8.527  49.487  1.00  0.00     0.205 C 
HETATM    6  O2  UNL     1      23.718   7.570  48.344  1.00  0.00    -0.348 OA
HETATM    7  C10 UNL     1      24.726   6.554  48.678  1.00  0.00     0.091 C 
HETATM    8  C11 UNL     1      24.117   5.324  48.566  1.00  0.00     0.043 C 
HETATM    9  C12 UNL     1      24.071   4.651  49.969  1.00  0.00    -0.057 C 
HETATM   10  C13 UNL     1      24.006   3.236  50.166  1.00  0.00     0.048 C 
HETATM   11  C14 UNL     1      23.981   5.506  51.106  1.00  0.00     0.035 C 
HETATM   12  H8  UNL     1      26.957   7.483  50.969  1.00  0.00     0.162 HD
ENDROOT
BRANCH   1  13
HETATM   13  N1  UNL     1      27.155   6.129  48.726  1.00  0.00    -0.261 NA
HETATM   14  C5  UNL     1      28.339   6.561  48.444  1.00  0.00     0.038 A 
HETATM   15  C4  UNL     1      29.180   5.371  48.123  1.00  0.00     0.089 A 
HETATM   16  C15 UNL     1      28.856   7.925  48.416  1.00  0.00     0.066 A 
HETATM   17  C3  UNL     1      30.571   5.816  47.788  1.00  0.00     0.019 A 
HETATM   18  C2  UNL     1      31.038   7.056  47.763  1.00  0.00     0.098 A 
HETATM   19  C16 UNL     1      30.119   8.138  48.096  1.00  0.00     0.103 A 
BRANCH  18  20
HETATM   20  O1  UNL     1      32.331   7.452  47.449  1.00  0.00    -0.353 OA
HETATM   21  C1  UNL     1      33.464   7.272  48.243  1.00  0.00     0.210 C 
ENDBRANCH  18  20
BRANCH  19  22
HETATM   22  O3  UNL     1      30.514   9.485  48.100  1.00  0.00    -0.353 OA
HETATM   23  C17 UNL     1      30.616  10.112  49.372  1.00  0.00     0.210 C 
ENDBRANCH  19  22
ENDBRANCH   1  13
TORSDOF 3
ENDMDL
