MODEL 1
REMARK VINA RESULT:      -8.9      0.000      0.000
REMARK  0 active torsions:
REMARK  status: ('A' for Active; 'I' for Inactive)
ROOT
HETATM    1  O1  UNL     1      22.592   0.177  52.257  1.00  0.00    -0.125 OA
HETATM    2  C1  UNL     1      21.931  -0.699  52.910  1.00  0.00     0.448 A 
HETATM    3  N1  UNL     1      21.175  -0.141  51.848  1.00  0.00     0.111 N 
HETATM    4  C2  UNL     1      20.911   0.680  50.711  1.00  0.00     0.297 C 
HETATM    5  C3  UNL     1      21.133   2.135  50.833  1.00  0.00     0.147 C 
HETATM    6  N2  UNL     1      22.475   2.612  50.963  1.00  0.00    -0.410 N 
HETATM    7  C4  UNL     1      22.989   3.116  49.696  1.00  0.00     0.122 C 
HETATM    8  C5  UNL     1      24.486   3.202  49.685  1.00  0.00     0.074 C 
HETATM    9  C6  UNL     1      25.020   3.172  51.101  1.00  0.00     0.018 C 
HETATM   10  N3  UNL     1      26.057   2.406  51.129  1.00  0.00    -0.237 NA
HETATM   11  C7  UNL     1      26.878   2.080  52.225  1.00  0.00     0.163 A 
HETATM   12  N4  UNL     1      28.130   2.502  52.547  1.00  0.00    -0.222 NA
HETATM   13  C8  UNL     1      28.764   2.065  53.648  1.00  0.00     0.236 A 
HETATM   14  N5  UNL     1      28.254   1.188  54.535  1.00  0.00    -0.241 NA
HETATM   15  C9  UNL     1      27.015   0.729  54.277  1.00  0.00     0.072 A 
HETATM   16  C10 UNL     1      26.378  -0.167  55.109  1.00  0.00     0.035 A 
HETATM   17  C11 UNL     1      25.116  -0.684  54.929  1.00  0.00     0.031 A 
HETATM   18  C12 UNL     1      24.473  -0.234  53.803  1.00  0.00     0.033 A 
HETATM   19  C13 UNL     1      25.091   0.657  52.962  1.00  0.00     0.047 A 
HETATM   20  C14 UNL     1      26.339   1.166  53.144  1.00  0.00     0.043 A 
HETATM   21  N6  UNL     1      23.148  -0.699  53.587  1.00  0.00    -0.325 N 
HETATM   22  C15 UNL     1      24.158   4.042  51.939  1.00  0.00     0.074 C 
HETATM   23  C16 UNL     1      22.808   3.406  52.069  1.00  0.00     0.122 C 
HETATM   24  H1  UNL     1      20.388  -0.776  52.223  1.00  0.00     0.324 HD
HETATM   25  H14 UNL     1      22.728  -1.456  54.196  1.00  0.00     0.164 HD
ENDROOT
TORSDOF 0
ENDMDL
MODEL 2
REMARK VINA RESULT:      -8.9      1.800      3.837
REMARK  0 active torsions:
REMARK  status: ('A' for Active; 'I' for Inactive)
ROOT
HETATM    1  O1  UNL     1      22.204   1.479  50.428  1.00  0.00    -0.125 OA
HETATM    2  C1  UNL     1      21.005   1.471  49.986  1.00  0.00     0.448 A 
HETATM    3  N1  UNL     1      21.871   2.241  49.169  1.00  0.00     0.111 N 
HETATM    4  C2  UNL     1      23.102   2.818  48.734  1.00  0.00     0.297 C 
HETATM    5  C3  UNL     1      23.863   3.646  49.691  1.00  0.00     0.147 C 
HETATM    6  N2  UNL     1      24.471   3.004  50.816  1.00  0.00    -0.410 N 
HETATM    7  C4  UNL     1      25.896   2.782  50.599  1.00  0.00     0.122 C 
HETATM    8  C5  UNL     1      26.455   1.745  51.526  1.00  0.00     0.074 C 
HETATM    9  C6  UNL     1      25.524   1.540  52.702  1.00  0.00     0.018 C 
HETATM   10  N3  UNL     1      25.442   0.277  52.941  1.00  0.00    -0.237 NA
HETATM   11  C7  UNL     1      24.696  -0.382  53.937  1.00  0.00     0.163 A 
HETATM   12  N4  UNL     1      25.096  -0.967  55.098  1.00  0.00    -0.222 NA
HETATM   13  C8  UNL     1      24.224  -1.562  55.929  1.00  0.00     0.236 A 
HETATM   14  N5  UNL     1      22.896  -1.647  55.721  1.00  0.00    -0.241 NA
HETATM   15  C9  UNL     1      22.431  -1.087  54.589  1.00  0.00     0.072 A 
HETATM   16  C10 UNL     1      21.091  -1.100  54.261  1.00  0.00     0.035 A 
HETATM   17  C11 UNL     1      20.527  -0.551  53.133  1.00  0.00     0.031 A 
HETATM   18  C12 UNL     1      21.422   0.056  52.289  1.00  0.00     0.033 A 
HETATM   19  C13 UNL     1      22.760   0.078  52.597  1.00  0.00     0.047 A 
HETATM   20  C14 UNL     1      23.314  -0.466  53.713  1.00  0.00     0.043 A 
HETATM   21  N6  UNL     1      20.892   0.681  51.127  1.00  0.00    -0.325 N 
HETATM   22  C15 UNL     1      25.052   2.872  53.155  1.00  0.00     0.074 C 
HETATM   23  C16 UNL     1      24.154   3.452  52.105  1.00  0.00     0.122 C 
HETATM   24  H1  UNL     1      20.975   2.446  48.605  1.00  0.00     0.324 HD
HETATM   25  H14 UNL     1      19.874   0.570  50.864  1.00  0.00     0.164 HD
ENDROOT
TORSDOF 0
ENDMDL
MODEL 3
REMARK VINA RESULT:      -8.5      1.484      2.008
REMARK  0 active torsions:
REMARK  status: ('A' for Active; 'I' for Inactive)
ROOT
HETATM    1  O1  UNL     1      20.775   0.509  52.165  1.00  0.00    -0.125 OA
HETATM    2  C1  UNL     1      19.768  -0.103  52.657  1.00  0.00     0.448 A 
HETATM    3  N1  UNL     1      19.407   0.734  51.571  1.00  0.00     0.111 N 
HETATM    4  C2  UNL     1      19.604   1.647  50.492  1.00  0.00     0.297 C 
HETATM    5  C3  UNL     1      20.297   2.921  50.770  1.00  0.00     0.147 C 
HETATM    6  N2  UNL     1      21.691   2.882  51.095  1.00  0.00    -0.410 N 
HETATM    7  C4  UNL     1      22.517   3.228  49.945  1.00  0.00     0.122 C 
HETATM    8  C5  UNL     1      23.937   2.775  50.112  1.00  0.00     0.074 C 
HETATM    9  C6  UNL     1      24.227   2.493  51.571  1.00  0.00     0.018 C 
HETATM   10  N3  UNL     1      24.919   1.409  51.645  1.00  0.00    -0.237 NA
HETATM   11  C7  UNL     1      25.416   0.762  52.793  1.00  0.00     0.163 A 
HETATM   12  N4  UNL     1      26.679   0.696  53.292  1.00  0.00    -0.222 NA
HETATM   13  C8  UNL     1      26.964   0.013  54.413  1.00  0.00     0.236 A 
HETATM   14  N5  UNL     1      26.064  -0.665  55.153  1.00  0.00    -0.241 NA
HETATM   15  C9  UNL     1      24.791  -0.641  54.715  1.00  0.00     0.072 A 
HETATM   16  C10 UNL     1      23.774  -1.289  55.384  1.00  0.00     0.035 A 
HETATM   17  C11 UNL     1      22.449  -1.314  55.017  1.00  0.00     0.031 A 
HETATM   18  C12 UNL     1      22.164  -0.615  53.871  1.00  0.00     0.033 A 
HETATM   19  C13 UNL     1      23.163   0.036  53.190  1.00  0.00     0.047 A 
HETATM   20  C14 UNL     1      24.472   0.059  53.557  1.00  0.00     0.043 A 
HETATM   21  N6  UNL     1      20.803  -0.567  53.464  1.00  0.00    -0.325 N 
HETATM   22  C15 UNL     1      23.613   3.574  52.381  1.00  0.00     0.074 C 
HETATM   23  C16 UNL     1      22.122   3.455  52.299  1.00  0.00     0.122 C 
HETATM   24  H1  UNL     1      18.404   0.405  51.795  1.00  0.00     0.324 HD
HETATM   25  H14 UNL     1      20.068  -1.152  53.950  1.00  0.00     0.164 HD
ENDROOT
TORSDOF 0
ENDMDL
MODEL 4
REMARK VINA RESULT:      -8.2      1.970      4.669
REMARK  0 active torsions:
REMARK  status: ('A' for Active; 'I' for Inactive)
ROOT
HETATM    1  O1  UNL     1      25.507   3.039  51.201  1.00  0.00    -0.125 OA
HETATM    2  C1  UNL     1      26.766   2.827  51.180  1.00  0.00     0.448 A 
HETATM    3  N1  UNL     1      26.406   3.982  50.442  1.00  0.00     0.111 N 
HETATM    4  C2  UNL     1      25.544   4.983  49.902  1.00  0.00     0.297 C 
HETATM    5  C3  UNL     1      24.392   4.548  49.086  1.00  0.00     0.147 C 
HETATM    6  N2  UNL     1      23.318   3.860  49.734  1.00  0.00    -0.410 N 
HETATM    7  C4  UNL     1      22.194   4.750  49.996  1.00  0.00     0.122 C 
HETATM    8  C5  UNL     1      21.267   4.201  51.039  1.00  0.00     0.074 C 
HETATM    9  C6  UNL     1      21.495   2.713  51.208  1.00  0.00     0.018 C 
HETATM   10  N3  UNL     1      21.471   2.438  52.467  1.00  0.00    -0.237 NA
HETATM   11  C7  UNL     1      21.636   1.190  53.096  1.00  0.00     0.163 A 
HETATM   12  N4  UNL     1      20.724   0.368  53.681  1.00  0.00    -0.222 NA
HETATM   13  C8  UNL     1      21.078  -0.798  54.245  1.00  0.00     0.236 A 
HETATM   14  N5  UNL     1      22.336  -1.279  54.296  1.00  0.00    -0.241 NA
HETATM   15  C9  UNL     1      23.292  -0.515  53.733  1.00  0.00     0.072 A 
HETATM   16  C10 UNL     1      24.617  -0.896  53.714  1.00  0.00     0.035 A 
HETATM   17  C11 UNL     1      25.657  -0.185  53.160  1.00  0.00     0.031 A 
HETATM   18  C12 UNL     1      25.288   1.005  52.586  1.00  0.00     0.033 A 
HETATM   19  C13 UNL     1      23.974   1.402  52.596  1.00  0.00     0.047 A 
HETATM   20  C14 UNL     1      22.949   0.697  53.145  1.00  0.00     0.043 A 
HETATM   21  N6  UNL     1      26.313   1.764  51.957  1.00  0.00    -0.325 N 
HETATM   22  C15 UNL     1      21.655   2.115  49.860  1.00  0.00     0.074 C 
HETATM   23  C16 UNL     1      22.944   2.593  49.266  1.00  0.00     0.122 C 
HETATM   24  H1  UNL     1      27.461   4.032  50.218  1.00  0.00     0.324 HD
HETATM   25  H14 UNL     1      27.329   1.485  52.043  1.00  0.00     0.164 HD
ENDROOT
TORSDOF 0
ENDMDL
MODEL 5
REMARK VINA RESULT:      -8.1      1.750      4.105
REMARK  0 active torsions:
REMARK  status: ('A' for Active; 'I' for Inactive)
ROOT
HETATM    1  O1  UNL     1      22.227   3.094  51.883  1.00  0.00    -0.125 OA
HETATM    2  C1  UNL     1      22.305   4.109  51.112  1.00  0.00     0.448 A 
HETATM    3  N1  UNL     1      20.989   3.907  51.598  1.00  0.00     0.111 N 
HETATM    4  C2  UNL     1      19.944   3.291  52.350  1.00  0.00     0.297 C 
HETATM    5  C3  UNL     1      19.706   1.846  52.162  1.00  0.00     0.147 C 
HETATM    6  N2  UNL     1      20.694   0.925  52.633  1.00  0.00    -0.410 N 
HETATM    7  C4  UNL     1      20.315   0.341  53.913  1.00  0.00     0.122 C 
HETATM    8  C5  UNL     1      21.486  -0.260  54.631  1.00  0.00     0.074 C 
HETATM    9  C6  UNL     1      22.627  -0.493  53.664  1.00  0.00     0.018 C 
HETATM   10  N3  UNL     1      23.725  -0.140  54.238  1.00  0.00    -0.237 NA
HETATM   11  C7  UNL     1      25.036  -0.178  53.724  1.00  0.00     0.163 A 
HETATM   12  N4  UNL     1      26.065  -1.027  53.992  1.00  0.00    -0.222 NA
HETATM   13  C8  UNL     1      27.263  -0.898  53.400  1.00  0.00     0.236 A 
HETATM   14  N5  UNL     1      27.579   0.054  52.499  1.00  0.00    -0.241 NA
HETATM   15  C9  UNL     1      26.604   0.929  52.186  1.00  0.00     0.072 A 
HETATM   16  C10 UNL     1      26.798   1.945  51.275  1.00  0.00     0.035 A 
HETATM   17  C11 UNL     1      25.863   2.879  50.891  1.00  0.00     0.031 A 
HETATM   18  C12 UNL     1      24.641   2.741  51.500  1.00  0.00     0.033 A 
HETATM   19  C13 UNL     1      24.429   1.736  52.411  1.00  0.00     0.047 A 
HETATM   20  C14 UNL     1      25.357   0.815  52.787  1.00  0.00     0.043 A 
HETATM   21  N6  UNL     1      23.620   3.650  51.110  1.00  0.00    -0.325 N 
HETATM   22  C15 UNL     1      22.063  -1.051  52.411  1.00  0.00     0.074 C 
HETATM   23  C16 UNL     1      21.249   0.007  51.730  1.00  0.00     0.122 C 
HETATM   24  H1  UNL     1      20.748   4.756  50.976  1.00  0.00     0.324 HD
HETATM   25  H14 UNL     1      23.832   4.471  50.479  1.00  0.00     0.164 HD
ENDROOT
TORSDOF 0
ENDMDL
MODEL 6
REMARK VINA RESULT:      -7.9      2.617      4.158
REMARK  0 active torsions:
REMARK  status: ('A' for Active; 'I' for Inactive)
ROOT
HETATM    1  O1  UNL     1      18.548  -0.575  52.467  1.00  0.00    -0.125 OA
HETATM    2  C1  UNL     1      18.001  -1.329  53.342  1.00  0.00     0.448 A 
HETATM    3  N1  UNL     1      17.071  -0.870  52.375  1.00  0.00     0.111 N 
HETATM    4  C2  UNL     1      16.616  -0.183  51.210  1.00  0.00     0.297 C 
HETATM    5  C3  UNL     1      16.894   1.262  51.096  1.00  0.00     0.147 C 
HETATM    6  N2  UNL     1      18.249   1.683  50.909  1.00  0.00    -0.410 N 
HETATM    7  C4  UNL     1      18.524   2.000  49.514  1.00  0.00     0.122 C 
HETATM    8  C5  UNL     1      19.993   2.008  49.213  1.00  0.00     0.074 C 
HETATM    9  C6  UNL     1      20.787   2.127  50.496  1.00  0.00     0.018 C 
HETATM   10  N3  UNL     1      21.790   1.319  50.430  1.00  0.00    -0.237 NA
HETATM   11  C7  UNL     1      22.796   1.090  51.387  1.00  0.00     0.163 A 
HETATM   12  N4  UNL     1      24.098   1.485  51.412  1.00  0.00    -0.222 NA
HETATM   13  C8  UNL     1      24.919   1.157  52.423  1.00  0.00     0.236 A 
HETATM   14  N5  UNL     1      24.566   0.423  53.496  1.00  0.00    -0.241 NA
HETATM   15  C9  UNL     1      23.288  -0.001  53.537  1.00  0.00     0.072 A 
HETATM   16  C10 UNL     1      22.799  -0.754  54.583  1.00  0.00     0.035 A 
HETATM   17  C11 UNL     1      21.513  -1.225  54.712  1.00  0.00     0.031 A 
HETATM   18  C12 UNL     1      20.679  -0.886  53.676  1.00  0.00     0.033 A 
HETATM   19  C13 UNL     1      21.148  -0.138  52.625  1.00  0.00     0.047 A 
HETATM   20  C14 UNL     1      22.420   0.326  52.502  1.00  0.00     0.043 A 
HETATM   21  N6  UNL     1      19.325  -1.307  53.774  1.00  0.00    -0.325 N 
HETATM   22  C15 UNL     1      20.125   3.136  51.358  1.00  0.00     0.074 C 
HETATM   23  C16 UNL     1      18.808   2.591  51.820  1.00  0.00     0.122 C 
HETATM   24  H1  UNL     1      16.353  -1.413  52.970  1.00  0.00     0.324 HD
HETATM   25  H14 UNL     1      19.010  -1.960  54.544  1.00  0.00     0.164 HD
ENDROOT
TORSDOF 0
ENDMDL
MODEL 7
REMARK VINA RESULT:      -7.9      3.045      4.767
REMARK  0 active torsions:
REMARK  status: ('A' for Active; 'I' for Inactive)
ROOT
HETATM    1  O1  UNL     1      19.556   1.578  49.887  1.00  0.00    -0.125 OA
HETATM    2  C1  UNL     1      18.322   1.397  49.610  1.00  0.00     0.448 A 
HETATM    3  N1  UNL     1      18.945   2.300  48.712  1.00  0.00     0.111 N 
HETATM    4  C2  UNL     1      20.006   3.062  48.137  1.00  0.00     0.297 C 
HETATM    5  C3  UNL     1      20.761   3.981  49.011  1.00  0.00     0.147 C 
HETATM    6  N2  UNL     1      21.606   3.421  50.021  1.00  0.00    -0.410 N 
HETATM    7  C4  UNL     1      23.004   3.419  49.608  1.00  0.00     0.122 C 
HETATM    8  C5  UNL     1      23.832   2.464  50.415  1.00  0.00     0.074 C 
HETATM    9  C6  UNL     1      23.112   2.104  51.698  1.00  0.00     0.018 C 
HETATM   10  N3  UNL     1      23.250   0.839  51.901  1.00  0.00    -0.237 NA
HETATM   11  C7  UNL     1      22.753   0.062  52.964  1.00  0.00     0.163 A 
HETATM   12  N4  UNL     1      23.391  -0.474  54.040  1.00  0.00    -0.222 NA
HETATM   13  C8  UNL     1      22.739  -1.205  54.959  1.00  0.00     0.236 A 
HETATM   14  N5  UNL     1      21.421  -1.486  54.927  1.00  0.00    -0.241 NA
HETATM   15  C9  UNL     1      20.728  -0.985  53.887  1.00  0.00     0.072 A 
HETATM   16  C10 UNL     1      19.372  -1.195  53.742  1.00  0.00     0.035 A 
HETATM   17  C11 UNL     1      18.584  -0.721  52.720  1.00  0.00     0.031 A 
HETATM   18  C12 UNL     1      19.256   0.026  51.785  1.00  0.00     0.033 A 
HETATM   19  C13 UNL     1      20.605   0.245  51.911  1.00  0.00     0.047 A 
HETATM   20  C14 UNL     1      21.381  -0.226  52.924  1.00  0.00     0.043 A 
HETATM   21  N6  UNL     1      18.485   0.582  50.727  1.00  0.00    -0.325 N 
HETATM   22  C15 UNL     1      22.516   3.343  52.256  1.00  0.00     0.074 C 
HETATM   23  C16 UNL     1      21.407   3.797  51.356  1.00  0.00     0.122 C 
HETATM   24  H1  UNL     1      17.959   2.376  48.280  1.00  0.00     0.324 HD
HETATM   25  H14 UNL     1      17.467   0.322  50.599  1.00  0.00     0.164 HD
ENDROOT
TORSDOF 0
ENDMDL
MODEL 8
REMARK VINA RESULT:      -7.8      1.683      3.323
REMARK  0 active torsions:
REMARK  status: ('A' for Active; 'I' for Inactive)
ROOT
HETATM    1  O1  UNL     1      22.772  -0.555  53.733  1.00  0.00    -0.125 OA
HETATM    2  C1  UNL     1      23.282  -1.129  54.754  1.00  0.00     0.448 A 
HETATM    3  N1  UNL     1      21.918  -1.472  54.574  1.00  0.00     0.111 N 
HETATM    4  C2  UNL     1      20.637  -1.486  53.945  1.00  0.00     0.297 C 
HETATM    5  C3  UNL     1      19.968  -0.194  53.692  1.00  0.00     0.147 C 
HETATM    6  N2  UNL     1      20.528   0.682  52.708  1.00  0.00    -0.410 N 
HETATM    7  C4  UNL     1      19.807   0.597  51.444  1.00  0.00     0.122 C 
HETATM    8  C5  UNL     1      20.608   1.138  50.298  1.00  0.00     0.074 C 
HETATM    9  C6  UNL     1      21.731   2.013  50.814  1.00  0.00     0.018 C 
HETATM   10  N3  UNL     1      22.795   1.749  50.136  1.00  0.00    -0.237 NA
HETATM   11  C7  UNL     1      24.078   2.315  50.262  1.00  0.00     0.163 A 
HETATM   12  N4  UNL     1      24.727   3.217  49.478  1.00  0.00    -0.222 NA
HETATM   13  C8  UNL     1      25.971   3.638  49.760  1.00  0.00     0.236 A 
HETATM   14  N5  UNL     1      26.700   3.231  50.818  1.00  0.00    -0.241 NA
HETATM   15  C9  UNL     1      26.118   2.337  51.638  1.00  0.00     0.072 A 
HETATM   16  C10 UNL     1      26.755   1.847  52.759  1.00  0.00     0.035 A 
HETATM   17  C11 UNL     1      26.238   0.939  53.654  1.00  0.00     0.031 A 
HETATM   18  C12 UNL     1      24.967   0.513  53.359  1.00  0.00     0.033 A 
HETATM   19  C13 UNL     1      24.316   0.989  52.248  1.00  0.00     0.047 A 
HETATM   20  C14 UNL     1      24.831   1.887  51.366  1.00  0.00     0.043 A 
HETATM   21  N6  UNL     1      24.362  -0.392  54.273  1.00  0.00    -0.325 N 
HETATM   22  C15 UNL     1      21.193   2.860  51.906  1.00  0.00     0.074 C 
HETATM   23  C16 UNL     1      20.870   1.989  53.082  1.00  0.00     0.122 C 
HETATM   24  H1  UNL     1      22.056  -2.037  55.483  1.00  0.00     0.324 HD
HETATM   25  H14 UNL     1      24.915  -0.816  55.069  1.00  0.00     0.164 HD
ENDROOT
TORSDOF 0
ENDMDL
MODEL 9
REMARK VINA RESULT:      -7.7      1.986      4.305
REMARK  0 active torsions:
REMARK  status: ('A' for Active; 'I' for Inactive)
ROOT
HETATM    1  O1  UNL     1      23.029   3.950  50.074  1.00  0.00    -0.125 OA
HETATM    2  C1  UNL     1      23.733   4.694  49.311  1.00  0.00     0.448 A 
HETATM    3  N1  UNL     1      22.349   4.985  49.213  1.00  0.00     0.111 N 
HETATM    4  C2  UNL     1      20.958   4.877  49.511  1.00  0.00     0.297 C 
HETATM    5  C3  UNL     1      20.316   3.552  49.386  1.00  0.00     0.147 C 
HETATM    6  N2  UNL     1      20.676   2.530  50.320  1.00  0.00    -0.410 N 
HETATM    7  C4  UNL     1      19.677   2.391  51.373  1.00  0.00     0.122 C 
HETATM    8  C5  UNL     1      20.215   1.674  52.574  1.00  0.00     0.074 C 
HETATM    9  C6  UNL     1      21.472   0.913  52.208  1.00  0.00     0.018 C 
HETATM   10  N3  UNL     1      22.333   1.072  53.154  1.00  0.00    -0.237 NA
HETATM   11  C7  UNL     1      23.638   0.552  53.248  1.00  0.00     0.163 A 
HETATM   12  N4  UNL     1      24.132  -0.462  54.009  1.00  0.00    -0.222 NA
HETATM   13  C8  UNL     1      25.428  -0.813  53.968  1.00  0.00     0.236 A 
HETATM   14  N5  UNL     1      26.362  -0.225  53.194  1.00  0.00    -0.241 NA
HETATM   15  C9  UNL     1      25.940   0.788  52.413  1.00  0.00     0.072 A 
HETATM   16  C10 UNL     1      26.795   1.468  51.572  1.00  0.00     0.035 A 
HETATM   17  C11 UNL     1      26.455   2.507  50.737  1.00  0.00     0.031 A 
HETATM   18  C12 UNL     1      25.129   2.861  50.784  1.00  0.00     0.033 A 
HETATM   19  C13 UNL     1      24.263   2.197  51.616  1.00  0.00     0.047 A 
HETATM   20  C14 UNL     1      24.604   1.169  52.440  1.00  0.00     0.043 A 
HETATM   21  N6  UNL     1      24.708   3.900  49.910  1.00  0.00    -0.325 N 
HETATM   22  C15 UNL     1      21.248   0.257  50.897  1.00  0.00     0.074 C 
HETATM   23  C16 UNL     1      21.164   1.309  49.834  1.00  0.00     0.122 C 
HETATM   24  H1  UNL     1      22.665   5.697  48.466  1.00  0.00     0.324 HD
HETATM   25  H14 UNL     1      25.408   4.459  49.349  1.00  0.00     0.164 HD
ENDROOT
TORSDOF 0
ENDMDL
