MODEL 1
REMARK VINA RESULT:      -8.9      0.000      0.000
REMARK  3 active torsions:
REMARK  status: ('A' for Active; 'I' for Inactive)
REMARK    1  A    between atoms: C3_3  and  N1_4 
REMARK    2  A    between atoms: N1_4  and  C4_5 
REMARK    3  A    between atoms: C7_9  and  C8_10 
ROOT
HETATM    1  N1  UNL     1      25.392  -0.634  54.108  1.00  0.00    -0.209 N 
HETATM    2  H4  UNL     1      25.758  -0.857  55.072  1.00  0.00     0.179 HD
ENDROOT
BRANCH   1   3
HETATM    3  C3  UNL     1      26.330  -0.352  53.009  1.00  0.00     0.174 C 
HETATM    4  C2  UNL     1      26.834  -1.645  52.562  1.00  0.00     0.003 C 
HETATM    5  C1  UNL     1      27.783  -2.574  52.591  1.00  0.00    -0.003 C 
HETATM    6  C17 UNL     1      29.076  -2.561  53.374  1.00  0.00     0.197 C 
HETATM    7  O1  UNL     1      29.764  -1.454  52.887  1.00  0.00    -0.368 OA
HETATM    8  C16 UNL     1      29.795  -0.397  53.742  1.00  0.00     0.299 C 
HETATM    9  N6  UNL     1      28.706   0.514  53.730  1.00  0.00    -0.319 N 
HETATM   10  C13 UNL     1      27.390   0.583  53.463  1.00  0.00     0.059 A 
HETATM   11  C15 UNL     1      29.070   1.775  54.119  1.00  0.00     0.211 A 
HETATM   12  C14 UNL     1      26.984   1.893  53.699  1.00  0.00     0.145 A 
HETATM   13  N5  UNL     1      28.056   2.625  54.111  1.00  0.00    -0.254 NA
ENDBRANCH   1   3
BRANCH   1  14
HETATM   14  C4  UNL     1      23.954  -0.657  54.151  1.00  0.00     0.723 A 
HETATM   15  N2  UNL     1      23.092  -1.129  55.080  1.00  0.00    -0.075 NA
HETATM   16  C5  UNL     1      21.778  -1.021  54.818  1.00  0.00     0.139 A 
HETATM   17  C6  UNL     1      21.342  -0.460  53.660  1.00  0.00     0.053 A 
HETATM   18  C7  UNL     1      22.215   0.025  52.706  1.00  0.00     0.089 A 
HETATM   19  N4  UNL     1      23.513  -0.103  53.011  1.00  0.00    -0.062 NA
BRANCH  18  20
HETATM   20  C8  UNL     1      21.733   0.630  51.455  1.00  0.00     0.011 A 
HETATM   21  C9  UNL     1      20.458   0.469  50.973  1.00  0.00     0.017 A 
HETATM   22  C10 UNL     1      20.213   1.124  49.785  1.00  0.00     0.020 A 
HETATM   23  C11 UNL     1      21.144   1.877  49.120  1.00  0.00     0.116 A 
HETATM   24  N3  UNL     1      22.392   2.014  49.622  1.00  0.00    -0.272 NA
HETATM   25  C12 UNL     1      22.695   1.391  50.792  1.00  0.00     0.130 A 
ENDBRANCH  18  20
ENDBRANCH   1  14
TORSDOF 3
ENDMDL
MODEL 2
REMARK VINA RESULT:      -8.5      3.801      6.284
REMARK  3 active torsions:
REMARK  status: ('A' for Active; 'I' for Inactive)
REMARK    1  A    between atoms: C3_3  and  N1_4 
REMARK    2  A    between atoms: N1_4  and  C4_5 
REMARK    3  A    between atoms: C7_9  and  C8_10 
ROOT
HETATM    1  N1  UNL     1      26.707   3.140  51.631  1.00  0.00    -0.209 N 
HETATM    2  H4  UNL     1      27.236   3.935  52.079  1.00  0.00     0.179 HD
ENDROOT
BRANCH   1   3
HETATM    3  C3  UNL     1      25.884   3.383  50.435  1.00  0.00     0.174 C 
HETATM    4  C2  UNL     1      26.810   3.763  49.374  1.00  0.00     0.003 C 
HETATM    5  C1  UNL     1      27.402   4.715  48.661  1.00  0.00    -0.003 C 
HETATM    6  C17 UNL     1      27.234   6.212  48.783  1.00  0.00     0.197 C 
HETATM    7  O1  UNL     1      25.889   6.432  48.506  1.00  0.00    -0.368 OA
HETATM    8  C16 UNL     1      25.139   6.743  49.596  1.00  0.00     0.299 C 
HETATM    9  N6  UNL     1      24.606   5.680  50.374  1.00  0.00    -0.319 N 
HETATM   10  C13 UNL     1      24.845   4.403  50.721  1.00  0.00     0.059 A 
HETATM   11  C15 UNL     1      23.448   6.027  51.016  1.00  0.00     0.211 A 
HETATM   12  C14 UNL     1      23.819   4.003  51.572  1.00  0.00     0.145 A 
HETATM   13  N5  UNL     1      22.952   5.039  51.743  1.00  0.00    -0.254 NA
ENDBRANCH   1   3
BRANCH   1  14
HETATM   14  C4  UNL     1      26.950   1.944  52.393  1.00  0.00     0.723 A 
HETATM   15  N2  UNL     1      28.099   1.324  52.746  1.00  0.00    -0.075 NA
HETATM   16  C5  UNL     1      27.997   0.188  53.458  1.00  0.00     0.139 A 
HETATM   17  C6  UNL     1      26.781  -0.311  53.804  1.00  0.00     0.053 A 
HETATM   18  C7  UNL     1      25.603   0.316  53.448  1.00  0.00     0.089 A 
HETATM   19  N4  UNL     1      25.755   1.443  52.741  1.00  0.00    -0.062 NA
BRANCH  18  20
HETATM   20  C8  UNL     1      24.293  -0.233  53.827  1.00  0.00     0.011 A 
HETATM   21  C9  UNL     1      23.150  -0.054  53.089  1.00  0.00     0.017 A 
HETATM   22  C10 UNL     1      22.029  -0.654  53.622  1.00  0.00     0.020 A 
HETATM   23  C11 UNL     1      22.027  -1.374  54.788  1.00  0.00     0.116 A 
HETATM   24  N3  UNL     1      23.171  -1.530  55.492  1.00  0.00    -0.272 NA
HETATM   25  C12 UNL     1      24.311  -0.960  55.017  1.00  0.00     0.130 A 
ENDBRANCH  18  20
ENDBRANCH   1  14
TORSDOF 3
ENDMDL
MODEL 3
REMARK VINA RESULT:      -8.4      1.779      2.093
REMARK  3 active torsions:
REMARK  status: ('A' for Active; 'I' for Inactive)
REMARK    1  A    between atoms: C3_3  and  N1_4 
REMARK    2  A    between atoms: N1_4  and  C4_5 
REMARK    3  A    between atoms: C7_9  and  C8_10 
ROOT
HETATM    1  N1  UNL     1      25.279  -0.359  53.690  1.00  0.00    -0.209 N 
HETATM    2  H4  UNL     1      25.486  -0.709  54.663  1.00  0.00     0.179 HD
ENDROOT
BRANCH   1   3
HETATM    3  C3  UNL     1      26.374  -0.173  52.724  1.00  0.00     0.174 C 
HETATM    4  C2  UNL     1      26.780  -1.509  52.307  1.00  0.00     0.003 C 
HETATM    5  C1  UNL     1      27.607  -2.542  52.426  1.00  0.00    -0.003 C 
HETATM    6  C17 UNL     1      28.783  -2.690  53.364  1.00  0.00     0.197 C 
HETATM    7  O1  UNL     1      29.648  -1.664  52.997  1.00  0.00    -0.368 OA
HETATM    8  C16 UNL     1      29.691  -0.630  53.879  1.00  0.00     0.299 C 
HETATM    9  N6  UNL     1      28.722   0.402  53.757  1.00  0.00    -0.319 N 
HETATM   10  C13 UNL     1      27.467   0.626  53.331  1.00  0.00     0.059 A 
HETATM   11  C15 UNL     1      29.175   1.606  54.224  1.00  0.00     0.211 A 
HETATM   12  C14 UNL     1      27.185   1.972  53.552  1.00  0.00     0.145 A 
HETATM   13  N5  UNL     1      28.273   2.568  54.114  1.00  0.00    -0.254 NA
ENDBRANCH   1   3
BRANCH   1  14
HETATM   14  C4  UNL     1      23.862  -0.131  53.580  1.00  0.00     0.723 A 
HETATM   15  N2  UNL     1      22.803  -0.928  53.845  1.00  0.00    -0.075 NA
HETATM   16  C5  UNL     1      21.576  -0.425  53.616  1.00  0.00     0.139 A 
HETATM   17  C6  UNL     1      21.418   0.836  53.137  1.00  0.00     0.053 A 
HETATM   18  C7  UNL     1      22.495   1.657  52.864  1.00  0.00     0.089 A 
HETATM   19  N4  UNL     1      23.695   1.114  53.108  1.00  0.00    -0.062 NA
BRANCH  18  20
HETATM   20  C8  UNL     1      22.313   3.021  52.345  1.00  0.00     0.011 A 
HETATM   21  C9  UNL     1      23.287   3.987  52.384  1.00  0.00     0.017 A 
HETATM   22  C10 UNL     1      22.909   5.197  51.841  1.00  0.00     0.020 A 
HETATM   23  C11 UNL     1      21.673   5.442  51.303  1.00  0.00     0.116 A 
HETATM   24  N3  UNL     1      20.736   4.468  51.283  1.00  0.00    -0.272 NA
HETATM   25  C12 UNL     1      21.049   3.251  51.804  1.00  0.00     0.130 A 
ENDBRANCH  18  20
ENDBRANCH   1  14
TORSDOF 3
ENDMDL
MODEL 4
REMARK VINA RESULT:      -8.4      4.859      7.426
REMARK  3 active torsions:
REMARK  status: ('A' for Active; 'I' for Inactive)
REMARK    1  A    between atoms: C3_3  and  N1_4 
REMARK    2  A    between atoms: N1_4  and  C4_5 
REMARK    3  A    between atoms: C7_9  and  C8_10 
ROOT
HETATM    1  N1  UNL     1      26.453   3.961  50.671  1.00  0.00    -0.209 N 
HETATM    2  H4  UNL     1      27.303   4.205  51.246  1.00  0.00     0.179 HD
ENDROOT
BRANCH   1   3
HETATM    3  C3  UNL     1      26.137   4.732  49.458  1.00  0.00     0.174 C 
HETATM    4  C2  UNL     1      27.348   4.730  48.646  1.00  0.00     0.003 C 
HETATM    5  C1  UNL     1      28.460   5.339  48.251  1.00  0.00    -0.003 C 
HETATM    6  C17 UNL     1      28.985   6.690  48.680  1.00  0.00     0.197 C 
HETATM    7  O1  UNL     1      28.000   7.587  48.276  1.00  0.00    -0.368 OA
HETATM    8  C16 UNL     1      27.254   8.090  49.295  1.00  0.00     0.299 C 
HETATM    9  N6  UNL     1      26.126   7.347  49.736  1.00  0.00    -0.319 N 
HETATM   10  C13 UNL     1      25.657   6.089  49.819  1.00  0.00     0.059 A 
HETATM   11  C15 UNL     1      25.149   8.142  50.274  1.00  0.00     0.211 A 
HETATM   12  C14 UNL     1      24.398   6.151  50.410  1.00  0.00     0.145 A 
HETATM   13  N5  UNL     1      24.099   7.451  50.687  1.00  0.00    -0.254 NA
ENDBRANCH   1   3
BRANCH   1  14
HETATM   14  C4  UNL     1      25.779   2.857  51.301  1.00  0.00     0.723 A 
HETATM   15  N2  UNL     1      24.469   2.630  51.548  1.00  0.00    -0.075 NA
HETATM   16  C5  UNL     1      24.147   1.490  52.186  1.00  0.00     0.139 A 
HETATM   17  C6  UNL     1      25.109   0.608  52.564  1.00  0.00     0.053 A 
HETATM   18  C7  UNL     1      26.449   0.831  52.314  1.00  0.00     0.089 A 
HETATM   19  N4  UNL     1      26.721   1.978  51.677  1.00  0.00    -0.062 NA
BRANCH  18  20
HETATM   20  C8  UNL     1      27.481  -0.130  52.728  1.00  0.00     0.011 A 
HETATM   21  C9  UNL     1      28.735   0.233  53.150  1.00  0.00     0.017 A 
HETATM   22  C10 UNL     1      29.549  -0.826  53.494  1.00  0.00     0.020 A 
HETATM   23  C11 UNL     1      29.164  -2.139  53.428  1.00  0.00     0.116 A 
HETATM   24  N3  UNL     1      27.921  -2.463  53.006  1.00  0.00    -0.272 NA
HETATM   25  C12 UNL     1      27.072  -1.461  52.652  1.00  0.00     0.130 A 
ENDBRANCH  18  20
ENDBRANCH   1  14
TORSDOF 3
ENDMDL
MODEL 5
REMARK VINA RESULT:      -8.2      2.858      7.452
REMARK  3 active torsions:
REMARK  status: ('A' for Active; 'I' for Inactive)
REMARK    1  A    between atoms: C3_3  and  N1_4 
REMARK    2  A    between atoms: N1_4  and  C4_5 
REMARK    3  A    between atoms: C7_9  and  C8_10 
ROOT
HETATM    1  N1  UNL     1      22.781   1.687  51.646  1.00  0.00    -0.209 N 
HETATM    2  H4  UNL     1      22.278   2.417  52.219  1.00  0.00     0.179 HD
ENDROOT
BRANCH   1   3
HETATM    3  C3  UNL     1      22.149   0.382  51.394  1.00  0.00     0.174 C 
HETATM    4  C2  UNL     1      20.989   0.647  50.552  1.00  0.00     0.003 C 
HETATM    5  C1  UNL     1      19.680   0.845  50.438  1.00  0.00    -0.003 C 
HETATM    6  C17 UNL     1      18.642   0.864  51.537  1.00  0.00     0.197 C 
HETATM    7  O1  UNL     1      18.699  -0.413  52.087  1.00  0.00    -0.368 OA
HETATM    8  C16 UNL     1      19.292  -0.467  53.309  1.00  0.00     0.299 C 
HETATM    9  N6  UNL     1      20.707  -0.588  53.367  1.00  0.00    -0.319 N 
HETATM   10  C13 UNL     1      21.821  -0.288  52.677  1.00  0.00     0.059 A 
HETATM   11  C15 UNL     1      21.134  -1.220  54.504  1.00  0.00     0.211 A 
HETATM   12  C14 UNL     1      22.907  -0.749  53.417  1.00  0.00     0.145 A 
HETATM   13  N5  UNL     1      22.451  -1.331  54.561  1.00  0.00    -0.254 NA
ENDBRANCH   1   3
BRANCH   1  14
HETATM   14  C4  UNL     1      24.060   2.219  51.252  1.00  0.00     0.723 A 
HETATM   15  N2  UNL     1      24.405   3.098  50.285  1.00  0.00    -0.075 NA
HETATM   16  C5  UNL     1      25.711   3.386  50.148  1.00  0.00     0.139 A 
HETATM   17  C6  UNL     1      26.641   2.810  50.954  1.00  0.00     0.053 A 
HETATM   18  C7  UNL     1      26.296   1.912  51.945  1.00  0.00     0.089 A 
HETATM   19  N4  UNL     1      24.985   1.656  52.044  1.00  0.00    -0.062 NA
BRANCH  18  20
HETATM   20  C8  UNL     1      27.310   1.293  52.812  1.00  0.00     0.011 A 
HETATM   21  C9  UNL     1      28.338   1.988  53.398  1.00  0.00     0.017 A 
HETATM   22  C10 UNL     1      29.175   1.217  54.175  1.00  0.00     0.020 A 
HETATM   23  C11 UNL     1      29.020  -0.132  54.362  1.00  0.00     0.116 A 
HETATM   24  N3  UNL     1      27.998  -0.786  53.768  1.00  0.00    -0.272 NA
HETATM   25  C12 UNL     1      27.136  -0.079  52.988  1.00  0.00     0.130 A 
ENDBRANCH  18  20
ENDBRANCH   1  14
TORSDOF 3
ENDMDL
MODEL 6
REMARK VINA RESULT:      -8.1      5.817      8.022
REMARK  3 active torsions:
REMARK  status: ('A' for Active; 'I' for Inactive)
REMARK    1  A    between atoms: C3_3  and  N1_4 
REMARK    2  A    between atoms: N1_4  and  C4_5 
REMARK    3  A    between atoms: C7_9  and  C8_10 
ROOT
HETATM    1  N1  UNL     1      27.418   5.007  49.421  1.00  0.00    -0.209 N 
HETATM    2  H4  UNL     1      28.263   4.795  50.015  1.00  0.00     0.179 HD
ENDROOT
BRANCH   1   3
HETATM    3  C3  UNL     1      27.472   6.085  48.420  1.00  0.00     0.174 C 
HETATM    4  C2  UNL     1      28.822   6.064  47.871  1.00  0.00     0.003 C 
HETATM    5  C1  UNL     1      30.060   6.547  47.862  1.00  0.00    -0.003 C 
HETATM    6  C17 UNL     1      30.637   7.647  48.723  1.00  0.00     0.197 C 
HETATM    7  O1  UNL     1      29.881   8.770  48.400  1.00  0.00    -0.368 OA
HETATM    8  C16 UNL     1      28.996   9.141  49.362  1.00  0.00     0.299 C 
HETATM    9  N6  UNL     1      27.717   8.522  49.377  1.00  0.00    -0.319 N 
HETATM   10  C13 UNL     1      27.093   7.381  49.036  1.00  0.00     0.059 A 
HETATM   11  C15 UNL     1      26.750   9.324  49.920  1.00  0.00     0.211 A 
HETATM   12  C14 UNL     1      25.751   7.519  49.383  1.00  0.00     0.145 A 
HETATM   13  N5  UNL     1      25.559   8.748  49.937  1.00  0.00    -0.254 NA
ENDBRANCH   1   3
BRANCH   1  14
HETATM   14  C4  UNL     1      26.356   4.114  49.803  1.00  0.00     0.723 A 
HETATM   15  N2  UNL     1      25.058   4.054  49.430  1.00  0.00    -0.075 NA
HETATM   16  C5  UNL     1      24.296   3.098  49.990  1.00  0.00     0.139 A 
HETATM   17  C6  UNL     1      24.819   2.231  50.895  1.00  0.00     0.053 A 
HETATM   18  C7  UNL     1      26.144   2.284  51.281  1.00  0.00     0.089 A 
HETATM   19  N4  UNL     1      26.864   3.252  50.697  1.00  0.00    -0.062 NA
BRANCH  18  20
HETATM   20  C8  UNL     1      26.701   1.341  52.262  1.00  0.00     0.011 A 
HETATM   21  C9  UNL     1      26.744  -0.018  52.073  1.00  0.00     0.017 A 
HETATM   22  C10 UNL     1      27.310  -0.719  53.116  1.00  0.00     0.020 A 
HETATM   23  C11 UNL     1      27.793  -0.136  54.258  1.00  0.00     0.116 A 
HETATM   24  N3  UNL     1      27.734   1.206  54.413  1.00  0.00    -0.272 NA
HETATM   25  C12 UNL     1      27.186   1.953  53.417  1.00  0.00     0.130 A 
ENDBRANCH  18  20
ENDBRANCH   1  14
TORSDOF 3
ENDMDL
MODEL 7
REMARK VINA RESULT:      -8.1      4.057      6.266
REMARK  3 active torsions:
REMARK  status: ('A' for Active; 'I' for Inactive)
REMARK    1  A    between atoms: C3_3  and  N1_4 
REMARK    2  A    between atoms: N1_4  and  C4_5 
REMARK    3  A    between atoms: C7_9  and  C8_10 
ROOT
HETATM    1  N1  UNL     1      23.755   2.368  52.859  1.00  0.00    -0.209 N 
HETATM    2  H4  UNL     1      24.105   2.634  53.818  1.00  0.00     0.179 HD
ENDROOT
BRANCH   1   3
HETATM    3  C3  UNL     1      23.669   0.951  52.471  1.00  0.00     0.174 C 
HETATM    4  C2  UNL     1      22.281   0.716  52.094  1.00  0.00     0.003 C 
HETATM    5  C1  UNL     1      21.067   0.280  52.414  1.00  0.00    -0.003 C 
HETATM    6  C17 UNL     1      20.604  -0.303  53.729  1.00  0.00     0.197 C 
HETATM    7  O1  UNL     1      21.378  -1.447  53.892  1.00  0.00    -0.368 OA
HETATM    8  C16 UNL     1      22.350  -1.333  54.836  1.00  0.00     0.299 C 
HETATM    9  N6  UNL     1      23.599  -0.774  54.455  1.00  0.00    -0.319 N 
HETATM   10  C13 UNL     1      24.148   0.084  53.576  1.00  0.00     0.059 A 
HETATM   11  C15 UNL     1      24.637  -1.236  55.218  1.00  0.00     0.211 A 
HETATM   12  C14 UNL     1      25.516   0.123  53.830  1.00  0.00     0.145 A 
HETATM   13  N5  UNL     1      25.801  -0.715  54.866  1.00  0.00    -0.254 NA
ENDBRANCH   1   3
BRANCH   1  14
HETATM   14  C4  UNL     1      23.449   3.575  52.136  1.00  0.00     0.723 A 
HETATM   15  N2  UNL     1      22.330   4.333  52.092  1.00  0.00    -0.075 NA
HETATM   16  C5  UNL     1      22.344   5.412  51.289  1.00  0.00     0.139 A 
HETATM   17  C6  UNL     1      23.445   5.718  50.553  1.00  0.00     0.053 A 
HETATM   18  C7  UNL     1      24.592   4.950  50.593  1.00  0.00     0.089 A 
HETATM   19  N4  UNL     1      24.531   3.887  51.407  1.00  0.00    -0.062 NA
BRANCH  18  20
HETATM   20  C8  UNL     1      25.777   5.290  49.793  1.00  0.00     0.011 A 
HETATM   21  C9  UNL     1      26.643   4.358  49.280  1.00  0.00     0.017 A 
HETATM   22  C10 UNL     1      27.689   4.891  48.557  1.00  0.00     0.020 A 
HETATM   23  C11 UNL     1      27.873   6.234  48.354  1.00  0.00     0.116 A 
HETATM   24  N3  UNL     1      27.002   7.126  48.875  1.00  0.00    -0.272 NA
HETATM   25  C12 UNL     1      25.948   6.661  49.599  1.00  0.00     0.130 A 
ENDBRANCH  18  20
ENDBRANCH   1  14
TORSDOF 3
ENDMDL
MODEL 8
REMARK VINA RESULT:      -7.9      3.643      7.143
REMARK  3 active torsions:
REMARK  status: ('A' for Active; 'I' for Inactive)
REMARK    1  A    between atoms: C3_3  and  N1_4 
REMARK    2  A    between atoms: N1_4  and  C4_5 
REMARK    3  A    between atoms: C7_9  and  C8_10 
ROOT
HETATM    1  N1  UNL     1      24.631   2.913  51.444  1.00  0.00    -0.209 N 
HETATM    2  H4  UNL     1      25.064   3.632  52.084  1.00  0.00     0.179 HD
ENDROOT
BRANCH   1   3
HETATM    3  C3  UNL     1      24.356   3.247  50.038  1.00  0.00     0.174 C 
HETATM    4  C2  UNL     1      25.633   3.641  49.455  1.00  0.00     0.003 C 
HETATM    5  C1  UNL     1      26.477   4.601  49.094  1.00  0.00    -0.003 C 
HETATM    6  C17 UNL     1      26.301   6.096  49.231  1.00  0.00     0.197 C 
HETATM    7  O1  UNL     1      25.181   6.384  48.457  1.00  0.00    -0.368 OA
HETATM    8  C16 UNL     1      24.065   6.671  49.178  1.00  0.00     0.299 C 
HETATM    9  N6  UNL     1      23.249   5.594  49.616  1.00  0.00    -0.319 N 
HETATM   10  C13 UNL     1      23.307   4.293  49.951  1.00  0.00     0.059 A 
HETATM   11  C15 UNL     1      21.937   5.956  49.767  1.00  0.00     0.211 A 
HETATM   12  C14 UNL     1      22.020   3.894  50.301  1.00  0.00     0.145 A 
HETATM   13  N5  UNL     1      21.175   4.955  50.177  1.00  0.00    -0.254 NA
ENDBRANCH   1   3
BRANCH   1  14
HETATM   14  C4  UNL     1      24.400   1.711  52.201  1.00  0.00     0.723 A 
HETATM   15  N2  UNL     1      23.277   1.205  52.758  1.00  0.00    -0.075 NA
HETATM   16  C5  UNL     1      23.388   0.048  53.435  1.00  0.00     0.139 A 
HETATM   17  C6  UNL     1      24.587  -0.580  53.549  1.00  0.00     0.053 A 
HETATM   18  C7  UNL     1      25.739  -0.071  52.983  1.00  0.00     0.089 A 
HETATM   19  N4  UNL     1      25.579   1.082  52.319  1.00  0.00    -0.062 NA
BRANCH  18  20
HETATM   20  C8  UNL     1      27.032  -0.758  53.113  1.00  0.00     0.011 A 
HETATM   21  C9  UNL     1      28.182  -0.144  53.543  1.00  0.00     0.017 A 
HETATM   22  C10 UNL     1      29.283  -0.971  53.594  1.00  0.00     0.020 A 
HETATM   23  C11 UNL     1      29.261  -2.298  53.251  1.00  0.00     0.116 A 
HETATM   24  N3  UNL     1      28.112  -2.871  52.830  1.00  0.00    -0.272 NA
HETATM   25  C12 UNL     1      26.990  -2.106  52.757  1.00  0.00     0.130 A 
ENDBRANCH  18  20
ENDBRANCH   1  14
TORSDOF 3
ENDMDL
MODEL 9
REMARK VINA RESULT:      -7.9      4.224      6.486
REMARK  3 active torsions:
REMARK  status: ('A' for Active; 'I' for Inactive)
REMARK    1  A    between atoms: C3_3  and  N1_4 
REMARK    2  A    between atoms: N1_4  and  C4_5 
REMARK    3  A    between atoms: C7_9  and  C8_10 
ROOT
HETATM    1  N1  UNL     1      24.679   2.333  51.406  1.00  0.00    -0.209 N 
HETATM    2  H4  UNL     1      25.117   1.546  50.856  1.00  0.00     0.179 HD
ENDROOT
BRANCH   1   3
HETATM    3  C3  UNL     1      24.496   2.205  52.860  1.00  0.00     0.174 C 
HETATM    4  C2  UNL     1      25.830   2.250  53.445  1.00  0.00     0.003 C 
HETATM    5  C1  UNL     1      26.887   1.610  53.932  1.00  0.00    -0.003 C 
HETATM    6  C17 UNL     1      27.091   0.118  54.070  1.00  0.00     0.197 C 
HETATM    7  O1  UNL     1      26.078  -0.290  54.932  1.00  0.00    -0.368 OA
HETATM    8  C16 UNL     1      25.070  -0.970  54.324  1.00  0.00     0.299 C 
HETATM    9  N6  UNL     1      24.010  -0.226  53.739  1.00  0.00    -0.319 N 
HETATM   10  C13 UNL     1      23.742   0.966  53.177  1.00  0.00     0.059 A 
HETATM   11  C15 UNL     1      22.831  -0.920  53.714  1.00  0.00     0.211 A 
HETATM   12  C14 UNL     1      22.396   0.966  52.821  1.00  0.00     0.145 A 
HETATM   13  N5  UNL     1      21.843  -0.230  53.168  1.00  0.00    -0.254 NA
ENDBRANCH   1   3
BRANCH   1  14
HETATM   14  C4  UNL     1      24.344   3.394  50.493  1.00  0.00     0.723 A 
HETATM   15  N2  UNL     1      23.153   3.825  50.018  1.00  0.00    -0.075 NA
HETATM   16  C5  UNL     1      23.168   4.847  49.144  1.00  0.00     0.139 A 
HETATM   17  C6  UNL     1      24.339   5.418  48.759  1.00  0.00     0.053 A 
HETATM   18  C7  UNL     1      25.559   4.985  49.239  1.00  0.00     0.089 A 
HETATM   19  N4  UNL     1      25.495   3.966  50.107  1.00  0.00    -0.062 NA
BRANCH  18  20
HETATM   20  C8  UNL     1      26.821   5.609  48.815  1.00  0.00     0.011 A 
HETATM   21  C9  UNL     1      27.969   4.904  48.552  1.00  0.00     0.017 A 
HETATM   22  C10 UNL     1      29.039   5.684  48.166  1.00  0.00     0.020 A 
HETATM   23  C11 UNL     1      28.989   7.048  48.048  1.00  0.00     0.116 A 
HETATM   24  N3  UNL     1      27.842   7.711  48.317  1.00  0.00    -0.272 NA
HETATM   25  C12 UNL     1      26.751   6.997  48.703  1.00  0.00     0.130 A 
ENDBRANCH  18  20
ENDBRANCH   1  14
TORSDOF 3
ENDMDL
