MODEL 1
REMARK VINA RESULT:      -8.3      0.000      0.000
REMARK  8 active torsions:
REMARK  status: ('A' for Active; 'I' for Inactive)
REMARK    1  A    between atoms: C2_2  and  C3_3 
REMARK    2  A    between atoms: C2_2  and  N1_9 
REMARK    3  A    between atoms: C3_3  and  C4_4 
REMARK    4  A    between atoms: C4_4  and  C5_5 
REMARK    5  A    between atoms: C5_5  and  C6_6 
REMARK    6  A    between atoms: C6_6  and  O2_8 
REMARK    7  A    between atoms: C7_10  and  C8_11 
REMARK    8  A    between atoms: C8_11  and  C9_12 
ROOT
HETATM    1  C9  UNL     1      23.447   0.042  53.366  1.00  0.00    -0.004 C 
HETATM    2  C10 UNL     1      22.219  -0.397  53.581  1.00  0.00     0.041 A 
HETATM    3  C11 UNL     1      21.795  -1.288  54.684  1.00  0.00     0.256 A 
HETATM    4  O3  UNL     1      22.535  -1.763  55.584  1.00  0.00    -0.267 OA
HETATM    5  N2  UNL     1      20.408  -1.452  54.460  1.00  0.00    -0.322 N 
HETATM    6  C12 UNL     1      19.914  -0.753  53.328  1.00  0.00     0.046 A 
HETATM    7  C13 UNL     1      18.643  -0.670  52.797  1.00  0.00     0.032 A 
HETATM    8  C14 UNL     1      18.436   0.089  51.674  1.00  0.00     0.021 A 
HETATM    9  C15 UNL     1      19.508   0.762  51.087  1.00  0.00     0.011 A 
HETATM   10 BR1  UNL     1      19.248   1.820  49.531  1.00  0.00    -0.051 Br
HETATM   11  C16 UNL     1      20.745   0.623  51.683  1.00  0.00     0.033 A 
HETATM   12  C17 UNL     1      21.020  -0.115  52.799  1.00  0.00     0.007 A 
HETATM   13  H16 UNL     1      19.875  -2.052  55.120  1.00  0.00     0.169 HD
ENDROOT
BRANCH   1  14
HETATM   14  C8  UNL     1      24.326   0.841  52.537  1.00  0.00     0.074 C 
BRANCH  14  15
HETATM   15  C7  UNL     1      25.764   0.626  52.964  1.00  0.00     0.087 C 
HETATM   16  N1  UNL     1      26.691   1.491  52.815  1.00  0.00    -0.301 NA
BRANCH  16  17
HETATM   17  C2  UNL     1      28.042   1.294  53.214  1.00  0.00     0.103 C 
HETATM   18  C1  UNL     1      28.645   2.645  53.505  1.00  0.00     0.034 C 
BRANCH  17  19
HETATM   19  C3  UNL     1      28.094   0.429  54.473  1.00  0.00     0.027 C 
BRANCH  19  20
HETATM   20  C4  UNL     1      29.249  -0.527  54.429  1.00  0.00     0.012 C 
BRANCH  20  21
HETATM   21  C5  UNL     1      29.354  -1.279  53.120  1.00  0.00     0.110 C 
BRANCH  21  22
HETATM   22  C6  UNL     1      28.462  -2.488  53.103  1.00  0.00     0.139 C 
HETATM   23  O1  UNL     1      27.255  -2.424  52.722  1.00  0.00    -0.650 OA
BRANCH  22  24
HETATM   24  O2  UNL     1      28.893  -3.751  53.502  1.00  0.00    -0.776 OA
HETATM   25  H11 UNL     1      28.227  -4.434  53.887  1.00  0.00     0.167 HD
ENDBRANCH  22  24
ENDBRANCH  21  22
ENDBRANCH  20  21
ENDBRANCH  19  20
ENDBRANCH  17  19
ENDBRANCH  16  17
ENDBRANCH  14  15
ENDBRANCH   1  14
TORSDOF 8
ENDMDL
MODEL 2
REMARK VINA RESULT:      -7.8      1.967      2.621
REMARK  8 active torsions:
REMARK  status: ('A' for Active; 'I' for Inactive)
REMARK    1  A    between atoms: C2_2  and  C3_3 
REMARK    2  A    between atoms: C2_2  and  N1_9 
REMARK    3  A    between atoms: C3_3  and  C4_4 
REMARK    4  A    between atoms: C4_4  and  C5_5 
REMARK    5  A    between atoms: C5_5  and  C6_6 
REMARK    6  A    between atoms: C6_6  and  O2_8 
REMARK    7  A    between atoms: C7_10  and  C8_11 
REMARK    8  A    between atoms: C8_11  and  C9_12 
ROOT
HETATM    1  C9  UNL     1      23.182   0.132  53.408  1.00  0.00    -0.004 C 
HETATM    2  C10 UNL     1      21.940  -0.304  53.518  1.00  0.00     0.041 A 
HETATM    3  C11 UNL     1      21.436  -1.243  54.545  1.00  0.00     0.256 A 
HETATM    4  O3  UNL     1      22.109  -1.767  55.470  1.00  0.00    -0.267 OA
HETATM    5  N2  UNL     1      20.065  -1.382  54.222  1.00  0.00    -0.322 N 
HETATM    6  C12 UNL     1      19.655  -0.624  53.093  1.00  0.00     0.046 A 
HETATM    7  C13 UNL     1      18.423  -0.503  52.483  1.00  0.00     0.032 A 
HETATM    8  C14 UNL     1      18.298   0.310  51.386  1.00  0.00     0.021 A 
HETATM    9  C15 UNL     1      19.411   0.999  50.906  1.00  0.00     0.011 A 
HETATM   10 BR1  UNL     1      19.264   2.133  49.389  1.00  0.00    -0.051 Br
HETATM   11  C16 UNL     1      20.604   0.820  51.577  1.00  0.00     0.033 A 
HETATM   12  C17 UNL     1      20.798   0.026  52.672  1.00  0.00     0.007 A 
HETATM   13  H16 UNL     1      19.486  -2.007  54.814  1.00  0.00     0.169 HD
ENDROOT
BRANCH   1  14
HETATM   14  C8  UNL     1      24.121   0.961  52.679  1.00  0.00     0.074 C 
BRANCH  14  15
HETATM   15  C7  UNL     1      25.438   0.228  52.530  1.00  0.00     0.087 C 
HETATM   16  N1  UNL     1      25.908  -0.584  53.397  1.00  0.00    -0.301 NA
BRANCH  16  17
HETATM   17  C2  UNL     1      27.143  -1.274  53.261  1.00  0.00     0.103 C 
HETATM   18  C1  UNL     1      26.943  -2.404  52.283  1.00  0.00     0.034 C 
BRANCH  17  19
HETATM   19  C3  UNL     1      28.217  -0.324  52.733  1.00  0.00     0.027 C 
BRANCH  19  20
HETATM   20  C4  UNL     1      29.280  -0.077  53.762  1.00  0.00     0.012 C 
BRANCH  20  21
HETATM   21  C5  UNL     1      28.973   1.094  54.671  1.00  0.00     0.110 C 
BRANCH  21  22
HETATM   22  C6  UNL     1      28.445   2.269  53.898  1.00  0.00     0.139 C 
HETATM   23  O1  UNL     1      29.155   2.887  53.049  1.00  0.00    -0.650 OA
BRANCH  22  24
HETATM   24  O2  UNL     1      27.151   2.760  54.060  1.00  0.00    -0.776 OA
HETATM   25  H11 UNL     1      26.980   3.773  54.119  1.00  0.00     0.167 HD
ENDBRANCH  22  24
ENDBRANCH  21  22
ENDBRANCH  20  21
ENDBRANCH  19  20
ENDBRANCH  17  19
ENDBRANCH  16  17
ENDBRANCH  14  15
ENDBRANCH   1  14
TORSDOF 8
ENDMDL
MODEL 3
REMARK VINA RESULT:      -7.7      5.661      8.021
REMARK  8 active torsions:
REMARK  status: ('A' for Active; 'I' for Inactive)
REMARK    1  A    between atoms: C2_2  and  C3_3 
REMARK    2  A    between atoms: C2_2  and  N1_9 
REMARK    3  A    between atoms: C3_3  and  C4_4 
REMARK    4  A    between atoms: C4_4  and  C5_5 
REMARK    5  A    between atoms: C5_5  and  C6_6 
REMARK    6  A    between atoms: C6_6  and  O2_8 
REMARK    7  A    between atoms: C7_10  and  C8_11 
REMARK    8  A    between atoms: C8_11  and  C9_12 
ROOT
HETATM    1  C9  UNL     1      25.697   3.715  49.930  1.00  0.00    -0.004 C 
HETATM    2  C10 UNL     1      25.754   4.873  49.297  1.00  0.00     0.041 A 
HETATM    3  C11 UNL     1      24.616   5.786  49.051  1.00  0.00     0.256 A 
HETATM    4  O3  UNL     1      23.423   5.602  49.406  1.00  0.00    -0.267 OA
HETATM    5  N2  UNL     1      25.204   6.863  48.346  1.00  0.00    -0.322 N 
HETATM    6  C12 UNL     1      26.598   6.721  48.123  1.00  0.00     0.046 A 
HETATM    7  C13 UNL     1      27.503   7.544  47.484  1.00  0.00     0.032 A 
HETATM    8  C14 UNL     1      28.817   7.161  47.408  1.00  0.00     0.021 A 
HETATM    9  C15 UNL     1      29.219   5.951  47.973  1.00  0.00     0.011 A 
HETATM   10 BR1  UNL     1      31.033   5.398  47.882  1.00  0.00    -0.051 Br
HETATM   11  C16 UNL     1      28.248   5.189  48.592  1.00  0.00     0.033 A 
HETATM   12  C17 UNL     1      26.925   5.510  48.703  1.00  0.00     0.007 A 
HETATM   13  H16 UNL     1      24.589   7.648  48.054  1.00  0.00     0.169 HD
ENDROOT
BRANCH   1  14
HETATM   14  C8  UNL     1      26.416   2.548  50.401  1.00  0.00     0.074 C 
BRANCH  14  15
HETATM   15  C7  UNL     1      25.929   2.174  51.786  1.00  0.00     0.087 C 
HETATM   16  N1  UNL     1      26.161   1.051  52.346  1.00  0.00    -0.301 NA
BRANCH  16  17
HETATM   17  C2  UNL     1      25.707   0.694  53.645  1.00  0.00     0.103 C 
HETATM   18  C1  UNL     1      24.627  -0.347  53.495  1.00  0.00     0.034 C 
BRANCH  17  19
HETATM   19  C3  UNL     1      26.864   0.118  54.462  1.00  0.00     0.027 C 
BRANCH  19  20
HETATM   20  C4  UNL     1      27.956  -0.395  53.571  1.00  0.00     0.012 C 
BRANCH  20  21
HETATM   21  C5  UNL     1      29.321   0.161  53.915  1.00  0.00     0.110 C 
BRANCH  21  22
HETATM   22  C6  UNL     1      29.280   1.653  54.093  1.00  0.00     0.139 C 
HETATM   23  O1  UNL     1      29.505   2.201  55.213  1.00  0.00    -0.650 OA
BRANCH  22  24
HETATM   24  O2  UNL     1      28.995   2.531  53.049  1.00  0.00    -0.776 OA
HETATM   25  H11 UNL     1      29.726   3.147  52.669  1.00  0.00     0.167 HD
ENDBRANCH  22  24
ENDBRANCH  21  22
ENDBRANCH  20  21
ENDBRANCH  19  20
ENDBRANCH  17  19
ENDBRANCH  16  17
ENDBRANCH  14  15
ENDBRANCH   1  14
TORSDOF 8
ENDMDL
MODEL 4
REMARK VINA RESULT:      -7.6      2.976      4.103
REMARK  8 active torsions:
REMARK  status: ('A' for Active; 'I' for Inactive)
REMARK    1  A    between atoms: C2_2  and  C3_3 
REMARK    2  A    between atoms: C2_2  and  N1_9 
REMARK    3  A    between atoms: C3_3  and  C4_4 
REMARK    4  A    between atoms: C4_4  and  C5_5 
REMARK    5  A    between atoms: C5_5  and  C6_6 
REMARK    6  A    between atoms: C6_6  and  O2_8 
REMARK    7  A    between atoms: C7_10  and  C8_11 
REMARK    8  A    between atoms: C8_11  and  C9_12 
ROOT
HETATM    1  C9  UNL     1      21.124   1.123  50.364  1.00  0.00    -0.004 C 
HETATM    2  C10 UNL     1      20.678   0.478  51.426  1.00  0.00     0.041 A 
HETATM    3  C11 UNL     1      19.262   0.165  51.721  1.00  0.00     0.256 A 
HETATM    4  O3  UNL     1      18.268   0.464  51.009  1.00  0.00    -0.267 OA
HETATM    5  N2  UNL     1      19.327  -0.523  52.956  1.00  0.00    -0.322 N 
HETATM    6  C12 UNL     1      20.642  -0.675  53.469  1.00  0.00     0.046 A 
HETATM    7  C13 UNL     1      21.100  -1.276  54.623  1.00  0.00     0.032 A 
HETATM    8  C14 UNL     1      22.446  -1.284  54.883  1.00  0.00     0.021 A 
HETATM    9  C15 UNL     1      23.328  -0.687  53.983  1.00  0.00     0.011 A 
HETATM   10 BR1  UNL     1      25.197  -0.684  54.319  1.00  0.00    -0.051 Br
HETATM   11  C16 UNL     1      22.783  -0.108  52.854  1.00  0.00     0.033 A 
HETATM   12  C17 UNL     1      21.456  -0.065  52.534  1.00  0.00     0.007 A 
HETATM   13  H16 UNL     1      18.436  -0.851  53.379  1.00  0.00     0.169 HD
ENDROOT
BRANCH   1  14
HETATM   14  C8  UNL     1      22.272   1.646  49.650  1.00  0.00     0.074 C 
BRANCH  14  15
HETATM   15  C7  UNL     1      23.141   2.446  50.598  1.00  0.00     0.087 C 
HETATM   16  N1  UNL     1      24.379   2.212  50.804  1.00  0.00    -0.301 NA
BRANCH  16  17
HETATM   17  C2  UNL     1      25.200   2.960  51.692  1.00  0.00     0.103 C 
HETATM   18  C1  UNL     1      24.510   3.016  53.032  1.00  0.00     0.034 C 
BRANCH  17  19
HETATM   19  C3  UNL     1      26.559   2.278  51.847  1.00  0.00     0.027 C 
BRANCH  19  20
HETATM   20  C4  UNL     1      26.997   2.255  53.281  1.00  0.00     0.012 C 
BRANCH  20  21
HETATM   21  C5  UNL     1      28.492   2.418  53.454  1.00  0.00     0.110 C 
BRANCH  21  22
HETATM   22  C6  UNL     1      29.112   1.198  54.075  1.00  0.00     0.139 C 
HETATM   23  O1  UNL     1      28.683   0.707  55.162  1.00  0.00    -0.650 OA
BRANCH  22  24
HETATM   24  O2  UNL     1      30.193   0.527  53.506  1.00  0.00    -0.776 OA
HETATM   25  H11 UNL     1      31.144   0.913  53.577  1.00  0.00     0.167 HD
ENDBRANCH  22  24
ENDBRANCH  21  22
ENDBRANCH  20  21
ENDBRANCH  19  20
ENDBRANCH  17  19
ENDBRANCH  16  17
ENDBRANCH  14  15
ENDBRANCH   1  14
TORSDOF 8
ENDMDL
MODEL 5
REMARK VINA RESULT:      -7.6      4.956      7.104
REMARK  8 active torsions:
REMARK  status: ('A' for Active; 'I' for Inactive)
REMARK    1  A    between atoms: C2_2  and  C3_3 
REMARK    2  A    between atoms: C2_2  and  N1_9 
REMARK    3  A    between atoms: C3_3  and  C4_4 
REMARK    4  A    between atoms: C4_4  and  C5_5 
REMARK    5  A    between atoms: C5_5  and  C6_6 
REMARK    6  A    between atoms: C6_6  and  O2_8 
REMARK    7  A    between atoms: C7_10  and  C8_11 
REMARK    8  A    between atoms: C8_11  and  C9_12 
ROOT
HETATM    1  C9  UNL     1      26.785   2.636  51.276  1.00  0.00    -0.004 C 
HETATM    2  C10 UNL     1      26.938   2.022  52.435  1.00  0.00     0.041 A 
HETATM    3  C11 UNL     1      28.101   2.154  53.341  1.00  0.00     0.256 A 
HETATM    4  O3  UNL     1      29.118   2.869  53.149  1.00  0.00    -0.267 OA
HETATM    5  N2  UNL     1      27.775   1.302  54.423  1.00  0.00    -0.322 N 
HETATM    6  C12 UNL     1      26.523   0.646  54.290  1.00  0.00     0.046 A 
HETATM    7  C13 UNL     1      25.873  -0.244  55.120  1.00  0.00     0.032 A 
HETATM    8  C14 UNL     1      24.650  -0.736  54.746  1.00  0.00     0.021 A 
HETATM    9  C15 UNL     1      24.082  -0.332  53.538  1.00  0.00     0.011 A 
HETATM   10 BR1  UNL     1      22.387  -0.997  52.997  1.00  0.00    -0.051 Br
HETATM   11  C16 UNL     1      24.801   0.561  52.769  1.00  0.00     0.033 A 
HETATM   12  C17 UNL     1      26.022   1.088  53.081  1.00  0.00     0.007 A 
HETATM   13  H16 UNL     1      28.455   1.223  55.204  1.00  0.00     0.169 HD
ENDROOT
BRANCH   1  14
HETATM   14  C8  UNL     1      25.947   2.850  50.113  1.00  0.00     0.074 C 
BRANCH  14  15
HETATM   15  C7  UNL     1      25.841   4.334  49.827  1.00  0.00     0.087 C 
HETATM   16  N1  UNL     1      26.546   4.946  48.957  1.00  0.00    -0.301 NA
BRANCH  16  17
HETATM   17  C2  UNL     1      26.451   6.338  48.683  1.00  0.00     0.103 C 
HETATM   18  C1  UNL     1      25.791   7.004  49.864  1.00  0.00     0.034 C 
BRANCH  17  19
HETATM   19  C3  UNL     1      27.848   6.927  48.480  1.00  0.00     0.027 C 
BRANCH  19  20
HETATM   20  C4  UNL     1      28.862   5.850  48.234  1.00  0.00     0.012 C 
BRANCH  20  21
HETATM   21  C5  UNL     1      30.289   6.353  48.256  1.00  0.00     0.110 C 
BRANCH  21  22
HETATM   22  C6  UNL     1      31.190   5.429  49.025  1.00  0.00     0.139 C 
HETATM   23  O1  UNL     1      31.838   4.500  48.458  1.00  0.00    -0.650 OA
BRANCH  22  24
HETATM   24  O2  UNL     1      31.373   5.526  50.403  1.00  0.00    -0.776 OA
HETATM   25  H11 UNL     1      31.120   4.744  51.020  1.00  0.00     0.167 HD
ENDBRANCH  22  24
ENDBRANCH  21  22
ENDBRANCH  20  21
ENDBRANCH  19  20
ENDBRANCH  17  19
ENDBRANCH  16  17
ENDBRANCH  14  15
ENDBRANCH   1  14
TORSDOF 8
ENDMDL
MODEL 6
REMARK VINA RESULT:      -7.6      3.989      5.673
REMARK  8 active torsions:
REMARK  status: ('A' for Active; 'I' for Inactive)
REMARK    1  A    between atoms: C2_2  and  C3_3 
REMARK    2  A    between atoms: C2_2  and  N1_9 
REMARK    3  A    between atoms: C3_3  and  C4_4 
REMARK    4  A    between atoms: C4_4  and  C5_5 
REMARK    5  A    between atoms: C5_5  and  C6_6 
REMARK    6  A    between atoms: C6_6  and  O2_8 
REMARK    7  A    between atoms: C7_10  and  C8_11 
REMARK    8  A    between atoms: C8_11  and  C9_12 
ROOT
HETATM    1  C9  UNL     1      26.317   0.898  52.592  1.00  0.00    -0.004 C 
HETATM    2  C10 UNL     1      25.668   0.213  53.516  1.00  0.00     0.041 A 
HETATM    3  C11 UNL     1      26.268  -0.416  54.714  1.00  0.00     0.256 A 
HETATM    4  O3  UNL     1      27.484  -0.394  55.037  1.00  0.00    -0.267 OA
HETATM    5  N2  UNL     1      25.161  -1.014  55.362  1.00  0.00    -0.322 N 
HETATM    6  C12 UNL     1      23.924  -0.826  54.692  1.00  0.00     0.046 A 
HETATM    7  C13 UNL     1      22.650  -1.251  55.007  1.00  0.00     0.032 A 
HETATM    8  C14 UNL     1      21.611  -0.926  54.173  1.00  0.00     0.021 A 
HETATM    9  C15 UNL     1      21.857  -0.174  53.024  1.00  0.00     0.011 A 
HETATM   10 BR1  UNL     1      20.436   0.292  51.853  1.00  0.00    -0.051 Br
HETATM   11  C16 UNL     1      23.162   0.209  52.786  1.00  0.00     0.033 A 
HETATM   12  C17 UNL     1      24.240  -0.080  53.573  1.00  0.00     0.007 A 
HETATM   13  H16 UNL     1      25.335  -1.529  56.247  1.00  0.00     0.169 HD
ENDROOT
BRANCH   1  14
HETATM   14  C8  UNL     1      26.242   1.645  51.352  1.00  0.00     0.074 C 
BRANCH  14  15
HETATM   15  C7  UNL     1      25.319   2.833  51.529  1.00  0.00     0.087 C 
HETATM   16  N1  UNL     1      24.666   3.379  50.577  1.00  0.00    -0.301 NA
BRANCH  16  17
HETATM   17  C2  UNL     1      23.798   4.494  50.737  1.00  0.00     0.103 C 
HETATM   18  C1  UNL     1      23.521   4.665  52.209  1.00  0.00     0.034 C 
BRANCH  17  19
HETATM   19  C3  UNL     1      24.466   5.757  50.192  1.00  0.00     0.027 C 
BRANCH  19  20
HETATM   20  C4  UNL     1      25.202   5.477  48.915  1.00  0.00     0.012 C 
BRANCH  20  21
HETATM   21  C5  UNL     1      26.561   6.138  48.850  1.00  0.00     0.110 C 
BRANCH  21  22
HETATM   22  C6  UNL     1      27.670   5.125  48.870  1.00  0.00     0.139 C 
HETATM   23  O1  UNL     1      27.441   3.879  48.836  1.00  0.00    -0.650 OA
BRANCH  22  24
HETATM   24  O2  UNL     1      29.017   5.480  48.929  1.00  0.00    -0.776 OA
HETATM   25  H11 UNL     1      29.357   6.321  48.444  1.00  0.00     0.167 HD
ENDBRANCH  22  24
ENDBRANCH  21  22
ENDBRANCH  20  21
ENDBRANCH  19  20
ENDBRANCH  17  19
ENDBRANCH  16  17
ENDBRANCH  14  15
ENDBRANCH   1  14
TORSDOF 8
ENDMDL
MODEL 7
REMARK VINA RESULT:      -7.5      1.721      2.280
REMARK  8 active torsions:
REMARK  status: ('A' for Active; 'I' for Inactive)
REMARK    1  A    between atoms: C2_2  and  C3_3 
REMARK    2  A    between atoms: C2_2  and  N1_9 
REMARK    3  A    between atoms: C3_3  and  C4_4 
REMARK    4  A    between atoms: C4_4  and  C5_5 
REMARK    5  A    between atoms: C5_5  and  C6_6 
REMARK    6  A    between atoms: C6_6  and  O2_8 
REMARK    7  A    between atoms: C7_10  and  C8_11 
REMARK    8  A    between atoms: C8_11  and  C9_12 
ROOT
HETATM    1  C9  UNL     1      22.389   0.963  53.192  1.00  0.00    -0.004 C 
HETATM    2  C10 UNL     1      21.475   0.070  53.525  1.00  0.00     0.041 A 
HETATM    3  C11 UNL     1      21.612  -0.964  54.575  1.00  0.00     0.256 A 
HETATM    4  O3  UNL     1      22.615  -1.149  55.312  1.00  0.00    -0.267 OA
HETATM    5  N2  UNL     1      20.374  -1.648  54.528  1.00  0.00    -0.322 N 
HETATM    6  C12 UNL     1      19.471  -1.149  53.553  1.00  0.00     0.046 A 
HETATM    7  C13 UNL     1      18.194  -1.548  53.213  1.00  0.00     0.032 A 
HETATM    8  C14 UNL     1      17.531  -0.883  52.214  1.00  0.00     0.021 A 
HETATM    9  C15 UNL     1      18.152   0.181  51.560  1.00  0.00     0.011 A 
HETATM   10 BR1  UNL     1      17.253   1.120  50.175  1.00  0.00    -0.051 Br
HETATM   11  C16 UNL     1      19.430   0.512  51.964  1.00  0.00     0.033 A 
HETATM   12  C17 UNL     1      20.146  -0.107  52.948  1.00  0.00     0.007 A 
HETATM   13  H16 UNL     1      20.228  -2.437  55.187  1.00  0.00     0.169 HD
ENDROOT
BRANCH   1  14
HETATM   14  C8  UNL     1      22.747   2.079  52.339  1.00  0.00     0.074 C 
BRANCH  14  15
HETATM   15  C7  UNL     1      24.218   1.996  51.983  1.00  0.00     0.087 C 
HETATM   16  N1  UNL     1      24.887   0.909  51.955  1.00  0.00    -0.301 NA
BRANCH  16  17
HETATM   17  C2  UNL     1      26.266   0.826  51.621  1.00  0.00     0.103 C 
HETATM   18  C1  UNL     1      26.904   2.157  51.929  1.00  0.00     0.034 C 
BRANCH  17  19
HETATM   19  C3  UNL     1      26.939  -0.268  52.451  1.00  0.00     0.027 C 
BRANCH  19  20
HETATM   20  C4  UNL     1      26.179  -0.535  53.717  1.00  0.00     0.012 C 
BRANCH  20  21
HETATM   21  C5  UNL     1      26.765   0.162  54.925  1.00  0.00     0.110 C 
BRANCH  21  22
HETATM   22  C6  UNL     1      28.261   0.264  54.834  1.00  0.00     0.139 C 
HETATM   23  O1  UNL     1      28.993  -0.756  54.658  1.00  0.00    -0.650 OA
BRANCH  22  24
HETATM   24  O2  UNL     1      28.944   1.474  54.936  1.00  0.00    -0.776 OA
HETATM   25  H11 UNL     1      28.542   2.257  55.468  1.00  0.00     0.167 HD
ENDBRANCH  22  24
ENDBRANCH  21  22
ENDBRANCH  20  21
ENDBRANCH  19  20
ENDBRANCH  17  19
ENDBRANCH  16  17
ENDBRANCH  14  15
ENDBRANCH   1  14
TORSDOF 8
ENDMDL
MODEL 8
REMARK VINA RESULT:      -7.5      5.836      7.695
REMARK  8 active torsions:
REMARK  status: ('A' for Active; 'I' for Inactive)
REMARK    1  A    between atoms: C2_2  and  C3_3 
REMARK    2  A    between atoms: C2_2  and  N1_9 
REMARK    3  A    between atoms: C3_3  and  C4_4 
REMARK    4  A    between atoms: C4_4  and  C5_5 
REMARK    5  A    between atoms: C5_5  and  C6_6 
REMARK    6  A    between atoms: C6_6  and  O2_8 
REMARK    7  A    between atoms: C7_10  and  C8_11 
REMARK    8  A    between atoms: C8_11  and  C9_12 
ROOT
HETATM    1  C9  UNL     1      26.508   3.158  50.569  1.00  0.00    -0.004 C 
HETATM    2  C10 UNL     1      26.264   2.339  51.576  1.00  0.00     0.041 A 
HETATM    3  C11 UNL     1      27.226   1.948  52.631  1.00  0.00     0.256 A 
HETATM    4  O3  UNL     1      28.419   2.334  52.732  1.00  0.00    -0.267 OA
HETATM    5  N2  UNL     1      26.479   1.068  53.450  1.00  0.00    -0.322 N 
HETATM    6  C12 UNL     1      25.142   0.866  53.017  1.00  0.00     0.046 A 
HETATM    7  C13 UNL     1      24.127   0.093  53.542  1.00  0.00     0.032 A 
HETATM    8  C14 UNL     1      22.907   0.076  52.915  1.00  0.00     0.021 A 
HETATM    9  C15 UNL     1      22.712   0.835  51.762  1.00  0.00     0.011 A 
HETATM   10 BR1  UNL     1      21.032   0.829  50.875  1.00  0.00    -0.051 Br
HETATM   11  C16 UNL     1      23.782   1.578  51.305  1.00  0.00     0.033 A 
HETATM   12  C17 UNL     1      25.020   1.640  51.879  1.00  0.00     0.007 A 
HETATM   13  H16 UNL     1      26.950   0.652  54.276  1.00  0.00     0.169 HD
ENDROOT
BRANCH   1  14
HETATM   14  C8  UNL     1      25.997   3.815  49.383  1.00  0.00     0.074 C 
BRANCH  14  15
HETATM   15  C7  UNL     1      26.839   5.035  49.073  1.00  0.00     0.087 C 
HETATM   16  N1  UNL     1      28.048   4.985  48.665  1.00  0.00    -0.301 NA
BRANCH  16  17
HETATM   17  C2  UNL     1      28.843   6.126  48.372  1.00  0.00     0.103 C 
HETATM   18  C1  UNL     1      30.121   5.654  47.725  1.00  0.00     0.034 C 
BRANCH  17  19
HETATM   19  C3  UNL     1      28.096   7.051  47.410  1.00  0.00     0.027 C 
BRANCH  19  20
HETATM   20  C4  UNL     1      28.381   8.493  47.709  1.00  0.00     0.012 C 
BRANCH  20  21
HETATM   21  C5  UNL     1      28.804   8.735  49.142  1.00  0.00     0.110 C 
BRANCH  21  22
HETATM   22  C6  UNL     1      27.781   9.539  49.892  1.00  0.00     0.139 C 
HETATM   23  O1  UNL     1      26.995  10.340  49.303  1.00  0.00    -0.650 OA
BRANCH  22  24
HETATM   24  O2  UNL     1      27.626   9.464  51.275  1.00  0.00    -0.776 OA
HETATM   25  H11 UNL     1      26.833   8.953  51.685  1.00  0.00     0.167 HD
ENDBRANCH  22  24
ENDBRANCH  21  22
ENDBRANCH  20  21
ENDBRANCH  19  20
ENDBRANCH  17  19
ENDBRANCH  16  17
ENDBRANCH  14  15
ENDBRANCH   1  14
TORSDOF 8
ENDMDL
MODEL 9
REMARK VINA RESULT:      -7.5      3.080      5.297
REMARK  8 active torsions:
REMARK  status: ('A' for Active; 'I' for Inactive)
REMARK    1  A    between atoms: C2_2  and  C3_3 
REMARK    2  A    between atoms: C2_2  and  N1_9 
REMARK    3  A    between atoms: C3_3  and  C4_4 
REMARK    4  A    between atoms: C4_4  and  C5_5 
REMARK    5  A    between atoms: C5_5  and  C6_6 
REMARK    6  A    between atoms: C6_6  and  O2_8 
REMARK    7  A    between atoms: C7_10  and  C8_11 
REMARK    8  A    between atoms: C8_11  and  C9_12 
ROOT
HETATM    1  C9  UNL     1      24.305  -0.499  53.570  1.00  0.00    -0.004 C 
HETATM    2  C10 UNL     1      23.000  -0.619  53.737  1.00  0.00     0.041 A 
HETATM    3  C11 UNL     1      22.324  -1.171  54.933  1.00  0.00     0.256 A 
HETATM    4  O3  UNL     1      22.886  -1.607  55.971  1.00  0.00    -0.267 OA
HETATM    5  N2  UNL     1      20.951  -1.079  54.607  1.00  0.00    -0.322 N 
HETATM    6  C12 UNL     1      20.693  -0.525  53.326  1.00  0.00     0.046 A 
HETATM    7  C13 UNL     1      19.505  -0.281  52.667  1.00  0.00     0.032 A 
HETATM    8  C14 UNL     1      19.538   0.272  51.412  1.00  0.00     0.021 A 
HETATM    9  C15 UNL     1      20.766   0.577  50.824  1.00  0.00     0.011 A 
HETATM   10 BR1  UNL     1      20.839   1.345  49.088  1.00  0.00    -0.051 Br
HETATM   11  C16 UNL     1      21.904   0.300  51.554  1.00  0.00     0.033 A 
HETATM   12  C17 UNL     1      21.941  -0.249  52.804  1.00  0.00     0.007 A 
HETATM   13  H16 UNL     1      20.260  -1.414  55.307  1.00  0.00     0.169 HD
ENDROOT
BRANCH   1  14
HETATM   14  C8  UNL     1      25.388  -0.079  52.703  1.00  0.00     0.074 C 
BRANCH  14  15
HETATM   15  C7  UNL     1      25.313   1.418  52.483  1.00  0.00     0.087 C 
HETATM   16  N1  UNL     1      25.146   1.965  51.342  1.00  0.00    -0.301 NA
BRANCH  16  17
HETATM   17  C2  UNL     1      25.074   3.369  51.129  1.00  0.00     0.103 C 
HETATM   18  C1  UNL     1      24.774   3.608  49.671  1.00  0.00     0.034 C 
BRANCH  17  19
HETATM   19  C3  UNL     1      23.960   3.971  51.986  1.00  0.00     0.027 C 
BRANCH  19  20
HETATM   20  C4  UNL     1      22.624   3.828  51.320  1.00  0.00     0.012 C 
BRANCH  20  21
HETATM   21  C5  UNL     1      21.464   3.856  52.291  1.00  0.00     0.110 C 
BRANCH  21  22
HETATM   22  C6  UNL     1      20.163   4.125  51.590  1.00  0.00     0.139 C 
HETATM   23  O1  UNL     1      20.106   4.794  50.515  1.00  0.00    -0.650 OA
BRANCH  22  24
HETATM   24  O2  UNL     1      18.937   3.665  52.068  1.00  0.00    -0.776 OA
HETATM   25  H11 UNL     1      18.360   4.255  52.681  1.00  0.00     0.167 HD
ENDBRANCH  22  24
ENDBRANCH  21  22
ENDBRANCH  20  21
ENDBRANCH  19  20
ENDBRANCH  17  19
ENDBRANCH  16  17
ENDBRANCH  14  15
ENDBRANCH   1  14
TORSDOF 8
ENDMDL
