MODEL 1
REMARK VINA RESULT:      -8.6      0.000      0.000
REMARK  3 active torsions:
REMARK  status: ('A' for Active; 'I' for Inactive)
REMARK    1  A    between atoms: N1_1  and  C1_2 
REMARK    2  A    between atoms: C1_2  and  O1_3 
REMARK    3  A    between atoms: N2_8  and  C6_9 
ROOT
HETATM    1  C6  UNL     1      26.111   0.060  53.910  1.00  0.00     0.374 C 
HETATM    2  C7  UNL     1      25.133   0.980  53.459  1.00  0.00     0.091 C 
HETATM    3  C8  UNL     1      24.048   1.445  52.900  1.00  0.00    -0.048 A 
HETATM    4  C9  UNL     1      23.867   2.882  52.946  1.00  0.00     0.009 A 
HETATM    5  C10 UNL     1      22.713   3.272  52.458  1.00  0.00     0.021 A 
HETATM    6  C11 UNL     1      22.037   2.051  52.044  1.00  0.00     0.022 A 
HETATM    7  C12 UNL     1      22.812   1.038  52.295  1.00  0.00     0.027 A 
HETATM    8  S1  UNL     1      20.631   1.140  51.401  1.00  0.00    -0.015 SA
HETATM    9  N3  UNL     1      20.419  -0.398  52.325  1.00  0.00    -0.337 N 
HETATM   10  C13 UNL     1      20.785  -0.855  53.634  1.00  0.00     0.092 C 
HETATM   11  C14 UNL     1      21.673  -1.109  54.589  1.00  0.00    -0.001 C 
HETATM   12  C15 UNL     1      22.931  -1.235  55.334  1.00  0.00     0.051 C 
HETATM   13  C16 UNL     1      24.265  -1.013  55.216  1.00  0.00     0.162 C 
HETATM   14  O2  UNL     1      25.597  -0.749  54.991  1.00  0.00    -0.348 OA
HETATM   15  H17 UNL     1      19.920  -1.070  51.709  1.00  0.00     0.173 HD
ENDROOT
BRANCH   1  16
HETATM   16  N2  UNL     1      27.285   0.681  54.522  1.00  0.00     0.184 N 
HETATM   17  C1  UNL     1      27.951   1.606  53.661  1.00  0.00     0.456 C 
HETATM   18  C2  UNL     1      29.440   1.325  53.704  1.00  0.00     0.107 C 
HETATM   19  C3  UNL     1      29.801  -0.023  53.122  1.00  0.00     0.009 C 
HETATM   20  C4  UNL     1      28.929  -1.031  53.807  1.00  0.00     0.031 C 
HETATM   21  C5  UNL     1      28.123  -0.422  54.919  1.00  0.00     0.282 C 
BRANCH  17  22
HETATM   22  N1  UNL     1      27.552   1.453  52.269  1.00  0.00     0.145 N 
HETATM   23  H1  UNL     1      26.686   1.932  52.029  1.00  0.00     0.319 HD
HETATM   24  H2  UNL     1      28.341   1.571  51.628  1.00  0.00     0.319 HD
ENDBRANCH  17  22
BRANCH  17  25
HETATM   25  O1  UNL     1      27.856   2.935  54.072  1.00  0.00    -0.340 OA
HETATM   26  H3  UNL     1      26.878   3.163  53.950  1.00  0.00     0.214 HD
ENDBRANCH  17  25
ENDBRANCH   1  16
TORSDOF 3
ENDMDL
MODEL 2
REMARK VINA RESULT:      -8.1      1.432      1.743
REMARK  3 active torsions:
REMARK  status: ('A' for Active; 'I' for Inactive)
REMARK    1  A    between atoms: N1_1  and  C1_2 
REMARK    2  A    between atoms: C1_2  and  O1_3 
REMARK    3  A    between atoms: N2_8  and  C6_9 
ROOT
HETATM    1  C6  UNL     1      25.322   0.745  53.013  1.00  0.00     0.374 C 
HETATM    2  C7  UNL     1      24.523   1.887  52.763  1.00  0.00     0.091 C 
HETATM    3  C8  UNL     1      23.617   2.659  52.224  1.00  0.00    -0.048 A 
HETATM    4  C9  UNL     1      23.512   3.999  52.766  1.00  0.00     0.009 A 
HETATM    5  C10 UNL     1      22.519   4.686  52.250  1.00  0.00     0.021 A 
HETATM    6  C11 UNL     1      21.886   3.790  51.294  1.00  0.00     0.022 A 
HETATM    7  C12 UNL     1      22.527   2.660  51.290  1.00  0.00     0.027 A 
HETATM    8  S1  UNL     1      20.611   3.360  50.107  1.00  0.00    -0.015 SA
HETATM    9  N3  UNL     1      20.111   1.639  50.335  1.00  0.00    -0.337 N 
HETATM   10  C13 UNL     1      20.150   0.707  51.424  1.00  0.00     0.092 C 
HETATM   11  C14 UNL     1      20.786   0.017  52.364  1.00  0.00    -0.001 C 
HETATM   12  C15 UNL     1      21.838  -0.530  53.231  1.00  0.00     0.051 C 
HETATM   13  C16 UNL     1      23.174  -0.461  53.456  1.00  0.00     0.162 C 
HETATM   14  O2  UNL     1      24.535  -0.315  53.599  1.00  0.00    -0.348 OA
HETATM   15  H17 UNL     1      19.727   1.299  49.432  1.00  0.00     0.173 HD
ENDROOT
BRANCH   1  16
HETATM   16  N2  UNL     1      26.363   0.948  54.021  1.00  0.00     0.184 N 
HETATM   17  C1  UNL     1      27.446   1.760  53.562  1.00  0.00     0.456 C 
HETATM   18  C2  UNL     1      28.751   1.086  53.938  1.00  0.00     0.107 C 
HETATM   19  C3  UNL     1      28.963  -0.227  53.219  1.00  0.00     0.009 C 
HETATM   20  C4  UNL     1      27.725  -1.041  53.441  1.00  0.00     0.031 C 
HETATM   21  C5  UNL     1      26.776  -0.379  54.400  1.00  0.00     0.282 C 
BRANCH  17  22
HETATM   22  N1  UNL     1      27.464   1.891  52.111  1.00  0.00     0.145 N 
HETATM   23  H1  UNL     1      26.638   2.344  51.724  1.00  0.00     0.319 HD
HETATM   24  H2  UNL     1      28.372   2.209  51.766  1.00  0.00     0.319 HD
ENDBRANCH  17  22
BRANCH  17  25
HETATM   25  O1  UNL     1      27.528   3.004  54.184  1.00  0.00    -0.340 OA
HETATM   26  H3  UNL     1      27.362   3.667  53.438  1.00  0.00     0.214 HD
ENDBRANCH  17  25
ENDBRANCH   1  16
TORSDOF 3
ENDMDL
MODEL 3
REMARK VINA RESULT:      -8.0      3.779      6.222
REMARK  3 active torsions:
REMARK  status: ('A' for Active; 'I' for Inactive)
REMARK    1  A    between atoms: N1_1  and  C1_2 
REMARK    2  A    between atoms: C1_2  and  O1_3 
REMARK    3  A    between atoms: N2_8  and  C6_9 
ROOT
HETATM    1  C6  UNL     1      23.479   4.362  51.288  1.00  0.00     0.374 C 
HETATM    2  C7  UNL     1      24.444   3.362  51.560  1.00  0.00     0.091 C 
HETATM    3  C8  UNL     1      25.030   2.340  52.127  1.00  0.00    -0.048 A 
HETATM    4  C9  UNL     1      26.313   1.952  51.578  1.00  0.00     0.009 A 
HETATM    5  C10 UNL     1      26.798   0.862  52.126  1.00  0.00     0.021 A 
HETATM    6  C11 UNL     1      25.810   0.453  53.113  1.00  0.00     0.022 A 
HETATM    7  C12 UNL     1      24.829   1.306  53.101  1.00  0.00     0.027 A 
HETATM    8  S1  UNL     1      25.153  -0.668  54.350  1.00  0.00    -0.015 SA
HETATM    9  N3  UNL     1      23.365  -0.824  54.154  1.00  0.00    -0.337 N 
HETATM   10  C13 UNL     1      22.442  -0.640  53.072  1.00  0.00     0.092 C 
HETATM   11  C14 UNL     1      21.877   0.087  52.114  1.00  0.00    -0.001 C 
HETATM   12  C15 UNL     1      21.537   1.194  51.213  1.00  0.00     0.051 C 
HETATM   13  C16 UNL     1      21.865   2.481  50.936  1.00  0.00     0.162 C 
HETATM   14  O2  UNL     1      22.275   3.780  50.741  1.00  0.00    -0.348 OA
HETATM   15  H17 UNL     1      22.969  -1.101  55.074  1.00  0.00     0.173 HD
ENDROOT
BRANCH   1  16
HETATM   16  N2  UNL     1      23.869   5.305  50.240  1.00  0.00     0.184 N 
HETATM   17  C1  UNL     1      24.550   6.457  50.739  1.00  0.00     0.456 C 
HETATM   18  C2  UNL     1      23.947   7.693  50.100  1.00  0.00     0.107 C 
HETATM   19  C3  UNL     1      22.510   7.925  50.509  1.00  0.00     0.009 C 
HETATM   20  C4  UNL     1      21.781   6.642  50.256  1.00  0.00     0.031 C 
HETATM   21  C5  UNL     1      22.642   5.628  49.557  1.00  0.00     0.282 C 
BRANCH  17  22
HETATM   22  N1  UNL     1      24.378   6.623  52.176  1.00  0.00     0.145 N 
HETATM   23  H1  UNL     1      24.641   5.806  52.724  1.00  0.00     0.319 HD
HETATM   24  H2  UNL     1      24.722   7.530  52.502  1.00  0.00     0.319 HD
ENDBRANCH  17  22
BRANCH  17  25
HETATM   25  O1  UNL     1      25.895   6.524  50.378  1.00  0.00    -0.340 OA
HETATM   26  H3  UNL     1      26.275   7.251  50.971  1.00  0.00     0.214 HD
ENDBRANCH  17  25
ENDBRANCH   1  16
TORSDOF 3
ENDMDL
MODEL 4
REMARK VINA RESULT:      -7.8      3.713      6.022
REMARK  3 active torsions:
REMARK  status: ('A' for Active; 'I' for Inactive)
REMARK    1  A    between atoms: N1_1  and  C1_2 
REMARK    2  A    between atoms: C1_2  and  O1_3 
REMARK    3  A    between atoms: N2_8  and  C6_9 
ROOT
HETATM    1  C6  UNL     1      22.328   3.958  51.328  1.00  0.00     0.374 C 
HETATM    2  C7  UNL     1      22.896   2.769  51.845  1.00  0.00     0.091 C 
HETATM    3  C8  UNL     1      23.037   1.681  52.556  1.00  0.00    -0.048 A 
HETATM    4  C9  UNL     1      24.259   0.932  52.346  1.00  0.00     0.009 A 
HETATM    5  C10 UNL     1      24.291  -0.198  53.014  1.00  0.00     0.021 A 
HETATM    6  C11 UNL     1      23.029  -0.256  53.735  1.00  0.00     0.022 A 
HETATM    7  C12 UNL     1      22.344   0.816  53.468  1.00  0.00     0.027 A 
HETATM    8  S1  UNL     1      21.826  -1.065  54.792  1.00  0.00    -0.015 SA
HETATM    9  N3  UNL     1      20.158  -0.771  54.166  1.00  0.00    -0.337 N 
HETATM   10  C13 UNL     1      19.595  -0.445  52.887  1.00  0.00     0.092 C 
HETATM   11  C14 UNL     1      19.486   0.322  51.808  1.00  0.00    -0.001 C 
HETATM   12  C15 UNL     1      19.675   1.402  50.832  1.00  0.00     0.051 C 
HETATM   13  C16 UNL     1      20.394   2.534  50.623  1.00  0.00     0.162 C 
HETATM   14  O2  UNL     1      21.173   3.663  50.512  1.00  0.00    -0.348 OA
HETATM   15  H17 UNL     1      19.499  -0.860  54.965  1.00  0.00     0.173 HD
ENDROOT
BRANCH   1  16
HETATM   16  N2  UNL     1      23.189   4.680  50.392  1.00  0.00     0.184 N 
HETATM   17  C1  UNL     1      24.208   5.447  51.036  1.00  0.00     0.456 C 
HETATM   18  C2  UNL     1      24.236   6.832  50.420  1.00  0.00     0.107 C 
HETATM   19  C3  UNL     1      22.975   7.621  50.690  1.00  0.00     0.009 C 
HETATM   20  C4  UNL     1      21.829   6.749  50.277  1.00  0.00     0.031 C 
HETATM   21  C5  UNL     1      22.290   5.485  49.606  1.00  0.00     0.282 C 
BRANCH  17  22
HETATM   22  N1  UNL     1      23.942   5.642  52.455  1.00  0.00     0.145 N 
HETATM   23  H1  UNL     1      24.740   5.453  53.058  1.00  0.00     0.319 HD
HETATM   24  H2  UNL     1      23.420   6.504  52.632  1.00  0.00     0.319 HD
ENDBRANCH  17  22
BRANCH  17  25
HETATM   25  O1  UNL     1      25.500   4.968  50.825  1.00  0.00    -0.340 OA
HETATM   26  H3  UNL     1      25.370   4.156  50.235  1.00  0.00     0.214 HD
ENDBRANCH  17  25
ENDBRANCH   1  16
TORSDOF 3
ENDMDL
MODEL 5
REMARK VINA RESULT:      -7.8      1.813      2.455
REMARK  3 active torsions:
REMARK  status: ('A' for Active; 'I' for Inactive)
REMARK    1  A    between atoms: N1_1  and  C1_2 
REMARK    2  A    between atoms: C1_2  and  O1_3 
REMARK    3  A    between atoms: N2_8  and  C6_9 
ROOT
HETATM    1  C6  UNL     1      23.777   0.161  53.048  1.00  0.00     0.374 C 
HETATM    2  C7  UNL     1      22.827   1.154  52.705  1.00  0.00     0.091 C 
HETATM    3  C8  UNL     1      21.769   1.715  52.183  1.00  0.00    -0.048 A 
HETATM    4  C9  UNL     1      21.602   3.132  52.436  1.00  0.00     0.009 A 
HETATM    5  C10 UNL     1      20.472   3.608  51.970  1.00  0.00     0.021 A 
HETATM    6  C11 UNL     1      19.799   2.474  51.354  1.00  0.00     0.022 A 
HETATM    7  C12 UNL     1      20.553   1.422  51.478  1.00  0.00     0.027 A 
HETATM    8  S1  UNL     1      18.410   1.692  50.531  1.00  0.00    -0.015 SA
HETATM    9  N3  UNL     1      18.145   0.038  51.206  1.00  0.00    -0.337 N 
HETATM   10  C13 UNL     1      18.455  -0.615  52.445  1.00  0.00     0.092 C 
HETATM   11  C14 UNL     1      19.303  -1.023  53.383  1.00  0.00    -0.001 C 
HETATM   12  C15 UNL     1      20.531  -1.279  54.146  1.00  0.00     0.051 C 
HETATM   13  C16 UNL     1      21.870  -1.064  54.111  1.00  0.00     0.162 C 
HETATM   14  O2  UNL     1      23.212  -0.791  53.977  1.00  0.00    -0.348 OA
HETATM   15  H17 UNL     1      17.663  -0.527  50.479  1.00  0.00     0.173 HD
ENDROOT
BRANCH   1  16
HETATM   16  N2  UNL     1      24.933   0.664  53.789  1.00  0.00     0.184 N 
HETATM   17  C1  UNL     1      25.751   1.554  53.026  1.00  0.00     0.456 C 
HETATM   18  C2  UNL     1      27.202   1.148  53.198  1.00  0.00     0.107 C 
HETATM   19  C3  UNL     1      27.506  -0.209  52.606  1.00  0.00     0.009 C 
HETATM   20  C4  UNL     1      26.494  -1.159  53.170  1.00  0.00     0.031 C 
HETATM   21  C5  UNL     1      25.637  -0.515  54.223  1.00  0.00     0.282 C 
BRANCH  17  22
HETATM   22  N1  UNL     1      25.477   1.473  51.598  1.00  0.00     0.145 N 
HETATM   23  H1  UNL     1      25.780   2.289  51.069  1.00  0.00     0.319 HD
HETATM   24  H2  UNL     1      25.713   0.556  51.213  1.00  0.00     0.319 HD
ENDBRANCH  17  22
BRANCH  17  25
HETATM   25  O1  UNL     1      25.725   2.874  53.473  1.00  0.00    -0.340 OA
HETATM   26  H3  UNL     1      25.441   2.803  54.442  1.00  0.00     0.214 HD
ENDBRANCH  17  25
ENDBRANCH   1  16
TORSDOF 3
ENDMDL
MODEL 6
REMARK VINA RESULT:      -7.5      2.664      3.507
REMARK  3 active torsions:
REMARK  status: ('A' for Active; 'I' for Inactive)
REMARK    1  A    between atoms: N1_1  and  C1_2 
REMARK    2  A    between atoms: C1_2  and  O1_3 
REMARK    3  A    between atoms: N2_8  and  C6_9 
ROOT
HETATM    1  C6  UNL     1      24.636   0.929  52.099  1.00  0.00     0.374 C 
HETATM    2  C7  UNL     1      24.340   2.182  51.510  1.00  0.00     0.091 C 
HETATM    3  C8  UNL     1      23.932   3.064  50.636  1.00  0.00    -0.048 A 
HETATM    4  C9  UNL     1      24.060   4.455  51.022  1.00  0.00     0.009 A 
HETATM    5  C10 UNL     1      23.541   5.282  50.144  1.00  0.00     0.021 A 
HETATM    6  C11 UNL     1      23.016   4.437  49.081  1.00  0.00     0.022 A 
HETATM    7  C12 UNL     1      23.257   3.194  49.377  1.00  0.00     0.027 A 
HETATM    8  S1  UNL     1      22.129   4.164  47.546  1.00  0.00    -0.015 SA
HETATM    9  N3  UNL     1      21.094   2.690  47.686  1.00  0.00    -0.337 N 
HETATM   10  C13 UNL     1      20.497   1.968  48.772  1.00  0.00     0.092 C 
HETATM   11  C14 UNL     1      20.558   1.299  49.919  1.00  0.00    -0.001 C 
HETATM   12  C15 UNL     1      21.058   0.647  51.135  1.00  0.00     0.051 C 
HETATM   13  C16 UNL     1      22.205   0.405  51.819  1.00  0.00     0.162 C 
HETATM   14  O2  UNL     1      23.424   0.217  52.429  1.00  0.00    -0.348 OA
HETATM   15  H17 UNL     1      20.940   2.319  46.728  1.00  0.00     0.173 HD
ENDROOT
BRANCH   1  16
HETATM   16  N2  UNL     1      25.304   1.017  53.398  1.00  0.00     0.184 N 
HETATM   17  C1  UNL     1      26.590   1.637  53.333  1.00  0.00     0.456 C 
HETATM   18  C2  UNL     1      27.576   0.792  54.116  1.00  0.00     0.107 C 
HETATM   19  C3  UNL     1      27.806  -0.567  53.497  1.00  0.00     0.009 C 
HETATM   20  C4  UNL     1      26.454  -1.176  53.287  1.00  0.00     0.031 C 
HETATM   21  C5  UNL     1      25.356  -0.339  53.881  1.00  0.00     0.282 C 
BRANCH  17  22
HETATM   22  N1  UNL     1      27.106   1.702  51.973  1.00  0.00     0.145 N 
HETATM   23  H1  UNL     1      26.928   2.587  51.502  1.00  0.00     0.319 HD
HETATM   24  H2  UNL     1      28.053   1.321  51.903  1.00  0.00     0.319 HD
ENDBRANCH  17  22
BRANCH  17  25
HETATM   25  O1  UNL     1      26.654   2.881  53.959  1.00  0.00    -0.340 OA
HETATM   26  H3  UNL     1      26.755   2.659  54.941  1.00  0.00     0.214 HD
ENDBRANCH  17  25
ENDBRANCH   1  16
TORSDOF 3
ENDMDL
MODEL 7
REMARK VINA RESULT:      -7.5      4.915      7.061
REMARK  3 active torsions:
REMARK  status: ('A' for Active; 'I' for Inactive)
REMARK    1  A    between atoms: N1_1  and  C1_2 
REMARK    2  A    between atoms: C1_2  and  O1_3 
REMARK    3  A    between atoms: N2_8  and  C6_9 
ROOT
HETATM    1  C6  UNL     1      24.587   5.612  49.346  1.00  0.00     0.374 C 
HETATM    2  C7  UNL     1      25.158   4.489  49.992  1.00  0.00     0.091 C 
HETATM    3  C8  UNL     1      25.267   3.433  50.754  1.00  0.00    -0.048 A 
HETATM    4  C9  UNL     1      26.566   2.791  50.778  1.00  0.00     0.009 A 
HETATM    5  C10 UNL     1      26.579   1.683  51.481  1.00  0.00     0.021 A 
HETATM    6  C11 UNL     1      25.222   1.528  51.983  1.00  0.00     0.022 A 
HETATM    7  C12 UNL     1      24.505   2.530  51.568  1.00  0.00     0.027 A 
HETATM    8  S1  UNL     1      23.930   0.638  52.853  1.00  0.00    -0.015 SA
HETATM    9  N3  UNL     1      22.373   0.770  51.948  1.00  0.00    -0.337 N 
HETATM   10  C13 UNL     1      22.009   1.018  50.582  1.00  0.00     0.092 C 
HETATM   11  C14 UNL     1      22.020   1.749  49.473  1.00  0.00    -0.001 C 
HETATM   12  C15 UNL     1      22.281   2.821  48.505  1.00  0.00     0.051 C 
HETATM   13  C16 UNL     1      22.927   4.008  48.379  1.00  0.00     0.162 C 
HETATM   14  O2  UNL     1      23.616   5.199  48.360  1.00  0.00    -0.348 OA
HETATM   15  H17 UNL     1      21.598   0.639  52.628  1.00  0.00     0.173 HD
ENDROOT
BRANCH   1  16
HETATM   16  N2  UNL     1      25.531   6.388  48.541  1.00  0.00     0.184 N 
HETATM   17  C1  UNL     1      26.457   7.143  49.326  1.00  0.00     0.456 C 
HETATM   18  C2  UNL     1      26.523   8.554  48.774  1.00  0.00     0.107 C 
HETATM   19  C3  UNL     1      25.223   9.310  48.934  1.00  0.00     0.009 C 
HETATM   20  C4  UNL     1      24.148   8.438  48.361  1.00  0.00     0.031 C 
HETATM   21  C5  UNL     1      24.707   7.212  47.694  1.00  0.00     0.282 C 
BRANCH  17  22
HETATM   22  N1  UNL     1      26.032   7.273  50.712  1.00  0.00     0.145 N 
HETATM   23  H1  UNL     1      26.765   7.590  51.344  1.00  0.00     0.319 HD
HETATM   24  H2  UNL     1      25.120   7.728  50.794  1.00  0.00     0.319 HD
ENDBRANCH  17  22
BRANCH  17  25
HETATM   25  O1  UNL     1      27.774   6.695  49.239  1.00  0.00    -0.340 OA
HETATM   26  H3  UNL     1      27.878   6.076  50.033  1.00  0.00     0.214 HD
ENDBRANCH  17  25
ENDBRANCH   1  16
TORSDOF 3
ENDMDL
MODEL 8
REMARK VINA RESULT:      -7.4      8.038      9.945
REMARK  3 active torsions:
REMARK  status: ('A' for Active; 'I' for Inactive)
REMARK    1  A    between atoms: N1_1  and  C1_2 
REMARK    2  A    between atoms: C1_2  and  O1_3 
REMARK    3  A    between atoms: N2_8  and  C6_9 
ROOT
HETATM    1  C6  UNL     1      30.224   7.210  47.792  1.00  0.00     0.374 C 
HETATM    2  C7  UNL     1      29.074   6.473  48.163  1.00  0.00     0.091 C 
HETATM    3  C8  UNL     1      27.845   6.210  48.522  1.00  0.00    -0.048 A 
HETATM    4  C9  UNL     1      27.520   4.811  48.717  1.00  0.00     0.009 A 
HETATM    5  C10 UNL     1      26.249   4.610  48.977  1.00  0.00     0.021 A 
HETATM    6  C11 UNL     1      25.639   5.931  48.965  1.00  0.00     0.022 A 
HETATM    7  C12 UNL     1      26.558   6.815  48.716  1.00  0.00     0.027 A 
HETATM    8  S1  UNL     1      24.235   7.046  49.055  1.00  0.00    -0.015 SA
HETATM    9  N3  UNL     1      24.409   8.355  47.823  1.00  0.00    -0.337 N 
HETATM   10  C13 UNL     1      25.109   8.493  46.578  1.00  0.00     0.092 C 
HETATM   11  C14 UNL     1      26.211   8.477  45.837  1.00  0.00    -0.001 C 
HETATM   12  C15 UNL     1      27.611   8.359  45.411  1.00  0.00     0.051 C 
HETATM   13  C16 UNL     1      28.851   8.086  45.891  1.00  0.00     0.162 C 
HETATM   14  O2  UNL     1      30.059   7.794  46.481  1.00  0.00    -0.348 OA
HETATM   15  H17 UNL     1      23.864   9.176  48.154  1.00  0.00     0.173 HD
ENDROOT
BRANCH   1  16
HETATM   16  N2  UNL     1      31.429   6.400  47.619  1.00  0.00     0.184 N 
HETATM   17  C1  UNL     1      32.053   6.040  48.853  1.00  0.00     0.456 C 
HETATM   18  C2  UNL     1      33.542   6.303  48.738  1.00  0.00     0.107 C 
HETATM   19  C3  UNL     1      33.870   7.771  48.590  1.00  0.00     0.009 C 
HETATM   20  C4  UNL     1      33.031   8.284  47.459  1.00  0.00     0.031 C 
HETATM   21  C5  UNL     1      32.283   7.183  46.763  1.00  0.00     0.282 C 
BRANCH  17  22
HETATM   22  N1  UNL     1      31.585   6.852  49.967  1.00  0.00     0.145 N 
HETATM   23  H1  UNL     1      31.552   6.358  50.857  1.00  0.00     0.319 HD
HETATM   24  H2  UNL     1      32.008   7.783  49.969  1.00  0.00     0.319 HD
ENDBRANCH  17  22
BRANCH  17  25
HETATM   25  O1  UNL     1      31.982   4.680  49.151  1.00  0.00    -0.340 OA
HETATM   26  H3  UNL     1      31.484   4.645  50.031  1.00  0.00     0.214 HD
ENDBRANCH  17  25
ENDBRANCH   1  16
TORSDOF 3
ENDMDL
MODEL 9
REMARK VINA RESULT:      -7.2      8.938     10.514
REMARK  3 active torsions:
REMARK  status: ('A' for Active; 'I' for Inactive)
REMARK    1  A    between atoms: N1_1  and  C1_2 
REMARK    2  A    between atoms: C1_2  and  O1_3 
REMARK    3  A    between atoms: N2_8  and  C6_9 
ROOT
HETATM    1  C6  UNL     1      31.448   5.744  47.548  1.00  0.00     0.374 C 
HETATM    2  C7  UNL     1      31.198   7.031  48.083  1.00  0.00     0.091 C 
HETATM    3  C8  UNL     1      30.648   8.203  48.260  1.00  0.00    -0.048 A 
HETATM    4  C9  UNL     1      31.220   9.028  49.306  1.00  0.00     0.009 A 
HETATM    5  C10 UNL     1      30.559  10.146  49.497  1.00  0.00     0.021 A 
HETATM    6  C11 UNL     1      29.463  10.116  48.541  1.00  0.00     0.022 A 
HETATM    7  C12 UNL     1      29.539   9.017  47.850  1.00  0.00     0.027 A 
HETATM    8  S1  UNL     1      27.964  10.772  47.804  1.00  0.00    -0.015 SA
HETATM    9  N3  UNL     1      26.807   9.428  47.460  1.00  0.00    -0.337 N 
HETATM   10  C13 UNL     1      26.600   8.108  47.981  1.00  0.00     0.092 C 
HETATM   11  C14 UNL     1      27.007   6.877  48.269  1.00  0.00    -0.001 C 
HETATM   12  C15 UNL     1      27.834   5.672  48.411  1.00  0.00     0.051 C 
HETATM   13  C16 UNL     1      29.084   5.204  48.167  1.00  0.00     0.162 C 
HETATM   14  O2  UNL     1      30.377   4.833  47.877  1.00  0.00    -0.348 OA
HETATM   15  H17 UNL     1      26.180   9.739  46.692  1.00  0.00     0.173 HD
ENDROOT
BRANCH   1  16
HETATM   16  N2  UNL     1      32.613   5.070  48.121  1.00  0.00     0.184 N 
HETATM   17  C1  UNL     1      33.857   5.637  47.706  1.00  0.00     0.456 C 
HETATM   18  C2  UNL     1      34.787   4.514  47.289  1.00  0.00     0.107 C 
HETATM   19  C3  UNL     1      34.305   3.778  46.059  1.00  0.00     0.009 C 
HETATM   20  C4  UNL     1      32.886   3.380  46.328  1.00  0.00     0.031 C 
HETATM   21  C5  UNL     1      32.467   3.689  47.738  1.00  0.00     0.282 C 
BRANCH  17  22
HETATM   22  N1  UNL     1      33.713   6.495  46.539  1.00  0.00     0.145 N 
HETATM   23  H1  UNL     1      34.349   7.291  46.526  1.00  0.00     0.319 HD
HETATM   24  H2  UNL     1      33.627   5.957  45.674  1.00  0.00     0.319 HD
ENDBRANCH  17  22
BRANCH  17  25
HETATM   25  O1  UNL     1      34.557   6.280  48.726  1.00  0.00    -0.340 OA
HETATM   26  H3  UNL     1      35.445   5.796  48.761  1.00  0.00     0.214 HD
ENDBRANCH  17  25
ENDBRANCH   1  16
TORSDOF 3
ENDMDL
