MODEL 1
REMARK VINA RESULT:      -9.1      0.000      0.000
REMARK  4 active torsions:
REMARK  status: ('A' for Active; 'I' for Inactive)
REMARK    1  A    between atoms: C3_3  and  C4_4 
REMARK    2  A    between atoms: N1_5  and  C5_6 
REMARK    3  A    between atoms: C5_6  and  N2_7 
REMARK    4  A    between atoms: N2_7  and  C6_8 
ROOT
HETATM    1  C6  UNL     1      23.809  -0.452  54.232  1.00  0.00     0.144 C 
HETATM    2  C7  UNL     1      22.881  -0.928  55.105  1.00  0.00     0.134 C 
HETATM    3  N3  UNL     1      21.646  -0.358  54.673  1.00  0.00    -0.396 N 
HETATM    4  C8  UNL     1      20.426   0.332  54.281  1.00  0.00     0.122 C 
HETATM    5  C9  UNL     1      19.657  -0.586  53.367  1.00  0.00     0.057 C 
HETATM    6  C10 UNL     1      18.937   0.014  52.204  1.00  0.00     0.179 C 
HETATM    7  F1  UNL     1      18.222  -0.883  51.526  1.00  0.00    -0.249 F 
HETATM    8  C11 UNL     1      19.907   0.622  51.172  1.00  0.00     0.048 C 
HETATM    9  C12 UNL     1      19.941   2.140  51.672  1.00  0.00    -0.019 C 
HETATM   10  C13 UNL     1      20.859   3.102  51.992  1.00  0.00    -0.004 C 
HETATM   11  C14 UNL     1      22.217   3.673  52.176  1.00  0.00    -0.003 C 
HETATM   12  C15 UNL     1      23.488   3.116  51.917  1.00  0.00    -0.008 C 
HETATM   13  C16 UNL     1      23.110   1.748  51.373  1.00  0.00     0.030 A 
HETATM   14  C17 UNL     1      22.417   2.447  50.443  1.00  0.00    -0.027 A 
HETATM   15  C18 UNL     1      21.777   1.339  50.950  1.00  0.00     0.035 A 
HETATM   16  C19 UNL     1      21.259   0.139  51.599  1.00  0.00    -0.021 A 
HETATM   17  C20 UNL     1      22.540   0.472  52.047  1.00  0.00     0.091 A 
HETATM   18  C21 UNL     1      23.717   1.054  52.251  1.00  0.00     0.010 A 
HETATM   19  N4  UNL     1      24.331   0.288  53.189  1.00  0.00    -0.345 N 
HETATM   20  H9  UNL     1      21.509  -1.355  54.368  1.00  0.00     0.159 HD
HETATM   21  H23 UNL     1      25.191   0.538  52.787  1.00  0.00     0.167 HD
ENDROOT
BRANCH   1  22
HETATM   22  N2  UNL     1      24.949  -1.171  54.806  1.00  0.00    -0.223 NA
BRANCH  22  23
HETATM   23  C5  UNL     1      26.040  -0.340  54.895  1.00  0.00     0.234 C 
BRANCH  23  24
HETATM   24  N1  UNL     1      26.917   0.804  55.020  1.00  0.00    -0.254 NA
HETATM   25  C4  UNL     1      27.902   0.771  54.152  1.00  0.00     0.117 C 
BRANCH  25  26
HETATM   26  C3  UNL     1      27.821  -0.404  53.338  1.00  0.00     0.015 C 
HETATM   27  C2  UNL     1      28.852  -1.248  53.181  1.00  0.00    -0.029 C 
HETATM   28  C1  UNL     1      30.203  -1.068  53.830  1.00  0.00     0.036 C 
ENDBRANCH  25  26
ENDBRANCH  23  24
ENDBRANCH  22  23
ENDBRANCH   1  22
TORSDOF 4
ENDMDL
MODEL 2
REMARK VINA RESULT:      -8.4      2.235      3.375
REMARK  4 active torsions:
REMARK  status: ('A' for Active; 'I' for Inactive)
REMARK    1  A    between atoms: C3_3  and  C4_4 
REMARK    2  A    between atoms: N1_5  and  C5_6 
REMARK    3  A    between atoms: C5_6  and  N2_7 
REMARK    4  A    between atoms: N2_7  and  C6_8 
ROOT
HETATM    1  C6  UNL     1      22.876   0.460  52.935  1.00  0.00     0.144 C 
HETATM    2  C7  UNL     1      21.948  -0.294  52.288  1.00  0.00     0.134 C 
HETATM    3  N3  UNL     1      21.496   0.526  51.211  1.00  0.00    -0.396 N 
HETATM    4  C8  UNL     1      20.972   1.430  50.197  1.00  0.00     0.122 C 
HETATM    5  C9  UNL     1      21.711   1.152  48.913  1.00  0.00     0.057 C 
HETATM    6  C10 UNL     1      22.064   2.309  48.037  1.00  0.00     0.179 C 
HETATM    7  F1  UNL     1      22.633   1.929  46.894  1.00  0.00    -0.249 F 
HETATM    8  C11 UNL     1      23.086   3.252  48.704  1.00  0.00     0.048 C 
HETATM    9  C12 UNL     1      22.099   4.320  49.366  1.00  0.00    -0.019 C 
HETATM   10  C13 UNL     1      21.881   4.911  50.580  1.00  0.00    -0.004 C 
HETATM   11  C14 UNL     1      22.131   5.191  52.017  1.00  0.00    -0.003 C 
HETATM   12  C15 UNL     1      23.142   4.717  52.880  1.00  0.00    -0.008 C 
HETATM   13  C16 UNL     1      23.946   3.833  51.942  1.00  0.00     0.030 A 
HETATM   14  C17 UNL     1      24.088   4.957  51.203  1.00  0.00    -0.027 A 
HETATM   15  C18 UNL     1      23.834   3.808  50.489  1.00  0.00     0.035 A 
HETATM   16  C19 UNL     1      23.560   2.498  49.907  1.00  0.00    -0.021 A 
HETATM   17  C20 UNL     1      23.660   2.449  51.301  1.00  0.00     0.091 A 
HETATM   18  C21 UNL     1      23.805   2.744  52.588  1.00  0.00     0.010 A 
HETATM   19  N4  UNL     1      23.648   1.564  53.241  1.00  0.00    -0.345 N 
HETATM   20  H9  UNL     1      22.074  -0.176  50.682  1.00  0.00     0.159 HD
HETATM   21  H23 UNL     1      24.262   1.898  53.930  1.00  0.00     0.167 HD
ENDROOT
BRANCH   1  22
HETATM   22  N2  UNL     1      23.231  -0.550  53.935  1.00  0.00    -0.223 NA
BRANCH  22  23
HETATM   23  C5  UNL     1      24.571  -0.475  54.231  1.00  0.00     0.234 C 
BRANCH  23  24
HETATM   24  N1  UNL     1      25.850  -0.387  54.903  1.00  0.00    -0.254 NA
HETATM   25  C4  UNL     1      26.856  -0.438  54.063  1.00  0.00     0.117 C 
BRANCH  25  26
HETATM   26  C3  UNL     1      26.387  -0.578  52.717  1.00  0.00     0.015 C 
HETATM   27  C2  UNL     1      26.543   0.382  51.792  1.00  0.00    -0.029 C 
HETATM   28  C1  UNL     1      27.220   1.706  52.049  1.00  0.00     0.036 C 
ENDBRANCH  25  26
ENDBRANCH  23  24
ENDBRANCH  22  23
ENDBRANCH   1  22
TORSDOF 4
ENDMDL
MODEL 3
REMARK VINA RESULT:      -8.2      2.460      4.131
REMARK  4 active torsions:
REMARK  status: ('A' for Active; 'I' for Inactive)
REMARK    1  A    between atoms: C3_3  and  C4_4 
REMARK    2  A    between atoms: N1_5  and  C5_6 
REMARK    3  A    between atoms: C5_6  and  N2_7 
REMARK    4  A    between atoms: N2_7  and  C6_8 
ROOT
HETATM    1  C6  UNL     1      25.932   2.337  51.554  1.00  0.00     0.144 C 
HETATM    2  C7  UNL     1      26.182   3.240  50.569  1.00  0.00     0.134 C 
HETATM    3  N3  UNL     1      24.895   3.653  50.115  1.00  0.00    -0.396 N 
HETATM    4  C8  UNL     1      23.571   3.963  49.595  1.00  0.00     0.122 C 
HETATM    5  C9  UNL     1      23.099   5.224  50.272  1.00  0.00     0.057 C 
HETATM    6  C10 UNL     1      21.657   5.329  50.644  1.00  0.00     0.179 C 
HETATM    7  F1  UNL     1      21.345   6.521  51.151  1.00  0.00    -0.249 F 
HETATM    8  C11 UNL     1      21.262   4.310  51.731  1.00  0.00     0.048 C 
HETATM    9  C12 UNL     1      20.727   3.112  50.819  1.00  0.00    -0.019 C 
HETATM   10  C13 UNL     1      20.907   1.764  50.674  1.00  0.00    -0.004 C 
HETATM   11  C14 UNL     1      21.479   0.430  50.990  1.00  0.00    -0.003 C 
HETATM   12  C15 UNL     1      22.370   0.034  52.010  1.00  0.00    -0.008 C 
HETATM   13  C16 UNL     1      22.596   1.349  52.738  1.00  0.00     0.030 A 
HETATM   14  C17 UNL     1      21.253   1.346  52.902  1.00  0.00    -0.027 A 
HETATM   15  C18 UNL     1      21.806   2.561  52.570  1.00  0.00     0.035 A 
HETATM   16  C19 UNL     1      22.566   3.756  52.216  1.00  0.00    -0.021 A 
HETATM   17  C20 UNL     1      23.383   2.633  52.365  1.00  0.00     0.091 A 
HETATM   18  C21 UNL     1      23.858   1.409  52.572  1.00  0.00     0.010 A 
HETATM   19  N4  UNL     1      25.198   1.513  52.386  1.00  0.00    -0.345 N 
HETATM   20  H9  UNL     1      25.193   4.514  50.640  1.00  0.00     0.159 HD
HETATM   21  H23 UNL     1      25.315   0.791  53.040  1.00  0.00     0.167 HD
ENDROOT
BRANCH   1  22
HETATM   22  N2  UNL     1      27.334   2.087  51.901  1.00  0.00    -0.223 NA
BRANCH  22  23
HETATM   23  C5  UNL     1      27.428   1.603  53.183  1.00  0.00     0.234 C 
BRANCH  23  24
HETATM   24  N1  UNL     1      27.183   0.946  54.449  1.00  0.00    -0.254 NA
HETATM   25  C4  UNL     1      28.234   0.285  54.876  1.00  0.00     0.117 C 
BRANCH  25  26
HETATM   26  C3  UNL     1      29.319   0.403  53.949  1.00  0.00     0.015 C 
HETATM   27  C2  UNL     1      29.789  -0.639  53.248  1.00  0.00    -0.029 C 
HETATM   28  C1  UNL     1      29.244  -2.044  53.347  1.00  0.00     0.036 C 
ENDBRANCH  25  26
ENDBRANCH  23  24
ENDBRANCH  22  23
ENDBRANCH   1  22
TORSDOF 4
ENDMDL
MODEL 4
REMARK VINA RESULT:      -8.2      3.234      5.971
REMARK  4 active torsions:
REMARK  status: ('A' for Active; 'I' for Inactive)
REMARK    1  A    between atoms: C3_3  and  C4_4 
REMARK    2  A    between atoms: N1_5  and  C5_6 
REMARK    3  A    between atoms: C5_6  and  N2_7 
REMARK    4  A    between atoms: N2_7  and  C6_8 
ROOT
HETATM    1  C6  UNL     1      22.771   3.577  52.411  1.00  0.00     0.144 C 
HETATM    2  C7  UNL     1      23.861   4.270  52.834  1.00  0.00     0.134 C 
HETATM    3  N3  UNL     1      24.691   3.297  53.466  1.00  0.00    -0.396 N 
HETATM    4  C8  UNL     1      25.457   2.306  54.206  1.00  0.00     0.122 C 
HETATM    5  C9  UNL     1      26.500   1.746  53.273  1.00  0.00     0.057 C 
HETATM    6  C10 UNL     1      26.814   0.288  53.357  1.00  0.00     0.179 C 
HETATM    7  F1  UNL     1      27.811  -0.068  52.549  1.00  0.00    -0.249 F 
HETATM    8  C11 UNL     1      25.618  -0.589  52.935  1.00  0.00     0.048 C 
HETATM    9  C12 UNL     1      24.947  -0.861  54.361  1.00  0.00    -0.019 C 
HETATM   10  C13 UNL     1      23.720  -0.778  54.956  1.00  0.00    -0.004 C 
HETATM   11  C14 UNL     1      22.261  -0.507  55.027  1.00  0.00    -0.003 C 
HETATM   12  C15 UNL     1      21.353  -0.111  54.021  1.00  0.00    -0.008 C 
HETATM   13  C16 UNL     1      22.265  -0.041  52.806  1.00  0.00     0.030 A 
HETATM   14  C17 UNL     1      22.524  -1.340  53.082  1.00  0.00    -0.027 A 
HETATM   15  C18 UNL     1      23.615  -0.582  52.723  1.00  0.00     0.035 A 
HETATM   16  C19 UNL     1      24.645   0.374  52.328  1.00  0.00    -0.021 A 
HETATM   17  C20 UNL     1      23.376   0.955  52.383  1.00  0.00     0.091 A 
HETATM   18  C21 UNL     1      22.077   1.189  52.535  1.00  0.00     0.010 A 
HETATM   19  N4  UNL     1      21.917   2.504  52.239  1.00  0.00    -0.345 N 
HETATM   20  H9  UNL     1      25.236   3.463  52.581  1.00  0.00     0.159 HD
HETATM   21  H23 UNL     1      21.014   2.292  51.919  1.00  0.00     0.167 HD
ENDROOT
BRANCH   1  22
HETATM   22  N2  UNL     1      22.098   4.712  51.773  1.00  0.00    -0.223 NA
BRANCH  22  23
HETATM   23  C5  UNL     1      22.839   5.167  50.709  1.00  0.00     0.234 C 
BRANCH  23  24
HETATM   24  N1  UNL     1      23.340   5.909  49.572  1.00  0.00    -0.254 NA
HETATM   25  C4  UNL     1      24.130   5.184  48.816  1.00  0.00     0.117 C 
BRANCH  25  26
HETATM   26  C3  UNL     1      24.272   3.863  49.350  1.00  0.00     0.015 C 
HETATM   27  C2  UNL     1      25.467   3.304  49.594  1.00  0.00    -0.029 C 
HETATM   28  C1  UNL     1      26.790   3.985  49.338  1.00  0.00     0.036 C 
ENDBRANCH  25  26
ENDBRANCH  23  24
ENDBRANCH  22  23
ENDBRANCH   1  22
TORSDOF 4
ENDMDL
MODEL 5
REMARK VINA RESULT:      -8.1      4.295      6.220
REMARK  4 active torsions:
REMARK  status: ('A' for Active; 'I' for Inactive)
REMARK    1  A    between atoms: C3_3  and  C4_4 
REMARK    2  A    between atoms: N1_5  and  C5_6 
REMARK    3  A    between atoms: C5_6  and  N2_7 
REMARK    4  A    between atoms: N2_7  and  C6_8 
ROOT
HETATM    1  C6  UNL     1      24.972   3.935  49.900  1.00  0.00     0.144 C 
HETATM    2  C7  UNL     1      23.822   3.708  49.211  1.00  0.00     0.134 C 
HETATM    3  N3  UNL     1      23.225   2.584  49.854  1.00  0.00    -0.396 N 
HETATM    4  C8  UNL     1      22.703   1.366  50.456  1.00  0.00     0.122 C 
HETATM    5  C9  UNL     1      21.691   1.769  51.498  1.00  0.00     0.057 C 
HETATM    6  C10 UNL     1      21.634   0.987  52.768  1.00  0.00     0.179 C 
HETATM    7  F1  UNL     1      20.644   1.380  53.568  1.00  0.00    -0.249 F 
HETATM    8  C11 UNL     1      22.919   1.145  53.607  1.00  0.00     0.048 C 
HETATM    9  C12 UNL     1      23.748  -0.125  53.102  1.00  0.00    -0.019 C 
HETATM   10  C13 UNL     1      24.992  -0.420  52.617  1.00  0.00    -0.004 C 
HETATM   11  C14 UNL     1      26.385  -0.132  52.190  1.00  0.00    -0.003 C 
HETATM   12  C15 UNL     1      27.122   1.072  52.219  1.00  0.00    -0.008 C 
HETATM   13  C16 UNL     1      26.109   2.028  52.828  1.00  0.00     0.030 A 
HETATM   14  C17 UNL     1      26.096   1.157  53.864  1.00  0.00    -0.027 A 
HETATM   15  C18 UNL     1      24.866   1.646  53.485  1.00  0.00     0.035 A 
HETATM   16  C19 UNL     1      23.660   2.266  52.946  1.00  0.00    -0.021 A 
HETATM   17  C20 UNL     1      24.814   2.678  52.274  1.00  0.00     0.091 A 
HETATM   18  C21 UNL     1      26.064   2.852  51.858  1.00  0.00     0.010 A 
HETATM   19  N4  UNL     1      25.975   3.732  50.829  1.00  0.00    -0.345 N 
HETATM   20  H9  UNL     1      22.585   3.351  50.184  1.00  0.00     0.159 HD
HETATM   21  H23 UNL     1      26.869   4.058  51.069  1.00  0.00     0.167 HD
ENDROOT
BRANCH   1  22
HETATM   22  N2  UNL     1      25.387   5.113  49.134  1.00  0.00    -0.223 NA
BRANCH  22  23
HETATM   23  C5  UNL     1      26.746   5.096  48.932  1.00  0.00     0.234 C 
BRANCH  23  24
HETATM   24  N1  UNL     1      28.104   4.719  48.603  1.00  0.00    -0.254 NA
HETATM   25  C4  UNL     1      28.816   5.742  48.192  1.00  0.00     0.117 C 
BRANCH  25  26
HETATM   26  C3  UNL     1      28.028   6.937  48.180  1.00  0.00     0.015 C 
HETATM   27  C2  UNL     1      28.196   7.906  47.267  1.00  0.00    -0.029 C 
HETATM   28  C1  UNL     1      29.220   7.860  46.159  1.00  0.00     0.036 C 
ENDBRANCH  25  26
ENDBRANCH  23  24
ENDBRANCH  22  23
ENDBRANCH   1  22
TORSDOF 4
ENDMDL
MODEL 6
REMARK VINA RESULT:      -7.9      2.635      3.727
REMARK  4 active torsions:
REMARK  status: ('A' for Active; 'I' for Inactive)
REMARK    1  A    between atoms: C3_3  and  C4_4 
REMARK    2  A    between atoms: N1_5  and  C5_6 
REMARK    3  A    between atoms: C5_6  and  N2_7 
REMARK    4  A    between atoms: N2_7  and  C6_8 
ROOT
HETATM    1  C6  UNL     1      26.229   2.494  51.683  1.00  0.00     0.144 C 
HETATM    2  C7  UNL     1      25.528   1.534  52.345  1.00  0.00     0.134 C 
HETATM    3  N3  UNL     1      24.166   1.763  51.987  1.00  0.00    -0.396 N 
HETATM    4  C8  UNL     1      22.780   2.095  51.697  1.00  0.00     0.122 C 
HETATM    5  C9  UNL     1      22.340   1.244  50.533  1.00  0.00     0.057 C 
HETATM    6  C10 UNL     1      21.440   1.856  49.510  1.00  0.00     0.179 C 
HETATM    7  F1  UNL     1      21.050   0.982  48.584  1.00  0.00    -0.249 F 
HETATM    8  C11 UNL     1      22.134   2.991  48.730  1.00  0.00     0.048 C 
HETATM    9  C12 UNL     1      21.672   4.254  49.593  1.00  0.00    -0.019 C 
HETATM   10  C13 UNL     1      22.225   5.345  50.205  1.00  0.00    -0.004 C 
HETATM   11  C14 UNL     1      23.321   6.260  50.617  1.00  0.00    -0.003 C 
HETATM   12  C15 UNL     1      24.699   6.233  50.313  1.00  0.00    -0.008 C 
HETATM   13  C16 UNL     1      24.785   5.004  49.422  1.00  0.00     0.030 A 
HETATM   14  C17 UNL     1      23.883   5.654  48.651  1.00  0.00    -0.027 A 
HETATM   15  C18 UNL     1      23.655   4.308  48.821  1.00  0.00     0.035 A 
HETATM   16  C19 UNL     1      23.577   2.880  49.114  1.00  0.00    -0.021 A 
HETATM   17  C20 UNL     1      24.683   3.485  49.716  1.00  0.00     0.091 A 
HETATM   18  C21 UNL     1      25.605   4.344  50.138  1.00  0.00     0.010 A 
HETATM   19  N4  UNL     1      26.456   3.605  50.895  1.00  0.00    -0.345 N 
HETATM   20  H9  UNL     1      24.362   0.889  51.433  1.00  0.00     0.159 HD
HETATM   21  H23 UNL     1      27.176   4.215  50.627  1.00  0.00     0.167 HD
ENDROOT
BRANCH   1  22
HETATM   22  N2  UNL     1      27.554   2.062  52.136  1.00  0.00    -0.223 NA
BRANCH  22  23
HETATM   23  C5  UNL     1      27.444   1.303  53.276  1.00  0.00     0.234 C 
BRANCH  23  24
HETATM   24  N1  UNL     1      27.470   0.821  54.640  1.00  0.00    -0.254 NA
HETATM   25  C4  UNL     1      28.605   0.233  54.937  1.00  0.00     0.117 C 
BRANCH  25  26
HETATM   26  C3  UNL     1      29.487   0.234  53.808  1.00  0.00     0.015 C 
HETATM   27  C2  UNL     1      29.792  -0.881  53.127  1.00  0.00    -0.029 C 
HETATM   28  C1  UNL     1      29.255  -2.252  53.458  1.00  0.00     0.036 C 
ENDBRANCH  25  26
ENDBRANCH  23  24
ENDBRANCH  22  23
ENDBRANCH   1  22
TORSDOF 4
ENDMDL
MODEL 7
REMARK VINA RESULT:      -7.8     10.417     13.431
REMARK  4 active torsions:
REMARK  status: ('A' for Active; 'I' for Inactive)
REMARK    1  A    between atoms: C3_3  and  C4_4 
REMARK    2  A    between atoms: N1_5  and  C5_6 
REMARK    3  A    between atoms: C5_6  and  N2_7 
REMARK    4  A    between atoms: N2_7  and  C6_8 
ROOT
HETATM    1  C6  UNL     1      32.137   7.183  48.321  1.00  0.00     0.144 C 
HETATM    2  C7  UNL     1      32.583   8.304  47.695  1.00  0.00     0.134 C 
HETATM    3  N3  UNL     1      33.358   7.826  46.597  1.00  0.00    -0.396 N 
HETATM    4  C8  UNL     1      34.237   7.308  45.559  1.00  0.00     0.122 C 
HETATM    5  C9  UNL     1      33.439   7.229  44.283  1.00  0.00     0.057 C 
HETATM    6  C10 UNL     1      33.670   6.065  43.375  1.00  0.00     0.179 C 
HETATM    7  F1  UNL     1      32.975   6.154  42.243  1.00  0.00    -0.249 F 
HETATM    8  C11 UNL     1      33.232   4.733  44.016  1.00  0.00     0.048 C 
HETATM    9  C12 UNL     1      34.618   4.251  44.650  1.00  0.00    -0.019 C 
HETATM   10  C13 UNL     1      35.107   3.807  45.847  1.00  0.00    -0.004 C 
HETATM   11  C14 UNL     1      35.040   3.408  47.276  1.00  0.00    -0.003 C 
HETATM   12  C15 UNL     1      33.937   3.320  48.152  1.00  0.00    -0.008 C 
HETATM   13  C16 UNL     1      32.795   3.734  47.237  1.00  0.00     0.030 A 
HETATM   14  C17 UNL     1      33.200   2.697  46.468  1.00  0.00    -0.027 A 
HETATM   15  C18 UNL     1      32.864   3.844  45.786  1.00  0.00     0.035 A 
HETATM   16  C19 UNL     1      32.471   5.139  45.240  1.00  0.00    -0.021 A 
HETATM   17  C20 UNL     1      32.378   5.101  46.634  1.00  0.00     0.091 A 
HETATM   18  C21 UNL     1      32.408   4.742  47.912  1.00  0.00     0.010 A 
HETATM   19  N4  UNL     1      31.990   5.837  48.597  1.00  0.00    -0.345 N 
HETATM   20  H9  UNL     1      32.508   8.179  46.087  1.00  0.00     0.159 HD
HETATM   21  H23 UNL     1      31.619   5.235  49.277  1.00  0.00     0.167 HD
ENDROOT
BRANCH   1  22
HETATM   22  N2  UNL     1      31.355   7.876  49.348  1.00  0.00    -0.223 NA
BRANCH  22  23
HETATM   23  C5  UNL     1      30.047   8.002  48.947  1.00  0.00     0.234 C 
BRANCH  23  24
HETATM   24  N1  UNL     1      28.709   8.484  48.677  1.00  0.00    -0.254 NA
HETATM   25  C4  UNL     1      27.899   7.519  48.310  1.00  0.00     0.117 C 
BRANCH  25  26
HETATM   26  C3  UNL     1      28.588   6.264  48.276  1.00  0.00     0.015 C 
HETATM   27  C2  UNL     1      27.991   5.102  48.581  1.00  0.00    -0.029 C 
HETATM   28  C1  UNL     1      26.544   4.973  48.993  1.00  0.00     0.036 C 
ENDBRANCH  25  26
ENDBRANCH  23  24
ENDBRANCH  22  23
ENDBRANCH   1  22
TORSDOF 4
ENDMDL
MODEL 8
REMARK VINA RESULT:      -7.7      7.664      9.889
REMARK  4 active torsions:
REMARK  status: ('A' for Active; 'I' for Inactive)
REMARK    1  A    between atoms: C3_3  and  C4_4 
REMARK    2  A    between atoms: N1_5  and  C5_6 
REMARK    3  A    between atoms: C5_6  and  N2_7 
REMARK    4  A    between atoms: N2_7  and  C6_8 
ROOT
HETATM    1  C6  UNL     1      26.615   5.530  49.387  1.00  0.00     0.144 C 
HETATM    2  C7  UNL     1      25.851   6.480  49.990  1.00  0.00     0.134 C 
HETATM    3  N3  UNL     1      26.600   7.687  49.861  1.00  0.00    -0.396 N 
HETATM    4  C8  UNL     1      27.440   8.875  49.819  1.00  0.00     0.122 C 
HETATM    5  C9  UNL     1      27.028   9.682  48.614  1.00  0.00     0.057 C 
HETATM    6  C10 UNL     1      28.094  10.372  47.828  1.00  0.00     0.179 C 
HETATM    7  F1  UNL     1      27.600  11.123  46.845  1.00  0.00    -0.249 F 
HETATM    8  C11 UNL     1      29.044   9.373  47.136  1.00  0.00     0.048 C 
HETATM    9  C12 UNL     1      30.203   9.275  48.232  1.00  0.00    -0.019 C 
HETATM   10  C13 UNL     1      30.899   8.318  48.916  1.00  0.00    -0.004 C 
HETATM   11  C14 UNL     1      31.284   6.936  49.303  1.00  0.00    -0.003 C 
HETATM   12  C15 UNL     1      30.839   5.690  48.811  1.00  0.00    -0.008 C 
HETATM   13  C16 UNL     1      29.848   6.126  47.744  1.00  0.00     0.030 A 
HETATM   14  C17 UNL     1      30.902   6.785  47.210  1.00  0.00    -0.027 A 
HETATM   15  C18 UNL     1      29.711   7.474  47.209  1.00  0.00     0.035 A 
HETATM   16  C19 UNL     1      28.371   8.046  47.295  1.00  0.00    -0.021 A 
HETATM   17  C20 UNL     1      28.431   6.752  47.821  1.00  0.00     0.091 A 
HETATM   18  C21 UNL     1      28.822   5.552  48.234  1.00  0.00     0.010 A 
HETATM   19  N4  UNL     1      27.707   4.973  48.748  1.00  0.00    -0.345 N 
HETATM   20  H9  UNL     1      25.833   7.866  49.163  1.00  0.00     0.159 HD
HETATM   21  H23 UNL     1      28.069   4.103  48.476  1.00  0.00     0.167 HD
ENDROOT
BRANCH   1  22
HETATM   22  N2  UNL     1      25.675   4.423  49.582  1.00  0.00    -0.223 NA
BRANCH  22  23
HETATM   23  C5  UNL     1      26.250   3.440  50.352  1.00  0.00     0.234 C 
BRANCH  23  24
HETATM   24  N1  UNL     1      27.118   2.678  51.223  1.00  0.00    -0.254 NA
HETATM   25  C4  UNL     1      26.463   1.765  51.901  1.00  0.00     0.117 C 
BRANCH  25  26
HETATM   26  C3  UNL     1      25.067   1.800  51.581  1.00  0.00     0.015 C 
HETATM   27  C2  UNL     1      24.155   1.067  52.238  1.00  0.00    -0.029 C 
HETATM   28  C1  UNL     1      24.479   0.128  53.374  1.00  0.00     0.036 C 
ENDBRANCH  25  26
ENDBRANCH  23  24
ENDBRANCH  22  23
ENDBRANCH   1  22
TORSDOF 4
ENDMDL
MODEL 9
REMARK VINA RESULT:      -7.5      3.532      4.851
REMARK  4 active torsions:
REMARK  status: ('A' for Active; 'I' for Inactive)
REMARK    1  A    between atoms: C3_3  and  C4_4 
REMARK    2  A    between atoms: N1_5  and  C5_6 
REMARK    3  A    between atoms: C5_6  and  N2_7 
REMARK    4  A    between atoms: N2_7  and  C6_8 
ROOT
HETATM    1  C6  UNL     1      24.771   2.826  51.410  1.00  0.00     0.144 C 
HETATM    2  C7  UNL     1      23.773   2.702  52.325  1.00  0.00     0.134 C 
HETATM    3  N3  UNL     1      22.964   3.862  52.143  1.00  0.00    -0.396 N 
HETATM    4  C8  UNL     1      22.228   5.111  52.014  1.00  0.00     0.122 C 
HETATM    5  C9  UNL     1      21.061   4.861  51.094  1.00  0.00     0.057 C 
HETATM    6  C10 UNL     1      20.678   5.935  50.130  1.00  0.00     0.179 C 
HETATM    7  F1  UNL     1      19.581   5.633  49.437  1.00  0.00    -0.249 F 
HETATM    8  C11 UNL     1      21.770   6.181  49.070  1.00  0.00     0.048 C 
HETATM    9  C12 UNL     1      22.575   7.376  49.764  1.00  0.00    -0.019 C 
HETATM   10  C13 UNL     1      23.863   7.702  50.087  1.00  0.00    -0.004 C 
HETATM   11  C14 UNL     1      25.334   7.507  50.165  1.00  0.00    -0.003 C 
HETATM   12  C15 UNL     1      26.148   6.467  49.666  1.00  0.00    -0.008 C 
HETATM   13  C16 UNL     1      25.115   5.575  48.996  1.00  0.00     0.030 A 
HETATM   14  C17 UNL     1      24.816   6.677  48.271  1.00  0.00    -0.027 A 
HETATM   15  C18 UNL     1      23.736   5.941  48.702  1.00  0.00     0.035 A 
HETATM   16  C19 UNL     1      22.724   5.040  49.244  1.00  0.00    -0.021 A 
HETATM   17  C20 UNL     1      24.022   4.629  49.559  1.00  0.00     0.091 A 
HETATM   18  C21 UNL     1      25.341   4.526  49.683  1.00  0.00     0.010 A 
HETATM   19  N4  UNL     1      25.540   3.402  50.417  1.00  0.00    -0.345 N 
HETATM   20  H9  UNL     1      22.336   3.128  51.725  1.00  0.00     0.159 HD
HETATM   21  H23 UNL     1      26.390   3.278  49.942  1.00  0.00     0.167 HD
ENDROOT
BRANCH   1  22
HETATM   22  N2  UNL     1      25.432   1.556  51.723  1.00  0.00    -0.223 NA
BRANCH  22  23
HETATM   23  C5  UNL     1      26.737   1.778  52.093  1.00  0.00     0.234 C 
BRANCH  23  24
HETATM   24  N1  UNL     1      27.981   2.367  52.538  1.00  0.00    -0.254 NA
HETATM   25  C4  UNL     1      28.663   1.559  53.316  1.00  0.00     0.117 C 
BRANCH  25  26
HETATM   26  C3  UNL     1      27.961   0.324  53.504  1.00  0.00     0.015 C 
HETATM   27  C2  UNL     1      28.592  -0.848  53.673  1.00  0.00    -0.029 C 
HETATM   28  C1  UNL     1      30.092  -1.011  53.685  1.00  0.00     0.036 C 
ENDBRANCH  25  26
ENDBRANCH  23  24
ENDBRANCH  22  23
ENDBRANCH   1  22
TORSDOF 4
ENDMDL
