MODEL 1
REMARK VINA RESULT:      -8.1      0.000      0.000
REMARK  11 active torsions:
REMARK  status: ('A' for Active; 'I' for Inactive)
REMARK    1  A    between atoms: C2_2  and  C3_3 
REMARK    2  A    between atoms: C3_3  and  C4_4 
REMARK    3  A    between atoms: C4_4  and  C5_5 
REMARK    4  A    between atoms: C5_5  and  C6_6 
REMARK    5  A    between atoms: C6_6  and  C7_7 
REMARK    6  A    between atoms: C7_7  and  N1_8 
REMARK       I    between atoms: N1_8  and  C8_9 
REMARK    7  A    between atoms: C8_9  and  C9_11 
REMARK    8  A    between atoms: C9_11  and  C10_12 
REMARK    9  A    between atoms: C10_12  and  O2_13 
REMARK   10  A    between atoms: O2_13  and  C11_14 
REMARK   11  A    between atoms: C20_25  and  O5_26 
ROOT
HETATM    1  C11 UNL     1      25.005  -0.205  54.018  1.00  0.00     0.081 A 
HETATM    2  C12 UNL     1      25.251   1.241  54.205  1.00  0.00     0.050 A 
HETATM    3  C13 UNL     1      26.594   1.118  54.148  1.00  0.00    -0.017 A 
HETATM    4  C14 UNL     1      27.875   0.713  54.059  1.00  0.00     0.059 A 
HETATM    5  C15 UNL     1      29.118   1.202  54.105  1.00  0.00     0.187 A 
HETATM    6  O3  UNL     1      29.125   2.451  54.271  1.00  0.00    -0.287 OA
HETATM    7  C16 UNL     1      30.189   0.351  53.974  1.00  0.00     0.080 A 
HETATM    8  C17 UNL     1      29.852  -0.959  53.804  1.00  0.00     0.146 A 
HETATM    9  O4  UNL     1      28.612  -1.334  53.775  1.00  0.00    -0.321 OA
HETATM   10  C18 UNL     1      27.596  -0.609  53.890  1.00  0.00     0.101 A 
HETATM   11  C19 UNL     1      26.272  -0.640  53.918  1.00  0.00     0.039 A 
HETATM   12  C20 UNL     1      26.225  -1.684  52.783  1.00  0.00     0.162 C 
HETATM   13  C21 UNL     1      26.647  -0.753  51.564  1.00  0.00     0.035 C 
HETATM   14  C22 UNL     1      26.846   0.565  51.940  1.00  0.00     0.023 C 
HETATM   15  C23 UNL     1      27.119   2.015  52.058  1.00  0.00    -0.020 C 
HETATM   16  C24 UNL     1      26.970   2.423  53.404  1.00  0.00     0.009 C 
ENDROOT
BRANCH   1  17
HETATM   17  O2  UNL     1      23.825  -0.850  53.967  1.00  0.00    -0.350 OA
BRANCH  17  18
HETATM   18  C10 UNL     1      22.977  -1.176  54.985  1.00  0.00     0.185 C 
BRANCH  18  19
HETATM   19  C9  UNL     1      21.520  -1.088  54.689  1.00  0.00     0.129 C 
BRANCH  19  20
HETATM   20  C8  UNL     1      21.232  -0.190  53.541  1.00  0.00     0.219 C 
HETATM   21  N1  UNL     1      21.642  -0.277  52.194  1.00  0.00    -0.361 N 
HETATM   22  H16 UNL     1      22.242  -1.126  52.022  1.00  0.00     0.162 HD
HETATM   23  O1  UNL     1      20.504   0.709  54.081  1.00  0.00    -0.274 OA
BRANCH  21  24
HETATM   24  C7  UNL     1      21.100   0.856  51.416  1.00  0.00     0.122 C 
BRANCH  24  25
HETATM   25  C6  UNL     1      22.080   1.337  50.421  1.00  0.00     0.020 C 
BRANCH  25  26
HETATM   26  C5  UNL     1      23.388   1.742  50.940  1.00  0.00     0.002 C 
BRANCH  26  27
HETATM   27  C4  UNL     1      23.670   3.076  51.476  1.00  0.00     0.000 C 
BRANCH  27  28
HETATM   28  C3  UNL     1      24.270   4.134  50.646  1.00  0.00    -0.000 C 
BRANCH  28  29
HETATM   29  C2  UNL     1      25.214   3.537  49.594  1.00  0.00    -0.005 C 
HETATM   30  C1  UNL     1      26.312   4.541  49.307  1.00  0.00     0.005 C 
ENDBRANCH  28  29
ENDBRANCH  27  28
ENDBRANCH  26  27
ENDBRANCH  25  26
ENDBRANCH  24  25
ENDBRANCH  21  24
ENDBRANCH  19  20
ENDBRANCH  18  19
ENDBRANCH  17  18
ENDBRANCH   1  17
BRANCH  12  31
HETATM   31  O5  UNL     1      27.215  -2.588  52.905  1.00  0.00    -0.390 OA
HETATM   32  H25 UNL     1      27.470  -2.854  53.805  1.00  0.00     0.210 HD
ENDBRANCH  12  31
TORSDOF 11
ENDMDL
MODEL 2
REMARK VINA RESULT:      -7.4      2.082      4.712
REMARK  11 active torsions:
REMARK  status: ('A' for Active; 'I' for Inactive)
REMARK    1  A    between atoms: C2_2  and  C3_3 
REMARK    2  A    between atoms: C3_3  and  C4_4 
REMARK    3  A    between atoms: C4_4  and  C5_5 
REMARK    4  A    between atoms: C5_5  and  C6_6 
REMARK    5  A    between atoms: C6_6  and  C7_7 
REMARK    6  A    between atoms: C7_7  and  N1_8 
REMARK       I    between atoms: N1_8  and  C8_9 
REMARK    7  A    between atoms: C8_9  and  C9_11 
REMARK    8  A    between atoms: C9_11  and  C10_12 
REMARK    9  A    between atoms: C10_12  and  O2_13 
REMARK   10  A    between atoms: O2_13  and  C11_14 
REMARK   11  A    between atoms: C20_25  and  O5_26 
ROOT
HETATM    1  C11 UNL     1      26.424   1.858  51.609  1.00  0.00     0.081 A 
HETATM    2  C12 UNL     1      25.670   0.586  51.592  1.00  0.00     0.050 A 
HETATM    3  C13 UNL     1      26.657  -0.119  52.183  1.00  0.00    -0.017 A 
HETATM    4  C14 UNL     1      27.783  -0.569  52.768  1.00  0.00     0.059 A 
HETATM    5  C15 UNL     1      28.318  -1.696  53.248  1.00  0.00     0.187 A 
HETATM    6  O3  UNL     1      27.528  -2.671  53.145  1.00  0.00    -0.287 OA
HETATM    7  C16 UNL     1      29.590  -1.678  53.769  1.00  0.00     0.080 A 
HETATM    8  C17 UNL     1      30.195  -0.456  53.739  1.00  0.00     0.146 A 
HETATM    9  O4  UNL     1      29.589   0.580  53.250  1.00  0.00    -0.321 OA
HETATM   10  C18 UNL     1      28.437   0.626  52.761  1.00  0.00     0.101 A 
HETATM   11  C19 UNL     1      27.558   1.441  52.197  1.00  0.00     0.039 A 
HETATM   12  C20 UNL     1      27.916   2.579  53.177  1.00  0.00     0.162 C 
HETATM   13  C21 UNL     1      27.241   2.000  54.496  1.00  0.00     0.035 C 
HETATM   14  C22 UNL     1      26.593   0.795  54.282  1.00  0.00     0.023 C 
HETATM   15  C23 UNL     1      25.836  -0.475  54.339  1.00  0.00    -0.020 C 
HETATM   16  C24 UNL     1      25.831  -1.087  53.064  1.00  0.00     0.009 C 
ENDROOT
BRANCH   1  17
HETATM   17  O2  UNL     1      26.036   3.063  51.154  1.00  0.00    -0.350 OA
BRANCH  17  18
HETATM   18  C10 UNL     1      26.409   3.714  50.014  1.00  0.00     0.185 C 
BRANCH  18  19
HETATM   19  C9  UNL     1      25.405   4.640  49.420  1.00  0.00     0.129 C 
BRANCH  19  20
HETATM   20  C8  UNL     1      24.014   4.280  49.799  1.00  0.00     0.219 C 
HETATM   21  N1  UNL     1      23.420   4.163  51.073  1.00  0.00    -0.361 N 
HETATM   22  H16 UNL     1      24.106   4.373  51.845  1.00  0.00     0.162 HD
HETATM   23  O1  UNL     1      23.466   4.094  48.660  1.00  0.00    -0.274 OA
BRANCH  21  24
HETATM   24  C7  UNL     1      21.999   3.781  50.947  1.00  0.00     0.122 C 
BRANCH  24  25
HETATM   25  C6  UNL     1      21.738   2.477  51.589  1.00  0.00     0.020 C 
BRANCH  25  26
HETATM   26  C5  UNL     1      22.732   2.023  52.565  1.00  0.00     0.002 C 
BRANCH  26  27
HETATM   27  C4  UNL     1      22.588   0.802  53.362  1.00  0.00     0.000 C 
BRANCH  27  28
HETATM   28  C3  UNL     1      22.108  -0.459  52.771  1.00  0.00    -0.000 C 
BRANCH  28  29
HETATM   29  C2  UNL     1      21.511  -1.376  53.847  1.00  0.00    -0.005 C 
HETATM   30  C1  UNL     1      22.336  -1.237  55.110  1.00  0.00     0.005 C 
ENDBRANCH  28  29
ENDBRANCH  27  28
ENDBRANCH  26  27
ENDBRANCH  25  26
ENDBRANCH  24  25
ENDBRANCH  21  24
ENDBRANCH  19  20
ENDBRANCH  18  19
ENDBRANCH  17  18
ENDBRANCH   1  17
BRANCH  12  31
HETATM   31  O5  UNL     1      29.238   2.610  53.432  1.00  0.00    -0.390 OA
HETATM   32  H25 UNL     1      29.830   2.854  52.701  1.00  0.00     0.210 HD
ENDBRANCH  12  31
TORSDOF 11
ENDMDL
MODEL 3
REMARK VINA RESULT:      -7.3      2.493      6.562
REMARK  11 active torsions:
REMARK  status: ('A' for Active; 'I' for Inactive)
REMARK    1  A    between atoms: C2_2  and  C3_3 
REMARK    2  A    between atoms: C3_3  and  C4_4 
REMARK    3  A    between atoms: C4_4  and  C5_5 
REMARK    4  A    between atoms: C5_5  and  C6_6 
REMARK    5  A    between atoms: C6_6  and  C7_7 
REMARK    6  A    between atoms: C7_7  and  N1_8 
REMARK       I    between atoms: N1_8  and  C8_9 
REMARK    7  A    between atoms: C8_9  and  C9_11 
REMARK    8  A    between atoms: C9_11  and  C10_12 
REMARK    9  A    between atoms: C10_12  and  O2_13 
REMARK   10  A    between atoms: O2_13  and  C11_14 
REMARK   11  A    between atoms: C20_25  and  O5_26 
ROOT
HETATM    1  C11 UNL     1      25.450   2.105  51.678  1.00  0.00     0.081 A 
HETATM    2  C12 UNL     1      24.230   1.291  51.856  1.00  0.00     0.050 A 
HETATM    3  C13 UNL     1      23.393   2.343  51.731  1.00  0.00    -0.017 A 
HETATM    4  C14 UNL     1      22.804   3.543  51.576  1.00  0.00     0.059 A 
HETATM    5  C15 UNL     1      21.591   4.104  51.560  1.00  0.00     0.187 A 
HETATM    6  O3  UNL     1      20.678   3.253  51.729  1.00  0.00    -0.287 OA
HETATM    7  C16 UNL     1      21.471   5.460  51.372  1.00  0.00     0.080 A 
HETATM    8  C17 UNL     1      22.656   6.116  51.215  1.00  0.00     0.146 A 
HETATM    9  O4  UNL     1      23.784   5.479  51.248  1.00  0.00    -0.321 OA
HETATM   10  C18 UNL     1      23.958   4.250  51.416  1.00  0.00     0.101 A 
HETATM   11  C19 UNL     1      24.893   3.316  51.512  1.00  0.00     0.039 A 
HETATM   12  C20 UNL     1      25.717   3.960  50.377  1.00  0.00     0.162 C 
HETATM   13  C21 UNL     1      24.793   3.573  49.142  1.00  0.00     0.035 C 
HETATM   14  C22 UNL     1      23.691   2.821  49.511  1.00  0.00     0.023 C 
HETATM   15  C23 UNL     1      22.451   2.020  49.619  1.00  0.00    -0.020 C 
HETATM   16  C24 UNL     1      22.215   1.683  50.973  1.00  0.00     0.009 C 
ENDROOT
BRANCH   1  17
HETATM   17  O2  UNL     1      26.733   1.698  51.685  1.00  0.00    -0.350 OA
BRANCH  17  18
HETATM   18  C10 UNL     1      27.547   1.434  52.748  1.00  0.00     0.185 C 
BRANCH  18  19
HETATM   19  C9  UNL     1      27.550   0.032  53.251  1.00  0.00     0.129 C 
BRANCH  19  20
HETATM   20  C8  UNL     1      26.559  -0.176  54.339  1.00  0.00     0.219 C 
HETATM   21  N1  UNL     1      25.566  -1.167  54.489  1.00  0.00    -0.361 N 
HETATM   22  H16 UNL     1      25.565  -1.843  53.680  1.00  0.00     0.162 HD
HETATM   23  O1  UNL     1      26.828   0.789  55.132  1.00  0.00    -0.274 OA
BRANCH  21  24
HETATM   24  C7  UNL     1      24.820  -0.964  55.746  1.00  0.00     0.122 C 
BRANCH  24  25
HETATM   25  C6  UNL     1      23.405  -1.359  55.597  1.00  0.00     0.020 C 
BRANCH  25  26
HETATM   26  C5  UNL     1      22.746  -0.954  54.353  1.00  0.00     0.002 C 
BRANCH  26  27
HETATM   27  C4  UNL     1      21.323  -1.172  54.080  1.00  0.00     0.000 C 
BRANCH  27  28
HETATM   28  C3  UNL     1      20.425  -0.063  53.715  1.00  0.00    -0.000 C 
BRANCH  28  29
HETATM   29  C2  UNL     1      19.142  -0.591  53.057  1.00  0.00    -0.005 C 
HETATM   30  C1  UNL     1      18.960   0.111  51.727  1.00  0.00     0.005 C 
ENDBRANCH  28  29
ENDBRANCH  27  28
ENDBRANCH  26  27
ENDBRANCH  25  26
ENDBRANCH  24  25
ENDBRANCH  21  24
ENDBRANCH  19  20
ENDBRANCH  18  19
ENDBRANCH  17  18
ENDBRANCH   1  17
BRANCH  12  31
HETATM   31  O5  UNL     1      25.683   5.304  50.447  1.00  0.00    -0.390 OA
HETATM   32  H25 UNL     1      24.830   5.721  50.653  1.00  0.00     0.210 HD
ENDBRANCH  12  31
TORSDOF 11
ENDMDL
MODEL 4
REMARK VINA RESULT:      -7.2      1.763      2.538
REMARK  11 active torsions:
REMARK  status: ('A' for Active; 'I' for Inactive)
REMARK    1  A    between atoms: C2_2  and  C3_3 
REMARK    2  A    between atoms: C3_3  and  C4_4 
REMARK    3  A    between atoms: C4_4  and  C5_5 
REMARK    4  A    between atoms: C5_5  and  C6_6 
REMARK    5  A    between atoms: C6_6  and  C7_7 
REMARK    6  A    between atoms: C7_7  and  N1_8 
REMARK       I    between atoms: N1_8  and  C8_9 
REMARK    7  A    between atoms: C8_9  and  C9_11 
REMARK    8  A    between atoms: C9_11  and  C10_12 
REMARK    9  A    between atoms: C10_12  and  O2_13 
REMARK   10  A    between atoms: O2_13  and  C11_14 
REMARK   11  A    between atoms: C20_25  and  O5_26 
ROOT
HETATM    1  C11 UNL     1      24.055   1.333  53.449  1.00  0.00     0.081 A 
HETATM    2  C12 UNL     1      24.676   2.391  52.625  1.00  0.00     0.050 A 
HETATM    3  C13 UNL     1      25.930   2.110  53.037  1.00  0.00    -0.017 A 
HETATM    4  C14 UNL     1      27.050   1.627  53.608  1.00  0.00     0.059 A 
HETATM    5  C15 UNL     1      28.370   1.836  53.631  1.00  0.00     0.187 A 
HETATM    6  O3  UNL     1      28.709   2.777  52.867  1.00  0.00    -0.287 OA
HETATM    7  C16 UNL     1      29.168   1.053  54.431  1.00  0.00     0.080 A 
HETATM    8  C17 UNL     1      28.497   0.107  55.147  1.00  0.00     0.146 A 
HETATM    9  O4  UNL     1      27.209  -0.014  55.055  1.00  0.00    -0.321 OA
HETATM   10  C18 UNL     1      26.430   0.666  54.348  1.00  0.00     0.101 A 
HETATM   11  C19 UNL     1      25.153   0.824  54.031  1.00  0.00     0.039 A 
HETATM   12  C20 UNL     1      24.925  -0.702  54.001  1.00  0.00     0.162 C 
HETATM   13  C21 UNL     1      25.703  -1.050  52.658  1.00  0.00     0.035 C 
HETATM   14  C22 UNL     1      26.225   0.071  52.036  1.00  0.00     0.023 C 
HETATM   15  C23 UNL     1      26.880   1.078  51.171  1.00  0.00    -0.020 C 
HETATM   16  C24 UNL     1      26.724   2.367  51.733  1.00  0.00     0.009 C 
ENDROOT
BRANCH   1  17
HETATM   17  O2  UNL     1      22.752   1.011  53.550  1.00  0.00    -0.350 OA
BRANCH  17  18
HETATM   18  C10 UNL     1      21.850   0.750  52.560  1.00  0.00     0.185 C 
BRANCH  18  19
HETATM   19  C9  UNL     1      20.658   1.641  52.496  1.00  0.00     0.129 C 
BRANCH  19  20
HETATM   20  C8  UNL     1      20.960   2.938  51.837  1.00  0.00     0.219 C 
HETATM   21  N1  UNL     1      21.914   3.255  50.846  1.00  0.00    -0.361 N 
HETATM   22  H16 UNL     1      22.474   2.410  50.559  1.00  0.00     0.162 HD
HETATM   23  O1  UNL     1      20.126   3.724  52.400  1.00  0.00    -0.274 OA
BRANCH  21  24
HETATM   24  C7  UNL     1      21.840   4.688  50.499  1.00  0.00     0.122 C 
BRANCH  24  25
HETATM   25  C6  UNL     1      22.039   4.898  49.050  1.00  0.00     0.020 C 
BRANCH  25  26
HETATM   26  C5  UNL     1      23.396   5.249  48.625  1.00  0.00     0.002 C 
BRANCH  26  27
HETATM   27  C4  UNL     1      24.591   4.501  49.024  1.00  0.00     0.000 C 
BRANCH  27  28
HETATM   28  C3  UNL     1      25.763   5.168  49.615  1.00  0.00    -0.000 C 
BRANCH  28  29
HETATM   29  C2  UNL     1      27.063   4.651  48.985  1.00  0.00    -0.005 C 
HETATM   30  C1  UNL     1      27.805   5.825  48.378  1.00  0.00     0.005 C 
ENDBRANCH  28  29
ENDBRANCH  27  28
ENDBRANCH  26  27
ENDBRANCH  25  26
ENDBRANCH  24  25
ENDBRANCH  21  24
ENDBRANCH  19  20
ENDBRANCH  18  19
ENDBRANCH  17  18
ENDBRANCH   1  17
BRANCH  12  31
HETATM   31  O5  UNL     1      25.607  -1.321  54.984  1.00  0.00    -0.390 OA
HETATM   32  H25 UNL     1      25.212  -1.322  55.872  1.00  0.00     0.210 HD
ENDBRANCH  12  31
TORSDOF 11
ENDMDL
MODEL 5
REMARK VINA RESULT:      -6.9      2.465      5.787
REMARK  11 active torsions:
REMARK  status: ('A' for Active; 'I' for Inactive)
REMARK    1  A    between atoms: C2_2  and  C3_3 
REMARK    2  A    between atoms: C3_3  and  C4_4 
REMARK    3  A    between atoms: C4_4  and  C5_5 
REMARK    4  A    between atoms: C5_5  and  C6_6 
REMARK    5  A    between atoms: C6_6  and  C7_7 
REMARK    6  A    between atoms: C7_7  and  N1_8 
REMARK       I    between atoms: N1_8  and  C8_9 
REMARK    7  A    between atoms: C8_9  and  C9_11 
REMARK    8  A    between atoms: C9_11  and  C10_12 
REMARK    9  A    between atoms: C10_12  and  O2_13 
REMARK   10  A    between atoms: O2_13  and  C11_14 
REMARK   11  A    between atoms: C20_25  and  O5_26 
ROOT
HETATM    1  C11 UNL     1      21.832   2.358  51.217  1.00  0.00     0.081 A 
HETATM    2  C12 UNL     1      22.967   1.413  51.247  1.00  0.00     0.050 A 
HETATM    3  C13 UNL     1      23.855   2.314  50.779  1.00  0.00    -0.017 A 
HETATM    4  C14 UNL     1      24.511   3.390  50.305  1.00  0.00     0.059 A 
HETATM    5  C15 UNL     1      25.731   3.762  49.902  1.00  0.00     0.187 A 
HETATM    6  O3  UNL     1      26.563   2.822  50.000  1.00  0.00    -0.287 OA
HETATM    7  C16 UNL     1      25.938   5.045  49.455  1.00  0.00     0.080 A 
HETATM    8  C17 UNL     1      24.827   5.835  49.470  1.00  0.00     0.146 A 
HETATM    9  O4  UNL     1      23.685   5.378  49.880  1.00  0.00    -0.321 OA
HETATM   10  C18 UNL     1      23.434   4.223  50.296  1.00  0.00     0.101 A 
HETATM   11  C19 UNL     1      22.458   3.451  50.753  1.00  0.00     0.039 A 
HETATM   12  C20 UNL     1      21.873   4.608  51.591  1.00  0.00     0.162 C 
HETATM   13  C21 UNL     1      22.983   4.684  52.728  1.00  0.00     0.035 C 
HETATM   14  C22 UNL     1      23.971   3.727  52.578  1.00  0.00     0.023 C 
HETATM   15  C23 UNL     1      25.139   2.821  52.661  1.00  0.00    -0.020 C 
HETATM   16  C24 UNL     1      25.120   1.913  51.576  1.00  0.00     0.009 C 
ENDROOT
BRANCH   1  17
HETATM   17  O2  UNL     1      20.552   2.135  51.570  1.00  0.00    -0.350 OA
BRANCH  17  18
HETATM   18  C10 UNL     1      19.722   1.117  51.202  1.00  0.00     0.185 C 
BRANCH  18  19
HETATM   19  C9  UNL     1      18.909   0.498  52.286  1.00  0.00     0.129 C 
BRANCH  19  20
HETATM   20  C8  UNL     1      19.724  -0.378  53.169  1.00  0.00     0.219 C 
HETATM   21  N1  UNL     1      21.036  -0.207  53.660  1.00  0.00    -0.361 N 
HETATM   22  H16 UNL     1      21.464   0.695  53.323  1.00  0.00     0.162 HD
HETATM   23  O1  UNL     1      18.929  -1.354  53.383  1.00  0.00    -0.274 OA
BRANCH  21  24
HETATM   24  C7  UNL     1      21.421  -1.350  54.510  1.00  0.00     0.122 C 
BRANCH  24  25
HETATM   25  C6  UNL     1      22.771  -1.161  55.080  1.00  0.00     0.020 C 
BRANCH  25  26
HETATM   26  C5  UNL     1      23.780  -0.591  54.184  1.00  0.00     0.002 C 
BRANCH  26  27
HETATM   27  C4  UNL     1      25.211  -0.885  54.282  1.00  0.00     0.000 C 
BRANCH  27  28
HETATM   28  C3  UNL     1      26.167   0.089  54.837  1.00  0.00    -0.000 C 
BRANCH  28  29
HETATM   29  C2  UNL     1      27.544  -0.057  54.175  1.00  0.00    -0.005 C 
HETATM   30  C1  UNL     1      27.363  -0.734  52.832  1.00  0.00     0.005 C 
ENDBRANCH  28  29
ENDBRANCH  27  28
ENDBRANCH  26  27
ENDBRANCH  25  26
ENDBRANCH  24  25
ENDBRANCH  21  24
ENDBRANCH  19  20
ENDBRANCH  18  19
ENDBRANCH  17  18
ENDBRANCH   1  17
BRANCH  12  31
HETATM   31  O5  UNL     1      21.950   5.780  50.932  1.00  0.00    -0.390 OA
HETATM   32  H25 UNL     1      22.325   5.767  50.036  1.00  0.00     0.210 HD
ENDBRANCH  12  31
TORSDOF 11
ENDMDL
MODEL 6
REMARK VINA RESULT:      -6.7      2.741      6.322
REMARK  11 active torsions:
REMARK  status: ('A' for Active; 'I' for Inactive)
REMARK    1  A    between atoms: C2_2  and  C3_3 
REMARK    2  A    between atoms: C3_3  and  C4_4 
REMARK    3  A    between atoms: C4_4  and  C5_5 
REMARK    4  A    between atoms: C5_5  and  C6_6 
REMARK    5  A    between atoms: C6_6  and  C7_7 
REMARK    6  A    between atoms: C7_7  and  N1_8 
REMARK       I    between atoms: N1_8  and  C8_9 
REMARK    7  A    between atoms: C8_9  and  C9_11 
REMARK    8  A    between atoms: C9_11  and  C10_12 
REMARK    9  A    between atoms: C10_12  and  O2_13 
REMARK   10  A    between atoms: O2_13  and  C11_14 
REMARK   11  A    between atoms: C20_25  and  O5_26 
ROOT
HETATM    1  C11 UNL     1      24.381   2.810  51.986  1.00  0.00     0.081 A 
HETATM    2  C12 UNL     1      23.076   3.222  52.545  1.00  0.00     0.050 A 
HETATM    3  C13 UNL     1      23.058   4.401  51.888  1.00  0.00    -0.017 A 
HETATM    4  C14 UNL     1      23.298   5.489  51.132  1.00  0.00     0.059 A 
HETATM    5  C15 UNL     1      22.754   6.668  50.817  1.00  0.00     0.187 A 
HETATM    6  O3  UNL     1      21.645   6.841  51.389  1.00  0.00    -0.287 OA
HETATM    7  C16 UNL     1      23.413   7.515  49.958  1.00  0.00     0.080 A 
HETATM    8  C17 UNL     1      24.605   7.038  49.499  1.00  0.00     0.146 A 
HETATM    9  O4  UNL     1      25.049   5.877  49.867  1.00  0.00    -0.321 OA
HETATM   10  C18 UNL     1      24.497   5.064  50.645  1.00  0.00     0.101 A 
HETATM   11  C19 UNL     1      24.647   3.878  51.217  1.00  0.00     0.039 A 
HETATM   12  C20 UNL     1      25.230   3.275  49.921  1.00  0.00     0.162 C 
HETATM   13  C21 UNL     1      23.901   3.212  49.049  1.00  0.00     0.035 C 
HETATM   14  C22 UNL     1      22.785   3.652  49.741  1.00  0.00     0.023 C 
HETATM   15  C23 UNL     1      21.449   4.060  50.231  1.00  0.00    -0.020 C 
HETATM   16  C24 UNL     1      21.550   4.526  51.563  1.00  0.00     0.009 C 
ENDROOT
BRANCH   1  17
HETATM   17  O2  UNL     1      25.065   1.673  52.216  1.00  0.00    -0.350 OA
BRANCH  17  18
HETATM   18  C10 UNL     1      26.135   1.462  53.036  1.00  0.00     0.185 C 
BRANCH  18  19
HETATM   19  C9  UNL     1      26.333   0.069  53.523  1.00  0.00     0.129 C 
BRANCH  19  20
HETATM   20  C8  UNL     1      25.130  -0.462  54.214  1.00  0.00     0.219 C 
HETATM   21  N1  UNL     1      23.797  -0.574  53.765  1.00  0.00    -0.361 N 
HETATM   22  H16 UNL     1      23.686  -0.214  52.780  1.00  0.00     0.162 HD
HETATM   23  O1  UNL     1      25.604  -0.802  55.351  1.00  0.00    -0.274 OA
BRANCH  21  24
HETATM   24  C7  UNL     1      22.948  -1.171  54.814  1.00  0.00     0.122 C 
BRANCH  24  25
HETATM   25  C6  UNL     1      21.516  -1.054  54.472  1.00  0.00     0.020 C 
BRANCH  25  26
HETATM   26  C5  UNL     1      20.942   0.293  54.529  1.00  0.00     0.002 C 
BRANCH  26  27
HETATM   27  C4  UNL     1      20.326   0.962  53.381  1.00  0.00     0.000 C 
BRANCH  27  28
HETATM   28  C3  UNL     1      19.592   0.211  52.348  1.00  0.00    -0.000 C 
BRANCH  28  29
HETATM   29  C2  UNL     1      20.053   0.620  50.942  1.00  0.00    -0.005 C 
HETATM   30  C1  UNL     1      21.543   0.369  50.833  1.00  0.00     0.005 C 
ENDBRANCH  28  29
ENDBRANCH  27  28
ENDBRANCH  26  27
ENDBRANCH  25  26
ENDBRANCH  24  25
ENDBRANCH  21  24
ENDBRANCH  19  20
ENDBRANCH  18  19
ENDBRANCH  17  18
ENDBRANCH   1  17
BRANCH  12  31
HETATM   31  O5  UNL     1      26.034   4.152  49.290  1.00  0.00    -0.390 OA
HETATM   32  H25 UNL     1      25.653   5.011  49.041  1.00  0.00     0.210 HD
ENDBRANCH  12  31
TORSDOF 11
ENDMDL
MODEL 7
REMARK VINA RESULT:      -6.7      2.210      6.057
REMARK  11 active torsions:
REMARK  status: ('A' for Active; 'I' for Inactive)
REMARK    1  A    between atoms: C2_2  and  C3_3 
REMARK    2  A    between atoms: C3_3  and  C4_4 
REMARK    3  A    between atoms: C4_4  and  C5_5 
REMARK    4  A    between atoms: C5_5  and  C6_6 
REMARK    5  A    between atoms: C6_6  and  C7_7 
REMARK    6  A    between atoms: C7_7  and  N1_8 
REMARK       I    between atoms: N1_8  and  C8_9 
REMARK    7  A    between atoms: C8_9  and  C9_11 
REMARK    8  A    between atoms: C9_11  and  C10_12 
REMARK    9  A    between atoms: C10_12  and  O2_13 
REMARK   10  A    between atoms: O2_13  and  C11_14 
REMARK   11  A    between atoms: C20_25  and  O5_26 
ROOT
HETATM    1  C11 UNL     1      22.183   1.080  52.989  1.00  0.00     0.081 A 
HETATM    2  C12 UNL     1      23.260   2.090  52.921  1.00  0.00     0.050 A 
HETATM    3  C13 UNL     1      23.123   2.287  51.592  1.00  0.00    -0.017 A 
HETATM    4  C14 UNL     1      22.781   2.280  50.290  1.00  0.00     0.059 A 
HETATM    5  C15 UNL     1      23.120   2.851  49.130  1.00  0.00     0.187 A 
HETATM    6  O3  UNL     1      24.055   3.682  49.273  1.00  0.00    -0.287 OA
HETATM    7  C16 UNL     1      22.458   2.498  47.979  1.00  0.00     0.080 A 
HETATM    8  C17 UNL     1      21.483   1.561  48.152  1.00  0.00     0.146 A 
HETATM    9  O4  UNL     1      21.231   1.065  49.323  1.00  0.00    -0.321 OA
HETATM   10  C18 UNL     1      21.798   1.345  50.405  1.00  0.00     0.101 A 
HETATM   11  C19 UNL     1      21.813   1.055  51.698  1.00  0.00     0.039 A 
HETATM   12  C20 UNL     1      20.272   0.985  51.748  1.00  0.00     0.162 C 
HETATM   13  C21 UNL     1      19.943   2.535  51.618  1.00  0.00     0.035 C 
HETATM   14  C22 UNL     1      21.081   3.321  51.554  1.00  0.00     0.023 C 
HETATM   15  C23 UNL     1      22.107   4.385  51.469  1.00  0.00    -0.020 C 
HETATM   16  C24 UNL     1      23.398   3.807  51.497  1.00  0.00     0.009 C 
ENDROOT
BRANCH   1  17
HETATM   17  O2  UNL     1      21.738   0.407  54.066  1.00  0.00    -0.350 OA
BRANCH  17  18
HETATM   18  C10 UNL     1      22.047  -0.856  54.481  1.00  0.00     0.185 C 
BRANCH  18  19
HETATM   19  C9  UNL     1      23.219  -0.988  55.391  1.00  0.00     0.129 C 
BRANCH  19  20
HETATM   20  C8  UNL     1      24.501  -1.085  54.645  1.00  0.00     0.219 C 
HETATM   21  N1  UNL     1      24.752  -1.035  53.258  1.00  0.00    -0.361 N 
HETATM   22  H16 UNL     1      23.865  -0.907  52.704  1.00  0.00     0.162 HD
HETATM   23  O1  UNL     1      25.349  -1.232  55.590  1.00  0.00    -0.274 OA
BRANCH  21  24
HETATM   24  C7  UNL     1      26.198  -1.174  52.990  1.00  0.00     0.122 C 
BRANCH  24  25
HETATM   25  C6  UNL     1      26.654  -0.185  51.993  1.00  0.00     0.020 C 
BRANCH  25  26
HETATM   26  C5  UNL     1      26.485   1.225  52.352  1.00  0.00     0.002 C 
BRANCH  26  27
HETATM   27  C4  UNL     1      27.099   1.841  53.531  1.00  0.00     0.000 C 
BRANCH  27  28
HETATM   28  C3  UNL     1      28.478   2.358  53.507  1.00  0.00    -0.000 C 
BRANCH  28  29
HETATM   29  C2  UNL     1      29.439   1.388  54.209  1.00  0.00    -0.005 C 
HETATM   30  C1  UNL     1      28.625   0.444  55.071  1.00  0.00     0.005 C 
ENDBRANCH  28  29
ENDBRANCH  27  28
ENDBRANCH  26  27
ENDBRANCH  25  26
ENDBRANCH  24  25
ENDBRANCH  21  24
ENDBRANCH  19  20
ENDBRANCH  18  19
ENDBRANCH  17  18
ENDBRANCH   1  17
BRANCH  12  31
HETATM   31  O5  UNL     1      19.770   0.415  50.635  1.00  0.00    -0.390 OA
HETATM   32  H25 UNL     1      19.767  -0.556  50.591  1.00  0.00     0.210 HD
ENDBRANCH  12  31
TORSDOF 11
ENDMDL
MODEL 8
REMARK VINA RESULT:      -6.7      2.723      6.367
REMARK  11 active torsions:
REMARK  status: ('A' for Active; 'I' for Inactive)
REMARK    1  A    between atoms: C2_2  and  C3_3 
REMARK    2  A    between atoms: C3_3  and  C4_4 
REMARK    3  A    between atoms: C4_4  and  C5_5 
REMARK    4  A    between atoms: C5_5  and  C6_6 
REMARK    5  A    between atoms: C6_6  and  C7_7 
REMARK    6  A    between atoms: C7_7  and  N1_8 
REMARK       I    between atoms: N1_8  and  C8_9 
REMARK    7  A    between atoms: C8_9  and  C9_11 
REMARK    8  A    between atoms: C9_11  and  C10_12 
REMARK    9  A    between atoms: C10_12  and  O2_13 
REMARK   10  A    between atoms: O2_13  and  C11_14 
REMARK   11  A    between atoms: C20_25  and  O5_26 
ROOT
HETATM    1  C11 UNL     1      22.064   3.387  49.777  1.00  0.00     0.081 A 
HETATM    2  C12 UNL     1      23.244   2.799  49.109  1.00  0.00     0.050 A 
HETATM    3  C13 UNL     1      24.025   3.879  49.324  1.00  0.00    -0.017 A 
HETATM    4  C14 UNL     1      24.565   5.064  49.664  1.00  0.00     0.059 A 
HETATM    5  C15 UNL     1      25.710   5.746  49.556  1.00  0.00     0.187 A 
HETATM    6  O3  UNL     1      26.597   5.082  48.957  1.00  0.00    -0.287 OA
HETATM    7  C16 UNL     1      25.797   7.015  50.076  1.00  0.00     0.080 A 
HETATM    8  C17 UNL     1      24.655   7.462  50.672  1.00  0.00     0.146 A 
HETATM    9  O4  UNL     1      23.592   6.721  50.723  1.00  0.00    -0.321 OA
HETATM   10  C18 UNL     1      23.451   5.562  50.269  1.00  0.00     0.101 A 
HETATM   11  C19 UNL     1      22.576   4.576  50.136  1.00  0.00     0.039 A 
HETATM   12  C20 UNL     1      22.029   4.808  51.561  1.00  0.00     0.162 C 
HETATM   13  C21 UNL     1      23.255   4.238  52.399  1.00  0.00     0.035 C 
HETATM   14  C22 UNL     1      24.269   3.743  51.597  1.00  0.00     0.023 C 
HETATM   15  C23 UNL     1      25.485   3.152  50.995  1.00  0.00    -0.020 C 
HETATM   16  C24 UNL     1      25.391   3.198  49.584  1.00  0.00     0.009 C 
ENDROOT
BRANCH   1  17
HETATM   17  O2  UNL     1      20.846   2.842  49.950  1.00  0.00    -0.350 OA
BRANCH  17  18
HETATM   18  C10 UNL     1      20.443   1.905  50.856  1.00  0.00     0.185 C 
BRANCH  18  19
HETATM   19  C9  UNL     1      21.128   0.583  50.794  1.00  0.00     0.129 C 
BRANCH  19  20
HETATM   20  C8  UNL     1      21.918   0.302  52.021  1.00  0.00     0.219 C 
HETATM   21  N1  UNL     1      23.309   0.374  52.244  1.00  0.00    -0.361 N 
HETATM   22  H16 UNL     1      23.828   0.679  51.379  1.00  0.00     0.162 HD
HETATM   23  O1  UNL     1      21.008  -0.033  52.853  1.00  0.00    -0.274 OA
BRANCH  21  24
HETATM   24  C7  UNL     1      23.628   0.001  53.636  1.00  0.00     0.122 C 
BRANCH  24  25
HETATM   25  C6  UNL     1      25.087  -0.005  53.867  1.00  0.00     0.020 C 
BRANCH  25  26
HETATM   26  C5  UNL     1      25.922  -0.407  52.732  1.00  0.00     0.002 C 
BRANCH  26  27
HETATM   27  C4  UNL     1      27.249   0.152  52.462  1.00  0.00     0.000 C 
BRANCH  27  28
HETATM   28  C3  UNL     1      28.019   0.857  53.500  1.00  0.00    -0.000 C 
BRANCH  28  29
HETATM   29  C2  UNL     1      28.784  -0.137  54.386  1.00  0.00    -0.005 C 
HETATM   30  C1  UNL     1      29.655  -1.001  53.497  1.00  0.00     0.005 C 
ENDBRANCH  28  29
ENDBRANCH  27  28
ENDBRANCH  26  27
ENDBRANCH  25  26
ENDBRANCH  24  25
ENDBRANCH  21  24
ENDBRANCH  19  20
ENDBRANCH  18  19
ENDBRANCH  17  18
ENDBRANCH   1  17
BRANCH  12  31
HETATM   31  O5  UNL     1      21.969   6.121  51.856  1.00  0.00    -0.390 OA
HETATM   32  H25 UNL     1      22.760   6.657  51.679  1.00  0.00     0.210 HD
ENDBRANCH  12  31
TORSDOF 11
ENDMDL
MODEL 9
REMARK VINA RESULT:      -6.6      3.056      5.409
REMARK  11 active torsions:
REMARK  status: ('A' for Active; 'I' for Inactive)
REMARK    1  A    between atoms: C2_2  and  C3_3 
REMARK    2  A    between atoms: C3_3  and  C4_4 
REMARK    3  A    between atoms: C4_4  and  C5_5 
REMARK    4  A    between atoms: C5_5  and  C6_6 
REMARK    5  A    between atoms: C6_6  and  C7_7 
REMARK    6  A    between atoms: C7_7  and  N1_8 
REMARK       I    between atoms: N1_8  and  C8_9 
REMARK    7  A    between atoms: C8_9  and  C9_11 
REMARK    8  A    between atoms: C9_11  and  C10_12 
REMARK    9  A    between atoms: C10_12  and  O2_13 
REMARK   10  A    between atoms: O2_13  and  C11_14 
REMARK   11  A    between atoms: C20_25  and  O5_26 
ROOT
HETATM    1  C11 UNL     1      20.527   2.963  52.338  1.00  0.00     0.081 A 
HETATM    2  C12 UNL     1      21.721   3.786  52.054  1.00  0.00     0.050 A 
HETATM    3  C13 UNL     1      22.592   2.822  52.423  1.00  0.00    -0.017 A 
HETATM    4  C14 UNL     1      23.219   1.709  52.847  1.00  0.00     0.059 A 
HETATM    5  C15 UNL     1      24.451   1.235  53.060  1.00  0.00     0.187 A 
HETATM    6  O3  UNL     1      25.336   2.080  52.762  1.00  0.00    -0.287 OA
HETATM    7  C16 UNL     1      24.615  -0.039  53.549  1.00  0.00     0.080 A 
HETATM    8  C17 UNL     1      23.451  -0.712  53.774  1.00  0.00     0.146 A 
HETATM    9  O4  UNL     1      22.301  -0.161  53.536  1.00  0.00    -0.321 OA
HETATM   10  C18 UNL     1      22.088   0.992  53.094  1.00  0.00     0.101 A 
HETATM   11  C19 UNL     1      21.122   1.836  52.760  1.00  0.00     0.039 A 
HETATM   12  C20 UNL     1      20.296   0.705  52.111  1.00  0.00     0.162 C 
HETATM   13  C21 UNL     1      21.177   0.462  50.809  1.00  0.00     0.035 C 
HETATM   14  C22 UNL     1      22.260   1.320  50.727  1.00  0.00     0.023 C 
HETATM   15  C23 UNL     1      23.473   2.097  50.387  1.00  0.00    -0.020 C 
HETATM   16  C24 UNL     1      23.728   3.054  51.397  1.00  0.00     0.009 C 
ENDROOT
BRANCH   1  17
HETATM   17  O2  UNL     1      19.231   3.297  52.195  1.00  0.00    -0.350 OA
BRANCH  17  18
HETATM   18  C10 UNL     1      18.618   3.948  51.164  1.00  0.00     0.185 C 
BRANCH  18  19
HETATM   19  C9  UNL     1      18.602   3.244  49.851  1.00  0.00     0.129 C 
BRANCH  19  20
HETATM   20  C8  UNL     1      19.619   3.784  48.912  1.00  0.00     0.219 C 
HETATM   21  N1  UNL     1      20.277   5.032  48.903  1.00  0.00    -0.361 N 
HETATM   22  H16 UNL     1      19.969   5.642  49.705  1.00  0.00     0.162 HD
HETATM   23  O1  UNL     1      19.759   2.819  48.087  1.00  0.00    -0.274 OA
BRANCH  21  24
HETATM   24  C7  UNL     1      21.215   5.112  47.765  1.00  0.00     0.122 C 
BRANCH  24  25
HETATM   25  C6  UNL     1      22.551   4.604  48.136  1.00  0.00     0.020 C 
BRANCH  25  26
HETATM   26  C5  UNL     1      23.626   5.596  48.208  1.00  0.00     0.002 C 
BRANCH  26  27
HETATM   27  C4  UNL     1      24.816   5.443  49.049  1.00  0.00     0.000 C 
BRANCH  27  28
HETATM   28  C3  UNL     1      26.082   6.124  48.732  1.00  0.00    -0.000 C 
BRANCH  28  29
HETATM   29  C2  UNL     1      27.245   5.123  48.679  1.00  0.00    -0.005 C 
HETATM   30  C1  UNL     1      26.837   3.873  49.431  1.00  0.00     0.005 C 
ENDBRANCH  28  29
ENDBRANCH  27  28
ENDBRANCH  26  27
ENDBRANCH  25  26
ENDBRANCH  24  25
ENDBRANCH  21  24
ENDBRANCH  19  20
ENDBRANCH  18  19
ENDBRANCH  17  18
ENDBRANCH   1  17
BRANCH  12  31
HETATM   31  O5  UNL     1      20.379  -0.435  52.822  1.00  0.00    -0.390 OA
HETATM   32  H25 UNL     1      20.995  -0.451  53.574  1.00  0.00     0.210 HD
ENDBRANCH  12  31
TORSDOF 11
ENDMDL
