MODEL 1
REMARK VINA RESULT:      -6.9      0.000      0.000
REMARK  8 active torsions:
REMARK  status: ('A' for Active; 'I' for Inactive)
REMARK    1  A    between atoms: C2_2  and  N3_13 
REMARK    2  A    between atoms: C3_3  and  C4_4 
REMARK    3  A    between atoms: C5_5  and  C6_6 
REMARK    4  A    between atoms: C8_8  and  C9_9 
REMARK       I    between atoms: N3_13  and  C11_14 
REMARK    5  A    between atoms: C11_14  and  C12_16 
REMARK    6  A    between atoms: C12_16  and  S1_17 
REMARK    7  A    between atoms: S1_17  and  O2_18 
REMARK    8  A    between atoms: O2_18  and  C13_19 
ROOT
HETATM    1  C9  UNL     1      27.056   0.600  52.466  1.00  0.00     0.183 C 
HETATM    2  C10 UNL     1      27.711  -0.540  53.066  1.00  0.00     0.065 C 
HETATM    3  N1  UNL     1      28.230  -1.464  53.533  1.00  0.00    -0.197 NA
ENDROOT
BRANCH   1   4
HETATM    4  C8  UNL     1      25.596   0.580  52.793  1.00  0.00     0.050 A 
HETATM    5  C7  UNL     1      24.832  -0.579  53.234  1.00  0.00     0.059 A 
HETATM    6  C6  UNL     1      23.787   0.241  53.273  1.00  0.00     0.059 A 
HETATM    7  N2  UNL     1      24.576   1.341  52.840  1.00  0.00    -0.253 NA
BRANCH   6   8
HETATM    8  C5  UNL     1      22.375   0.152  53.606  1.00  0.00     0.031 C 
HETATM    9  C4  UNL     1      21.360   0.154  52.762  1.00  0.00     0.004 C 
BRANCH   9  10
HETATM   10  C3  UNL     1      21.347   0.240  51.316  1.00  0.00     0.025 C 
HETATM   11  C2  UNL     1      21.720   1.216  50.486  1.00  0.00     0.008 C 
HETATM   12  C1  UNL     1      21.611   1.071  49.031  1.00  0.00     0.068 C 
BRANCH  11  13
HETATM   13  N3  UNL     1      22.237   2.426  51.032  1.00  0.00    -0.331 N 
HETATM   14  C11 UNL     1      21.379   3.543  51.219  1.00  0.00     0.233 C 
HETATM   15  O1  UNL     1      20.159   3.430  50.888  1.00  0.00    -0.272 OA
HETATM   16  H10 UNL     1      23.237   2.536  51.310  1.00  0.00     0.168 HD
BRANCH  14  17
HETATM   17  C12 UNL     1      21.813   4.839  51.775  1.00  0.00     0.208 C 
BRANCH  17  18
HETATM   18  S1  UNL     1      23.034   5.658  50.701  1.00  0.00     0.005 SA
BRANCH  18  19
HETATM   19  O2  UNL     1      23.971   4.483  49.829  1.00  0.00    -0.279 OA
BRANCH  19  20
HETATM   20  C13 UNL     1      25.218   4.871  49.358  1.00  0.00     0.084 A 
HETATM   21  C14 UNL     1      25.244   6.169  48.896  1.00  0.00     0.038 A 
HETATM   22  C15 UNL     1      26.419   6.732  48.382  1.00  0.00     0.003 A 
HETATM   23  C16 UNL     1      27.511   5.885  48.386  1.00  0.00     0.000 A 
HETATM   24  C17 UNL     1      27.525   4.595  48.833  1.00  0.00     0.003 A 
HETATM   25  C18 UNL     1      26.354   4.088  49.326  1.00  0.00     0.038 A 
ENDBRANCH  19  20
ENDBRANCH  18  19
ENDBRANCH  17  18
ENDBRANCH  14  17
ENDBRANCH  11  13
ENDBRANCH   9  10
ENDBRANCH   6   8
ENDBRANCH   1   4
TORSDOF 8
ENDMDL
MODEL 2
REMARK VINA RESULT:      -6.8      1.744      2.777
REMARK  8 active torsions:
REMARK  status: ('A' for Active; 'I' for Inactive)
REMARK    1  A    between atoms: C2_2  and  N3_13 
REMARK    2  A    between atoms: C3_3  and  C4_4 
REMARK    3  A    between atoms: C5_5  and  C6_6 
REMARK    4  A    between atoms: C8_8  and  C9_9 
REMARK       I    between atoms: N3_13  and  C11_14 
REMARK    5  A    between atoms: C11_14  and  C12_16 
REMARK    6  A    between atoms: C12_16  and  S1_17 
REMARK    7  A    between atoms: S1_17  and  O2_18 
REMARK    8  A    between atoms: O2_18  and  C13_19 
ROOT
HETATM    1  C9  UNL     1      29.207   0.223  54.085  1.00  0.00     0.183 C 
HETATM    2  C10 UNL     1      28.943  -1.104  53.575  1.00  0.00     0.065 C 
HETATM    3  N1  UNL     1      28.736  -2.161  53.149  1.00  0.00    -0.197 NA
ENDROOT
BRANCH   1   4
HETATM    4  C8  UNL     1      28.034   1.114  53.820  1.00  0.00     0.050 A 
HETATM    5  C7  UNL     1      26.900   0.805  52.959  1.00  0.00     0.059 A 
HETATM    6  C6  UNL     1      26.438   2.005  53.295  1.00  0.00     0.059 A 
HETATM    7  N2  UNL     1      27.566   2.258  54.123  1.00  0.00    -0.253 NA
BRANCH   6   8
HETATM    8  C5  UNL     1      25.273   2.820  52.995  1.00  0.00     0.031 C 
HETATM    9  C4  UNL     1      24.010   2.434  53.009  1.00  0.00     0.004 C 
BRANCH   9  10
HETATM   10  C3  UNL     1      23.432   1.141  53.312  1.00  0.00     0.025 C 
HETATM   11  C2  UNL     1      22.669   0.322  52.586  1.00  0.00     0.008 C 
HETATM   12  C1  UNL     1      22.195  -0.960  53.117  1.00  0.00     0.068 C 
BRANCH  11  13
HETATM   13  N3  UNL     1      22.309   0.708  51.262  1.00  0.00    -0.331 N 
HETATM   14  C11 UNL     1      21.201   1.571  51.051  1.00  0.00     0.233 C 
HETATM   15  O1  UNL     1      20.552   1.980  52.063  1.00  0.00    -0.272 OA
HETATM   16  H10 UNL     1      22.831   0.381  50.419  1.00  0.00     0.168 HD
BRANCH  14  17
HETATM   17  C12 UNL     1      20.746   2.028  49.724  1.00  0.00     0.208 C 
BRANCH  17  18
HETATM   18  S1  UNL     1      22.137   2.572  48.684  1.00  0.00     0.005 SA
BRANCH  18  19
HETATM   19  O2  UNL     1      23.613   2.605  49.601  1.00  0.00    -0.279 OA
BRANCH  19  20
HETATM   20  C13 UNL     1      24.504   3.641  49.355  1.00  0.00     0.084 A 
HETATM   21  C14 UNL     1      25.821   3.277  49.530  1.00  0.00     0.038 A 
HETATM   22  C15 UNL     1      26.860   4.194  49.327  1.00  0.00     0.003 A 
HETATM   23  C16 UNL     1      26.445   5.457  48.947  1.00  0.00     0.000 A 
HETATM   24  C17 UNL     1      25.153   5.856  48.764  1.00  0.00     0.003 A 
HETATM   25  C18 UNL     1      24.172   4.926  48.974  1.00  0.00     0.038 A 
ENDBRANCH  19  20
ENDBRANCH  18  19
ENDBRANCH  17  18
ENDBRANCH  14  17
ENDBRANCH  11  13
ENDBRANCH   9  10
ENDBRANCH   6   8
ENDBRANCH   1   4
TORSDOF 8
ENDMDL
MODEL 3
REMARK VINA RESULT:      -6.7      1.929      5.307
REMARK  8 active torsions:
REMARK  status: ('A' for Active; 'I' for Inactive)
REMARK    1  A    between atoms: C2_2  and  N3_13 
REMARK    2  A    between atoms: C3_3  and  C4_4 
REMARK    3  A    between atoms: C5_5  and  C6_6 
REMARK    4  A    between atoms: C8_8  and  C9_9 
REMARK       I    between atoms: N3_13  and  C11_14 
REMARK    5  A    between atoms: C11_14  and  C12_16 
REMARK    6  A    between atoms: C12_16  and  S1_17 
REMARK    7  A    between atoms: S1_17  and  O2_18 
REMARK    8  A    between atoms: O2_18  and  C13_19 
ROOT
HETATM    1  C9  UNL     1      27.181  -0.418  52.676  1.00  0.00     0.183 C 
HETATM    2  C10 UNL     1      27.974  -0.304  53.879  1.00  0.00     0.065 C 
HETATM    3  N1  UNL     1      28.596  -0.221  54.853  1.00  0.00    -0.197 NA
ENDROOT
BRANCH   1   4
HETATM    4  C8  UNL     1      26.114   0.630  52.667  1.00  0.00     0.050 A 
HETATM    5  C7  UNL     1      25.736   1.480  53.789  1.00  0.00     0.059 A 
HETATM    6  C6  UNL     1      24.842   2.013  52.964  1.00  0.00     0.059 A 
HETATM    7  N2  UNL     1      25.247   1.162  51.900  1.00  0.00    -0.253 NA
BRANCH   6   8
HETATM    8  C5  UNL     1      23.821   3.046  53.022  1.00  0.00     0.031 C 
HETATM    9  C4  UNL     1      23.742   4.127  52.268  1.00  0.00     0.004 C 
BRANCH   9  10
HETATM   10  C3  UNL     1      24.608   4.588  51.204  1.00  0.00     0.025 C 
HETATM   11  C2  UNL     1      24.765   4.169  49.946  1.00  0.00     0.008 C 
HETATM   12  C1  UNL     1      25.723   4.805  49.038  1.00  0.00     0.068 C 
BRANCH  11  13
HETATM   13  N3  UNL     1      23.978   3.076  49.481  1.00  0.00    -0.331 N 
HETATM   14  C11 UNL     1      22.826   3.318  48.687  1.00  0.00     0.233 C 
HETATM   15  O1  UNL     1      22.524   4.520  48.410  1.00  0.00    -0.272 OA
HETATM   16  H10 UNL     1      24.212   2.082  49.699  1.00  0.00     0.168 HD
BRANCH  14  17
HETATM   17  C12 UNL     1      21.945   2.259  48.157  1.00  0.00     0.208 C 
BRANCH  17  18
HETATM   18  S1  UNL     1      21.537   1.022  49.429  1.00  0.00     0.005 SA
BRANCH  18  19
HETATM   19  O2  UNL     1      21.152   1.796  50.937  1.00  0.00    -0.279 OA
BRANCH  19  20
HETATM   20  C13 UNL     1      21.211   1.028  52.091  1.00  0.00     0.084 A 
HETATM   21  C14 UNL     1      22.051  -0.058  51.978  1.00  0.00     0.038 A 
HETATM   22  C15 UNL     1      22.234  -0.947  53.045  1.00  0.00     0.003 A 
HETATM   23  C16 UNL     1      21.513  -0.636  54.182  1.00  0.00     0.000 A 
HETATM   24  C17 UNL     1      20.672   0.428  54.333  1.00  0.00     0.003 A 
HETATM   25  C18 UNL     1      20.524   1.270  53.264  1.00  0.00     0.038 A 
ENDBRANCH  19  20
ENDBRANCH  18  19
ENDBRANCH  17  18
ENDBRANCH  14  17
ENDBRANCH  11  13
ENDBRANCH   9  10
ENDBRANCH   6   8
ENDBRANCH   1   4
TORSDOF 8
ENDMDL
MODEL 4
REMARK VINA RESULT:      -6.7      1.719      4.631
REMARK  8 active torsions:
REMARK  status: ('A' for Active; 'I' for Inactive)
REMARK    1  A    between atoms: C2_2  and  N3_13 
REMARK    2  A    between atoms: C3_3  and  C4_4 
REMARK    3  A    between atoms: C5_5  and  C6_6 
REMARK    4  A    between atoms: C8_8  and  C9_9 
REMARK       I    between atoms: N3_13  and  C11_14 
REMARK    5  A    between atoms: C11_14  and  C12_16 
REMARK    6  A    between atoms: C12_16  and  S1_17 
REMARK    7  A    between atoms: S1_17  and  O2_18 
REMARK    8  A    between atoms: O2_18  and  C13_19 
ROOT
HETATM    1  C9  UNL     1      29.236  -0.210  53.790  1.00  0.00     0.183 C 
HETATM    2  C10 UNL     1      29.186  -1.636  53.562  1.00  0.00     0.065 C 
HETATM    3  N1  UNL     1      29.150  -2.777  53.362  1.00  0.00    -0.197 NA
ENDROOT
BRANCH   1   4
HETATM    4  C8  UNL     1      27.953   0.422  53.352  1.00  0.00     0.050 A 
HETATM    5  C7  UNL     1      27.105  -0.029  52.256  1.00  0.00     0.059 A 
HETATM    6  C6  UNL     1      26.314   0.991  52.572  1.00  0.00     0.059 A 
HETATM    7  N2  UNL     1      27.174   1.390  53.630  1.00  0.00    -0.253 NA
BRANCH   6   8
HETATM    8  C5  UNL     1      25.062   1.554  52.096  1.00  0.00     0.031 C 
HETATM    9  C4  UNL     1      24.904   2.410  51.102  1.00  0.00     0.004 C 
BRANCH   9  10
HETATM   10  C3  UNL     1      25.886   3.016  50.227  1.00  0.00     0.025 C 
HETATM   11  C2  UNL     1      26.068   4.282  49.847  1.00  0.00     0.008 C 
HETATM   12  C1  UNL     1      27.151   4.662  48.935  1.00  0.00     0.068 C 
BRANCH  11  13
HETATM   13  N3  UNL     1      25.185   5.285  50.342  1.00  0.00    -0.331 N 
HETATM   14  C11 UNL     1      24.012   5.620  49.614  1.00  0.00     0.233 C 
HETATM   15  O1  UNL     1      23.782   5.008  48.526  1.00  0.00    -0.272 OA
HETATM   16  H10 UNL     1      25.360   5.797  51.234  1.00  0.00     0.168 HD
BRANCH  14  17
HETATM   17  C12 UNL     1      23.036   6.642  50.038  1.00  0.00     0.208 C 
BRANCH  17  18
HETATM   18  S1  UNL     1      21.718   5.928  51.070  1.00  0.00     0.005 SA
BRANCH  18  19
HETATM   19  O2  UNL     1      20.872   4.679  50.208  1.00  0.00    -0.279 OA
BRANCH  19  20
HETATM   20  C13 UNL     1      21.095   3.363  50.591  1.00  0.00     0.084 A 
HETATM   21  C14 UNL     1      21.418   2.538  49.536  1.00  0.00     0.038 A 
HETATM   22  C15 UNL     1      21.676   1.176  49.734  1.00  0.00     0.003 A 
HETATM   23  C16 UNL     1      21.579   0.758  51.048  1.00  0.00     0.000 A 
HETATM   24  C17 UNL     1      21.263   1.543  52.119  1.00  0.00     0.003 A 
HETATM   25  C18 UNL     1      21.018   2.867  51.877  1.00  0.00     0.038 A 
ENDBRANCH  19  20
ENDBRANCH  18  19
ENDBRANCH  17  18
ENDBRANCH  14  17
ENDBRANCH  11  13
ENDBRANCH   9  10
ENDBRANCH   6   8
ENDBRANCH   1   4
TORSDOF 8
ENDMDL
MODEL 5
REMARK VINA RESULT:      -6.4      2.506      3.590
REMARK  8 active torsions:
REMARK  status: ('A' for Active; 'I' for Inactive)
REMARK    1  A    between atoms: C2_2  and  N3_13 
REMARK    2  A    between atoms: C3_3  and  C4_4 
REMARK    3  A    between atoms: C5_5  and  C6_6 
REMARK    4  A    between atoms: C8_8  and  C9_9 
REMARK       I    between atoms: N3_13  and  C11_14 
REMARK    5  A    between atoms: C11_14  and  C12_16 
REMARK    6  A    between atoms: C12_16  and  S1_17 
REMARK    7  A    between atoms: S1_17  and  O2_18 
REMARK    8  A    between atoms: O2_18  and  C13_19 
ROOT
HETATM    1  C9  UNL     1      28.806   0.737  54.631  1.00  0.00     0.183 C 
HETATM    2  C10 UNL     1      29.309  -0.506  54.090  1.00  0.00     0.065 C 
HETATM    3  N1  UNL     1      29.719  -1.492  53.643  1.00  0.00    -0.197 NA
ENDROOT
BRANCH   1   4
HETATM    4  C8  UNL     1      27.567   1.147  53.900  1.00  0.00     0.050 A 
HETATM    5  C7  UNL     1      27.205   0.763  52.542  1.00  0.00     0.059 A 
HETATM    6  C6  UNL     1      26.109   1.491  52.727  1.00  0.00     0.059 A 
HETATM    7  N2  UNL     1      26.507   1.837  54.047  1.00  0.00    -0.253 NA
BRANCH   6   8
HETATM    8  C5  UNL     1      24.928   1.852  51.962  1.00  0.00     0.031 C 
HETATM    9  C4  UNL     1      23.697   1.413  52.149  1.00  0.00     0.004 C 
BRANCH   9  10
HETATM   10  C3  UNL     1      23.176   0.483  53.130  1.00  0.00     0.025 C 
HETATM   11  C2  UNL     1      21.972   0.379  53.697  1.00  0.00     0.008 C 
HETATM   12  C1  UNL     1      21.675  -0.664  54.684  1.00  0.00     0.068 C 
BRANCH  11  13
HETATM   13  N3  UNL     1      20.955   1.308  53.332  1.00  0.00    -0.331 N 
HETATM   14  C11 UNL     1      20.083   1.016  52.250  1.00  0.00     0.233 C 
HETATM   15  O1  UNL     1      20.238  -0.080  51.627  1.00  0.00    -0.272 OA
HETATM   16  H10 UNL     1      20.814   2.213  53.833  1.00  0.00     0.168 HD
BRANCH  14  17
HETATM   17  C12 UNL     1      19.001   1.908  51.792  1.00  0.00     0.208 C 
BRANCH  17  18
HETATM   18  S1  UNL     1      19.543   2.980  50.424  1.00  0.00     0.005 SA
BRANCH  18  19
HETATM   19  O2  UNL     1      20.082   4.518  51.027  1.00  0.00    -0.279 OA
BRANCH  19  20
HETATM   20  C13 UNL     1      21.449   4.760  51.050  1.00  0.00     0.084 A 
HETATM   21  C14 UNL     1      22.024   4.749  49.797  1.00  0.00     0.038 A 
HETATM   22  C15 UNL     1      23.396   4.972  49.627  1.00  0.00     0.003 A 
HETATM   23  C16 UNL     1      24.090   5.199  50.800  1.00  0.00     0.000 A 
HETATM   24  C17 UNL     1      23.559   5.218  52.057  1.00  0.00     0.003 A 
HETATM   25  C18 UNL     1      22.214   4.993  52.175  1.00  0.00     0.038 A 
ENDBRANCH  19  20
ENDBRANCH  18  19
ENDBRANCH  17  18
ENDBRANCH  14  17
ENDBRANCH  11  13
ENDBRANCH   9  10
ENDBRANCH   6   8
ENDBRANCH   1   4
TORSDOF 8
ENDMDL
MODEL 6
REMARK VINA RESULT:      -6.4      2.117      5.398
REMARK  8 active torsions:
REMARK  status: ('A' for Active; 'I' for Inactive)
REMARK    1  A    between atoms: C2_2  and  N3_13 
REMARK    2  A    between atoms: C3_3  and  C4_4 
REMARK    3  A    between atoms: C5_5  and  C6_6 
REMARK    4  A    between atoms: C8_8  and  C9_9 
REMARK       I    between atoms: N3_13  and  C11_14 
REMARK    5  A    between atoms: C11_14  and  C12_16 
REMARK    6  A    between atoms: C12_16  and  S1_17 
REMARK    7  A    between atoms: S1_17  and  O2_18 
REMARK    8  A    between atoms: O2_18  and  C13_19 
ROOT
HETATM    1  C9  UNL     1      29.057  -0.003  54.324  1.00  0.00     0.183 C 
HETATM    2  C10 UNL     1      29.243  -1.345  53.820  1.00  0.00     0.065 C 
HETATM    3  N1  UNL     1      29.394  -2.413  53.400  1.00  0.00    -0.197 NA
ENDROOT
BRANCH   1   4
HETATM    4  C8  UNL     1      27.655   0.450  54.065  1.00  0.00     0.050 A 
HETATM    5  C7  UNL     1      26.575  -0.368  53.525  1.00  0.00     0.059 A 
HETATM    6  C6  UNL     1      25.822   0.721  53.633  1.00  0.00     0.059 A 
HETATM    7  N2  UNL     1      26.907   1.476  54.156  1.00  0.00    -0.253 NA
BRANCH   6   8
HETATM    8  C5  UNL     1      24.445   1.095  53.358  1.00  0.00     0.031 C 
HETATM    9  C4  UNL     1      24.017   1.902  52.405  1.00  0.00     0.004 C 
BRANCH   9  10
HETATM   10  C3  UNL     1      24.758   2.625  51.392  1.00  0.00     0.025 C 
HETATM   11  C2  UNL     1      24.360   3.485  50.452  1.00  0.00     0.008 C 
HETATM   12  C1  UNL     1      25.312   4.100  49.521  1.00  0.00     0.068 C 
BRANCH  11  13
HETATM   13  N3  UNL     1      22.976   3.809  50.354  1.00  0.00    -0.331 N 
HETATM   14  C11 UNL     1      22.136   3.076  49.473  1.00  0.00     0.233 C 
HETATM   15  O1  UNL     1      22.652   2.140  48.786  1.00  0.00    -0.272 OA
HETATM   16  H10 UNL     1      22.537   4.574  50.911  1.00  0.00     0.168 HD
BRANCH  14  17
HETATM   17  C12 UNL     1      20.694   3.331  49.297  1.00  0.00     0.208 C 
BRANCH  17  18
HETATM   18  S1  UNL     1      19.941   4.017  50.806  1.00  0.00     0.005 SA
BRANCH  18  19
HETATM   19  O2  UNL     1      20.501   3.164  52.213  1.00  0.00    -0.279 OA
BRANCH  19  20
HETATM   20  C13 UNL     1      20.009   1.884  52.431  1.00  0.00     0.084 A 
HETATM   21  C14 UNL     1      20.685   1.205  53.422  1.00  0.00     0.038 A 
HETATM   22  C15 UNL     1      20.328  -0.101  53.778  1.00  0.00     0.003 A 
HETATM   23  C16 UNL     1      19.267  -0.622  53.061  1.00  0.00     0.000 A 
HETATM   24  C17 UNL     1      18.573   0.017  52.075  1.00  0.00     0.003 A 
HETATM   25  C18 UNL     1      18.958   1.292  51.761  1.00  0.00     0.038 A 
ENDBRANCH  19  20
ENDBRANCH  18  19
ENDBRANCH  17  18
ENDBRANCH  14  17
ENDBRANCH  11  13
ENDBRANCH   9  10
ENDBRANCH   6   8
ENDBRANCH   1   4
TORSDOF 8
ENDMDL
MODEL 7
REMARK VINA RESULT:      -6.3      1.719      2.516
REMARK  8 active torsions:
REMARK  status: ('A' for Active; 'I' for Inactive)
REMARK    1  A    between atoms: C2_2  and  N3_13 
REMARK    2  A    between atoms: C3_3  and  C4_4 
REMARK    3  A    between atoms: C5_5  and  C6_6 
REMARK    4  A    between atoms: C8_8  and  C9_9 
REMARK       I    between atoms: N3_13  and  C11_14 
REMARK    5  A    between atoms: C11_14  and  C12_16 
REMARK    6  A    between atoms: C12_16  and  S1_17 
REMARK    7  A    between atoms: S1_17  and  O2_18 
REMARK    8  A    between atoms: O2_18  and  C13_19 
ROOT
HETATM    1  C9  UNL     1      26.608  -0.141  52.593  1.00  0.00     0.183 C 
HETATM    2  C10 UNL     1      27.126  -0.159  53.942  1.00  0.00     0.065 C 
HETATM    3  N1  UNL     1      27.527  -0.184  55.029  1.00  0.00    -0.197 NA
ENDROOT
BRANCH   1   4
HETATM    4  C8  UNL     1      25.546   0.905  52.468  1.00  0.00     0.050 A 
HETATM    5  C7  UNL     1      25.429   2.110  53.280  1.00  0.00     0.059 A 
HETATM    6  C6  UNL     1      24.350   2.382  52.554  1.00  0.00     0.059 A 
HETATM    7  N2  UNL     1      24.508   1.193  51.790  1.00  0.00    -0.253 NA
BRANCH   6   8
HETATM    8  C5  UNL     1      23.349   3.433  52.486  1.00  0.00     0.031 C 
HETATM    9  C4  UNL     1      22.037   3.281  52.488  1.00  0.00     0.004 C 
BRANCH   9  10
HETATM   10  C3  UNL     1      21.237   2.076  52.554  1.00  0.00     0.025 C 
HETATM   11  C2  UNL     1      20.829   1.232  51.604  1.00  0.00     0.008 C 
HETATM   12  C1  UNL     1      20.010   0.058  51.918  1.00  0.00     0.068 C 
BRANCH  11  13
HETATM   13  N3  UNL     1      21.201   1.485  50.251  1.00  0.00    -0.331 N 
HETATM   14  C11 UNL     1      20.313   2.181  49.389  1.00  0.00     0.233 C 
HETATM   15  O1  UNL     1      19.195   2.563  49.854  1.00  0.00    -0.272 OA
HETATM   16  H10 UNL     1      22.116   1.178  49.853  1.00  0.00     0.168 HD
BRANCH  14  17
HETATM   17  C12 UNL     1      20.601   2.492  47.976  1.00  0.00     0.208 C 
BRANCH  17  18
HETATM   18  S1  UNL     1      22.391   2.591  47.658  1.00  0.00     0.005 SA
BRANCH  18  19
HETATM   19  O2  UNL     1      23.253   2.972  49.118  1.00  0.00    -0.279 OA
BRANCH  19  20
HETATM   20  C13 UNL     1      24.223   3.964  49.056  1.00  0.00     0.084 A 
HETATM   21  C14 UNL     1      25.490   3.502  49.339  1.00  0.00     0.038 A 
HETATM   22  C15 UNL     1      26.595   4.362  49.326  1.00  0.00     0.003 A 
HETATM   23  C16 UNL     1      26.297   5.674  49.009  1.00  0.00     0.000 A 
HETATM   24  C17 UNL     1      25.058   6.170  48.723  1.00  0.00     0.003 A 
HETATM   25  C18 UNL     1      24.009   5.292  48.750  1.00  0.00     0.038 A 
ENDBRANCH  19  20
ENDBRANCH  18  19
ENDBRANCH  17  18
ENDBRANCH  14  17
ENDBRANCH  11  13
ENDBRANCH   9  10
ENDBRANCH   6   8
ENDBRANCH   1   4
TORSDOF 8
ENDMDL
MODEL 8
REMARK VINA RESULT:      -6.1      3.192      4.033
REMARK  8 active torsions:
REMARK  status: ('A' for Active; 'I' for Inactive)
REMARK    1  A    between atoms: C2_2  and  N3_13 
REMARK    2  A    between atoms: C3_3  and  C4_4 
REMARK    3  A    between atoms: C5_5  and  C6_6 
REMARK    4  A    between atoms: C8_8  and  C9_9 
REMARK       I    between atoms: N3_13  and  C11_14 
REMARK    5  A    between atoms: C11_14  and  C12_16 
REMARK    6  A    between atoms: C12_16  and  S1_17 
REMARK    7  A    between atoms: S1_17  and  O2_18 
REMARK    8  A    between atoms: O2_18  and  C13_19 
ROOT
HETATM    1  C9  UNL     1      28.549   0.387  54.308  1.00  0.00     0.183 C 
HETATM    2  C10 UNL     1      29.193  -0.814  53.823  1.00  0.00     0.065 C 
HETATM    3  N1  UNL     1      29.718  -1.766  53.423  1.00  0.00    -0.197 NA
ENDROOT
BRANCH   1   4
HETATM    4  C8  UNL     1      27.388   0.732  53.429  1.00  0.00     0.050 A 
HETATM    5  C7  UNL     1      26.393   1.765  53.690  1.00  0.00     0.059 A 
HETATM    6  C6  UNL     1      25.844   1.394  52.538  1.00  0.00     0.059 A 
HETATM    7  N2  UNL     1      26.839   0.400  52.330  1.00  0.00    -0.253 NA
BRANCH   6   8
HETATM    8  C5  UNL     1      24.698   1.780  51.732  1.00  0.00     0.031 C 
HETATM    9  C4  UNL     1      23.442   1.415  51.913  1.00  0.00     0.004 C 
BRANCH   9  10
HETATM   10  C3  UNL     1      22.854   0.560  52.923  1.00  0.00     0.025 C 
HETATM   11  C2  UNL     1      21.642   0.557  53.483  1.00  0.00     0.008 C 
HETATM   12  C1  UNL     1      21.271  -0.425  54.506  1.00  0.00     0.068 C 
BRANCH  11  13
HETATM   13  N3  UNL     1      20.691   1.535  53.072  1.00  0.00    -0.331 N 
HETATM   14  C11 UNL     1      19.844   1.279  51.961  1.00  0.00     0.233 C 
HETATM   15  O1  UNL     1      19.963   0.170  51.354  1.00  0.00    -0.272 OA
HETATM   16  H10 UNL     1      20.580   2.452  53.560  1.00  0.00     0.168 HD
BRANCH  14  17
HETATM   17  C12 UNL     1      18.829   2.223  51.456  1.00  0.00     0.208 C 
BRANCH  17  18
HETATM   18  S1  UNL     1      18.120   1.669  49.873  1.00  0.00     0.005 SA
BRANCH  18  19
HETATM   19  O2  UNL     1      18.856   2.511  48.543  1.00  0.00    -0.279 OA
BRANCH  19  20
HETATM   20  C13 UNL     1      20.232   2.694  48.575  1.00  0.00     0.084 A 
HETATM   21  C14 UNL     1      20.600   3.993  48.851  1.00  0.00     0.038 A 
HETATM   22  C15 UNL     1      21.948   4.364  48.922  1.00  0.00     0.003 A 
HETATM   23  C16 UNL     1      22.841   3.333  48.696  1.00  0.00     0.000 A 
HETATM   24  C17 UNL     1      22.516   2.037  48.420  1.00  0.00     0.003 A 
HETATM   25  C18 UNL     1      21.186   1.721  48.360  1.00  0.00     0.038 A 
ENDBRANCH  19  20
ENDBRANCH  18  19
ENDBRANCH  17  18
ENDBRANCH  14  17
ENDBRANCH  11  13
ENDBRANCH   9  10
ENDBRANCH   6   8
ENDBRANCH   1   4
TORSDOF 8
ENDMDL
MODEL 9
REMARK VINA RESULT:      -6.0      3.071      6.539
REMARK  8 active torsions:
REMARK  status: ('A' for Active; 'I' for Inactive)
REMARK    1  A    between atoms: C2_2  and  N3_13 
REMARK    2  A    between atoms: C3_3  and  C4_4 
REMARK    3  A    between atoms: C5_5  and  C6_6 
REMARK    4  A    between atoms: C8_8  and  C9_9 
REMARK       I    between atoms: N3_13  and  C11_14 
REMARK    5  A    between atoms: C11_14  and  C12_16 
REMARK    6  A    between atoms: C12_16  and  S1_17 
REMARK    7  A    between atoms: S1_17  and  O2_18 
REMARK    8  A    between atoms: O2_18  and  C13_19 
ROOT
HETATM    1  C9  UNL     1      19.139   1.318  50.914  1.00  0.00     0.183 C 
HETATM    2  C10 UNL     1      18.999   0.249  51.877  1.00  0.00     0.065 C 
HETATM    3  N1  UNL     1      18.873  -0.599  52.657  1.00  0.00    -0.197 NA
ENDROOT
BRANCH   1   4
HETATM    4  C8  UNL     1      19.968   2.420  51.494  1.00  0.00     0.050 A 
HETATM    5  C7  UNL     1      20.832   3.327  50.748  1.00  0.00     0.059 A 
HETATM    6  C6  UNL     1      21.113   3.877  51.924  1.00  0.00     0.059 A 
HETATM    7  N2  UNL     1      20.257   2.969  52.606  1.00  0.00    -0.253 NA
BRANCH   6   8
HETATM    8  C5  UNL     1      21.940   4.963  52.422  1.00  0.00     0.031 C 
HETATM    9  C4  UNL     1      23.213   5.182  52.144  1.00  0.00     0.004 C 
BRANCH   9  10
HETATM   10  C3  UNL     1      24.125   4.439  51.300  1.00  0.00     0.025 C 
HETATM   11  C2  UNL     1      24.650   3.218  51.425  1.00  0.00     0.008 C 
HETATM   12  C1  UNL     1      25.569   2.671  50.423  1.00  0.00     0.068 C 
BRANCH  11  13
HETATM   13  N3  UNL     1      24.305   2.432  52.562  1.00  0.00    -0.331 N 
HETATM   14  C11 UNL     1      23.496   1.275  52.406  1.00  0.00     0.233 C 
HETATM   15  O1  UNL     1      23.096   0.971  51.241  1.00  0.00    -0.272 OA
HETATM   16  H10 UNL     1      24.625   2.669  53.527  1.00  0.00     0.168 HD
BRANCH  14  17
HETATM   17  C12 UNL     1      23.082   0.396  53.517  1.00  0.00     0.208 C 
BRANCH  17  18
HETATM   18  S1  UNL     1      24.486  -0.548  54.190  1.00  0.00     0.005 SA
BRANCH  18  19
HETATM   19  O2  UNL     1      25.932   0.416  54.184  1.00  0.00    -0.279 OA
BRANCH  19  20
HETATM   20  C13 UNL     1      27.134  -0.223  53.911  1.00  0.00     0.084 A 
HETATM   21  C14 UNL     1      26.981  -1.366  53.156  1.00  0.00     0.038 A 
HETATM   22  C15 UNL     1      28.086  -2.143  52.786  1.00  0.00     0.003 A 
HETATM   23  C16 UNL     1      29.302  -1.664  53.236  1.00  0.00     0.000 A 
HETATM   24  C17 UNL     1      29.494  -0.539  53.984  1.00  0.00     0.003 A 
HETATM   25  C18 UNL     1      28.385   0.188  54.323  1.00  0.00     0.038 A 
ENDBRANCH  19  20
ENDBRANCH  18  19
ENDBRANCH  17  18
ENDBRANCH  14  17
ENDBRANCH  11  13
ENDBRANCH   9  10
ENDBRANCH   6   8
ENDBRANCH   1   4
TORSDOF 8
ENDMDL
