MODEL 1
REMARK VINA RESULT:      -8.0      0.000      0.000
REMARK  9 active torsions:
REMARK  status: ('A' for Active; 'I' for Inactive)
REMARK    1  A    between atoms: N1_2  and  C2_3 
REMARK    2  A    between atoms: N3_7  and  C5_8 
REMARK    3  A    between atoms: C11_15  and  C12_16 
REMARK    4  A    between atoms: C12_16  and  C13_17 
REMARK    5  A    between atoms: C13_17  and  N4_18 
REMARK    6  A    between atoms: N4_18  and  C14_19 
REMARK    7  A    between atoms: C14_19  and  C15_20 
REMARK    8  A    between atoms: C15_20  and  N5_21 
REMARK       I    between atoms: N5_21  and  C16_22 
REMARK    9  A    between atoms: C16_22  and  C17_24 
ROOT
HETATM    1  C2  UNL     1      26.292   1.584  53.762  1.00  0.00     0.072 A 
HETATM    2  C3  UNL     1      26.915   0.483  54.117  1.00  0.00     0.149 A 
HETATM    3  N2  UNL     1      26.080  -0.646  53.997  1.00  0.00    -0.253 NA
HETATM    4  C4  UNL     1      24.863  -0.655  53.597  1.00  0.00     0.214 A 
HETATM    5  N3  UNL     1      24.227   0.554  53.221  1.00  0.00    -0.304 N 
HETATM    6  C11 UNL     1      24.940   1.776  53.289  1.00  0.00     0.066 A 
ENDROOT
BRANCH   6   7
HETATM    7  C12 UNL     1      24.506   2.958  53.004  1.00  0.00     0.035 C 
BRANCH   7   8
HETATM    8  C13 UNL     1      23.653   4.122  52.889  1.00  0.00     0.299 C 
BRANCH   8   9
HETATM    9  N4  UNL     1      24.169   5.210  52.072  1.00  0.00     0.088 N 
HETATM   10  H14 UNL     1      25.181   5.079  51.888  1.00  0.00     0.316 HD
BRANCH   9  11
HETATM   11  C14 UNL     1      23.469   5.370  50.838  1.00  0.00     0.289 C 
BRANCH  11  12
HETATM   12  C15 UNL     1      24.090   4.507  49.743  1.00  0.00     0.153 C 
BRANCH  12  13
HETATM   13  N5  UNL     1      25.258   5.152  49.198  1.00  0.00    -0.354 N 
HETATM   14  C16 UNL     1      26.603   4.626  49.211  1.00  0.00     0.275 C 
HETATM   15  O1  UNL     1      26.725   3.516  49.759  1.00  0.00    -0.265 OA
HETATM   16  H19 UNL     1      25.169   6.097  48.728  1.00  0.00     0.162 HD
BRANCH  14  17
HETATM   17  C17 UNL     1      27.686   5.400  48.606  1.00  0.00     0.142 A 
HETATM   18  C18 UNL     1      27.688   6.650  48.054  1.00  0.00     0.045 A 
HETATM   19  C19 UNL     1      28.986   6.921  47.618  1.00  0.00     0.027 A 
HETATM   20  C20 UNL     1      29.712   5.778  47.945  1.00  0.00     0.143 A 
HETATM   21  O2  UNL     1      28.897   4.929  48.518  1.00  0.00    -0.317 OA
ENDBRANCH  14  17
ENDBRANCH  12  13
ENDBRANCH  11  12
ENDBRANCH   9  11
ENDBRANCH   8   9
ENDBRANCH   7   8
ENDBRANCH   6   7
BRANCH   1  22
HETATM   22  N1  UNL     1      27.308   2.551  53.959  1.00  0.00    -0.391 N 
HETATM   23  C1  UNL     1      28.722   2.423  53.655  1.00  0.00     0.146 C 
HETATM   24  H4  UNL     1      26.912   3.422  54.366  1.00  0.00     0.159 HD
ENDBRANCH   1  22
BRANCH   5  25
HETATM   25  C5  UNL     1      22.858   0.593  52.775  1.00  0.00     0.042 A 
HETATM   26  C6  UNL     1      21.708   0.460  53.510  1.00  0.00     0.030 A 
HETATM   27  C7  UNL     1      20.482   0.529  52.926  1.00  0.00     0.004 A 
HETATM   28  C8  UNL     1      20.428   0.741  51.548  1.00  0.00     0.019 A 
HETATM   29  C9  UNL     1      21.583   0.878  50.795  1.00  0.00     0.013 A 
HETATM   30 BR1  UNL     1      21.400   1.168  48.920  1.00  0.00    -0.051 Br
HETATM   31  C10 UNL     1      22.842   0.804  51.411  1.00  0.00     0.049 A 
ENDBRANCH   5  25
TORSDOF 9
ENDMDL
MODEL 2
REMARK VINA RESULT:      -7.4      2.202      4.267
REMARK  9 active torsions:
REMARK  status: ('A' for Active; 'I' for Inactive)
REMARK    1  A    between atoms: N1_2  and  C2_3 
REMARK    2  A    between atoms: N3_7  and  C5_8 
REMARK    3  A    between atoms: C11_15  and  C12_16 
REMARK    4  A    between atoms: C12_16  and  C13_17 
REMARK    5  A    between atoms: C13_17  and  N4_18 
REMARK    6  A    between atoms: N4_18  and  C14_19 
REMARK    7  A    between atoms: C14_19  and  C15_20 
REMARK    8  A    between atoms: C15_20  and  N5_21 
REMARK       I    between atoms: N5_21  and  C16_22 
REMARK    9  A    between atoms: C16_22  and  C17_24 
ROOT
HETATM    1  C2  UNL     1      22.013   0.257  52.819  1.00  0.00     0.072 A 
HETATM    2  C3  UNL     1      21.494  -0.561  53.706  1.00  0.00     0.149 A 
HETATM    3  N2  UNL     1      22.473  -1.053  54.592  1.00  0.00    -0.253 NA
HETATM    4  C4  UNL     1      23.723  -0.771  54.579  1.00  0.00     0.214 A 
HETATM    5  N3  UNL     1      24.244   0.118  53.606  1.00  0.00    -0.304 N 
HETATM    6  C11 UNL     1      23.379   0.695  52.644  1.00  0.00     0.066 A 
ENDROOT
BRANCH   6   7
HETATM    7  C12 UNL     1      23.692   1.502  51.687  1.00  0.00     0.035 C 
BRANCH   7   8
HETATM    8  C13 UNL     1      23.895   2.709  50.914  1.00  0.00     0.299 C 
BRANCH   8   9
HETATM    9  N4  UNL     1      23.651   3.961  51.614  1.00  0.00     0.088 N 
HETATM   10  H14 UNL     1      24.152   3.974  52.522  1.00  0.00     0.316 HD
BRANCH   9  11
HETATM   11  C14 UNL     1      24.006   5.114  50.850  1.00  0.00     0.289 C 
BRANCH  11  12
HETATM   12  C15 UNL     1      24.309   4.737  49.403  1.00  0.00     0.153 C 
BRANCH  12  13
HETATM   13  N5  UNL     1      25.536   5.357  48.969  1.00  0.00    -0.354 N 
HETATM   14  C16 UNL     1      26.835   4.728  48.921  1.00  0.00     0.275 C 
HETATM   15  O1  UNL     1      26.858   3.545  49.303  1.00  0.00    -0.265 OA
HETATM   16  H19 UNL     1      25.531   6.364  48.640  1.00  0.00     0.162 HD
BRANCH  14  17
HETATM   17  C17 UNL     1      27.988   5.491  48.446  1.00  0.00     0.142 A 
HETATM   18  C18 UNL     1      28.063   6.729  47.871  1.00  0.00     0.045 A 
HETATM   19  C19 UNL     1      29.407   6.993  47.603  1.00  0.00     0.027 A 
HETATM   20  C20 UNL     1      30.083   5.859  48.048  1.00  0.00     0.143 A 
HETATM   21  O2  UNL     1      29.201   5.021  48.528  1.00  0.00    -0.317 OA
ENDBRANCH  14  17
ENDBRANCH  12  13
ENDBRANCH  11  12
ENDBRANCH   9  11
ENDBRANCH   8   9
ENDBRANCH   7   8
ENDBRANCH   6   7
BRANCH   1  22
HETATM   22  N1  UNL     1      20.866   0.613  52.068  1.00  0.00    -0.391 N 
HETATM   23  C1  UNL     1      20.146   1.874  52.094  1.00  0.00     0.146 C 
HETATM   24  H4  UNL     1      20.573  -0.171  51.450  1.00  0.00     0.159 HD
ENDBRANCH   1  22
BRANCH   5  25
HETATM   25  C5  UNL     1      25.642   0.457  53.549  1.00  0.00     0.042 A 
HETATM   26  C6  UNL     1      26.235   1.689  53.650  1.00  0.00     0.030 A 
HETATM   27  C7  UNL     1      27.586   1.834  53.581  1.00  0.00     0.004 A 
HETATM   28  C8  UNL     1      28.355   0.684  53.402  1.00  0.00     0.019 A 
HETATM   29  C9  UNL     1      27.767  -0.566  53.299  1.00  0.00     0.013 A 
HETATM   30 BR1  UNL     1      28.908  -2.075  53.059  1.00  0.00    -0.051 Br
HETATM   31  C10 UNL     1      26.372  -0.702  53.372  1.00  0.00     0.049 A 
ENDBRANCH   5  25
TORSDOF 9
ENDMDL
MODEL 3
REMARK VINA RESULT:      -7.3      2.738      4.900
REMARK  9 active torsions:
REMARK  status: ('A' for Active; 'I' for Inactive)
REMARK    1  A    between atoms: N1_2  and  C2_3 
REMARK    2  A    between atoms: N3_7  and  C5_8 
REMARK    3  A    between atoms: C11_15  and  C12_16 
REMARK    4  A    between atoms: C12_16  and  C13_17 
REMARK    5  A    between atoms: C13_17  and  N4_18 
REMARK    6  A    between atoms: N4_18  and  C14_19 
REMARK    7  A    between atoms: C14_19  and  C15_20 
REMARK    8  A    between atoms: C15_20  and  N5_21 
REMARK       I    between atoms: N5_21  and  C16_22 
REMARK    9  A    between atoms: C16_22  and  C17_24 
ROOT
HETATM    1  C2  UNL     1      22.888   0.839  52.093  1.00  0.00     0.072 A 
HETATM    2  C3  UNL     1      22.267  -0.137  52.714  1.00  0.00     0.149 A 
HETATM    3  N2  UNL     1      23.119  -0.795  53.624  1.00  0.00    -0.253 NA
HETATM    4  C4  UNL     1      24.348  -0.518  53.856  1.00  0.00     0.214 A 
HETATM    5  N3  UNL     1      24.981   0.545  53.165  1.00  0.00    -0.304 N 
HETATM    6  C11 UNL     1      24.253   1.301  52.214  1.00  0.00     0.066 A 
ENDROOT
BRANCH   6   7
HETATM    7  C12 UNL     1      24.681   2.280  51.492  1.00  0.00     0.035 C 
BRANCH   7   8
HETATM    8  C13 UNL     1      25.025   3.103  50.351  1.00  0.00     0.299 C 
BRANCH   8   9
HETATM    9  N4  UNL     1      26.041   4.118  50.583  1.00  0.00     0.088 N 
HETATM   10  H14 UNL     1      26.982   3.684  50.644  1.00  0.00     0.316 HD
BRANCH   9  11
HETATM   11  C14 UNL     1      26.048   5.147  49.592  1.00  0.00     0.289 C 
BRANCH  11  12
HETATM   12  C15 UNL     1      27.218   4.967  48.628  1.00  0.00     0.153 C 
BRANCH  12  13
HETATM   13  N5  UNL     1      28.268   5.906  48.933  1.00  0.00    -0.354 N 
HETATM   14  C16 UNL     1      28.477   7.184  48.293  1.00  0.00     0.275 C 
HETATM   15  O1  UNL     1      27.659   7.460  47.397  1.00  0.00    -0.265 OA
HETATM   16  H19 UNL     1      28.971   5.684  49.693  1.00  0.00     0.162 HD
BRANCH  14  17
HETATM   17  C17 UNL     1      29.588   8.032  48.721  1.00  0.00     0.142 A 
HETATM   18  C18 UNL     1      30.900   7.731  48.958  1.00  0.00     0.045 A 
HETATM   19  C19 UNL     1      31.542   8.907  49.349  1.00  0.00     0.027 A 
HETATM   20  C20 UNL     1      30.544   9.878  49.322  1.00  0.00     0.143 A 
HETATM   21  O2  UNL     1      29.429   9.305  48.949  1.00  0.00    -0.317 OA
ENDBRANCH  14  17
ENDBRANCH  12  13
ENDBRANCH  11  12
ENDBRANCH   9  11
ENDBRANCH   8   9
ENDBRANCH   7   8
ENDBRANCH   6   7
BRANCH   1  22
HETATM   22  N1  UNL     1      21.856   1.337  51.261  1.00  0.00    -0.391 N 
HETATM   23  C1  UNL     1      21.794   1.303  49.810  1.00  0.00     0.146 C 
HETATM   24  H4  UNL     1      21.092   1.754  51.831  1.00  0.00     0.159 HD
ENDBRANCH   1  22
BRANCH   5  25
HETATM   25  C5  UNL     1      26.363   0.886  53.386  1.00  0.00     0.042 A 
HETATM   26  C6  UNL     1      26.917   2.115  53.634  1.00  0.00     0.030 A 
HETATM   27  C7  UNL     1      28.256   2.263  53.829  1.00  0.00     0.004 A 
HETATM   28  C8  UNL     1      29.052   1.120  53.768  1.00  0.00     0.019 A 
HETATM   29  C9  UNL     1      28.503  -0.128  53.519  1.00  0.00     0.013 A 
HETATM   30 BR1  UNL     1      29.679  -1.628  53.458  1.00  0.00    -0.051 Br
HETATM   31  C10 UNL     1      27.120  -0.266  53.319  1.00  0.00     0.049 A 
ENDBRANCH   5  25
TORSDOF 9
ENDMDL
MODEL 4
REMARK VINA RESULT:      -7.3      3.369      5.272
REMARK  9 active torsions:
REMARK  status: ('A' for Active; 'I' for Inactive)
REMARK    1  A    between atoms: N1_2  and  C2_3 
REMARK    2  A    between atoms: N3_7  and  C5_8 
REMARK    3  A    between atoms: C11_15  and  C12_16 
REMARK    4  A    between atoms: C12_16  and  C13_17 
REMARK    5  A    between atoms: C13_17  and  N4_18 
REMARK    6  A    between atoms: N4_18  and  C14_19 
REMARK    7  A    between atoms: C14_19  and  C15_20 
REMARK    8  A    between atoms: C15_20  and  N5_21 
REMARK       I    between atoms: N5_21  and  C16_22 
REMARK    9  A    between atoms: C16_22  and  C17_24 
ROOT
HETATM    1  C2  UNL     1      26.564   1.527  53.741  1.00  0.00     0.072 A 
HETATM    2  C3  UNL     1      27.317   0.462  53.891  1.00  0.00     0.149 A 
HETATM    3  N2  UNL     1      26.573  -0.724  53.734  1.00  0.00    -0.253 NA
HETATM    4  C4  UNL     1      25.321  -0.811  53.476  1.00  0.00     0.214 A 
HETATM    5  N3  UNL     1      24.543   0.364  53.318  1.00  0.00    -0.304 N 
HETATM    6  C11 UNL     1      25.152   1.635  53.449  1.00  0.00     0.066 A 
ENDROOT
BRANCH   6   7
HETATM    7  C12 UNL     1      24.589   2.792  53.355  1.00  0.00     0.035 C 
BRANCH   7   8
HETATM    8  C13 UNL     1      23.909   3.955  52.822  1.00  0.00     0.299 C 
BRANCH   8   9
HETATM    9  N4  UNL     1      24.288   4.350  51.474  1.00  0.00     0.088 N 
HETATM   10  H14 UNL     1      24.418   3.515  50.873  1.00  0.00     0.316 HD
BRANCH   9  11
HETATM   11  C14 UNL     1      23.356   5.244  50.865  1.00  0.00     0.289 C 
BRANCH  11  12
HETATM   12  C15 UNL     1      22.105   5.396  51.725  1.00  0.00     0.153 C 
BRANCH  12  13
HETATM   13  N5  UNL     1      20.955   4.867  51.036  1.00  0.00    -0.354 N 
HETATM   14  C16 UNL     1      19.998   3.928  51.575  1.00  0.00     0.275 C 
HETATM   15  O1  UNL     1      20.227   3.561  52.741  1.00  0.00    -0.265 OA
HETATM   16  H19 UNL     1      20.748   5.170  50.042  1.00  0.00     0.162 HD
BRANCH  14  17
HETATM   17  C17 UNL     1      18.874   3.490  50.750  1.00  0.00     0.142 A 
HETATM   18  C18 UNL     1      18.606   3.697  49.426  1.00  0.00     0.045 A 
HETATM   19  C19 UNL     1      17.397   3.063  49.133  1.00  0.00     0.027 A 
HETATM   20  C20 UNL     1      16.997   2.494  50.340  1.00  0.00     0.143 A 
HETATM   21  O2  UNL     1      17.900   2.779  51.243  1.00  0.00    -0.317 OA
ENDBRANCH  14  17
ENDBRANCH  12  13
ENDBRANCH  11  12
ENDBRANCH   9  11
ENDBRANCH   8   9
ENDBRANCH   7   8
ENDBRANCH   6   7
BRANCH   1  22
HETATM   22  N1  UNL     1      27.511   2.563  53.934  1.00  0.00    -0.391 N 
HETATM   23  C1  UNL     1      28.957   2.469  53.841  1.00  0.00     0.146 C 
HETATM   24  H4  UNL     1      27.034   3.460  54.161  1.00  0.00     0.159 HD
ENDBRANCH   1  22
BRANCH   5  25
HETATM   25  C5  UNL     1      23.131   0.315  53.036  1.00  0.00     0.042 A 
HETATM   26  C6  UNL     1      22.090   0.073  53.895  1.00  0.00     0.030 A 
HETATM   27  C7  UNL     1      20.801   0.070  53.461  1.00  0.00     0.004 A 
HETATM   28  C8  UNL     1      20.568   0.321  52.109  1.00  0.00     0.019 A 
HETATM   29  C9  UNL     1      21.612   0.568  51.233  1.00  0.00     0.013 A 
HETATM   30 BR1  UNL     1      21.188   0.902  49.404  1.00  0.00    -0.051 Br
HETATM   31  C10 UNL     1      22.939   0.568  51.693  1.00  0.00     0.049 A 
ENDBRANCH   5  25
TORSDOF 9
ENDMDL
MODEL 5
REMARK VINA RESULT:      -7.2      4.830      9.760
REMARK  9 active torsions:
REMARK  status: ('A' for Active; 'I' for Inactive)
REMARK    1  A    between atoms: N1_2  and  C2_3 
REMARK    2  A    between atoms: N3_7  and  C5_8 
REMARK    3  A    between atoms: C11_15  and  C12_16 
REMARK    4  A    between atoms: C12_16  and  C13_17 
REMARK    5  A    between atoms: C13_17  and  N4_18 
REMARK    6  A    between atoms: N4_18  and  C14_19 
REMARK    7  A    between atoms: C14_19  and  C15_20 
REMARK    8  A    between atoms: C15_20  and  N5_21 
REMARK       I    between atoms: N5_21  and  C16_22 
REMARK    9  A    between atoms: C16_22  and  C17_24 
ROOT
HETATM    1  C2  UNL     1      32.972   5.202  48.332  1.00  0.00     0.072 A 
HETATM    2  C3  UNL     1      34.280   5.239  48.441  1.00  0.00     0.149 A 
HETATM    3  N2  UNL     1      34.753   6.563  48.547  1.00  0.00    -0.253 NA
HETATM    4  C4  UNL     1      34.043   7.629  48.542  1.00  0.00     0.214 A 
HETATM    5  N3  UNL     1      32.633   7.546  48.424  1.00  0.00    -0.304 N 
HETATM    6  C11 UNL     1      32.009   6.280  48.308  1.00  0.00     0.066 A 
ENDROOT
BRANCH   6   7
HETATM    7  C12 UNL     1      30.750   6.031  48.175  1.00  0.00     0.035 C 
BRANCH   7   8
HETATM    8  C13 UNL     1      29.327   6.199  47.962  1.00  0.00     0.299 C 
BRANCH   8   9
HETATM    9  N4  UNL     1      28.458   5.470  48.874  1.00  0.00     0.088 N 
HETATM   10  H14 UNL     1      28.810   5.540  49.847  1.00  0.00     0.316 HD
BRANCH   9  11
HETATM   11  C14 UNL     1      27.097   5.899  48.820  1.00  0.00     0.289 C 
BRANCH  11  12
HETATM   12  C15 UNL     1      26.157   4.784  49.269  1.00  0.00     0.153 C 
BRANCH  12  13
HETATM   13  N5  UNL     1      26.813   3.930  50.227  1.00  0.00    -0.354 N 
HETATM   14  C16 UNL     1      26.202   2.840  50.952  1.00  0.00     0.275 C 
HETATM   15  O1  UNL     1      24.996   2.660  50.706  1.00  0.00    -0.265 OA
HETATM   16  H19 UNL     1      27.839   4.072  50.446  1.00  0.00     0.162 HD
BRANCH  14  17
HETATM   17  C17 UNL     1      27.006   2.056  51.888  1.00  0.00     0.142 A 
HETATM   18  C18 UNL     1      26.908   0.747  52.268  1.00  0.00     0.045 A 
HETATM   19  C19 UNL     1      27.924   0.495  53.191  1.00  0.00     0.027 A 
HETATM   20  C20 UNL     1      28.595   1.710  53.315  1.00  0.00     0.143 A 
HETATM   21  O2  UNL     1      28.011   2.579  52.530  1.00  0.00    -0.317 OA
ENDBRANCH  14  17
ENDBRANCH  12  13
ENDBRANCH  11  12
ENDBRANCH   9  11
ENDBRANCH   8   9
ENDBRANCH   7   8
ENDBRANCH   6   7
BRANCH   1  22
HETATM   22  N1  UNL     1      32.743   3.807  48.247  1.00  0.00    -0.391 N 
HETATM   23  C1  UNL     1      33.538   2.821  47.537  1.00  0.00     0.146 C 
HETATM   24  H4  UNL     1      31.893   3.540  48.784  1.00  0.00     0.159 HD
ENDBRANCH   1  22
BRANCH   5  25
HETATM   25  C5  UNL     1      31.795   8.717  48.406  1.00  0.00     0.042 A 
HETATM   26  C6  UNL     1      30.981   9.210  49.394  1.00  0.00     0.030 A 
HETATM   27  C7  UNL     1      30.255  10.345  49.212  1.00  0.00     0.004 A 
HETATM   28  C8  UNL     1      30.362  10.998  47.984  1.00  0.00     0.019 A 
HETATM   29  C9  UNL     1      31.182  10.510  46.979  1.00  0.00     0.013 A 
HETATM   30 BR1  UNL     1      31.260  11.478  45.338  1.00  0.00    -0.051 Br
HETATM   31  C10 UNL     1      31.926   9.337  47.179  1.00  0.00     0.049 A 
ENDBRANCH   5  25
TORSDOF 9
ENDMDL
MODEL 6
REMARK VINA RESULT:      -7.1      3.533      6.573
REMARK  9 active torsions:
REMARK  status: ('A' for Active; 'I' for Inactive)
REMARK    1  A    between atoms: N1_2  and  C2_3 
REMARK    2  A    between atoms: N3_7  and  C5_8 
REMARK    3  A    between atoms: C11_15  and  C12_16 
REMARK    4  A    between atoms: C12_16  and  C13_17 
REMARK    5  A    between atoms: C13_17  and  N4_18 
REMARK    6  A    between atoms: N4_18  and  C14_19 
REMARK    7  A    between atoms: C14_19  and  C15_20 
REMARK    8  A    between atoms: C15_20  and  N5_21 
REMARK       I    between atoms: N5_21  and  C16_22 
REMARK    9  A    between atoms: C16_22  and  C17_24 
ROOT
HETATM    1  C2  UNL     1      18.552  -0.716  52.680  1.00  0.00     0.072 A 
HETATM    2  C3  UNL     1      17.305  -0.724  52.267  1.00  0.00     0.149 A 
HETATM    3  N2  UNL     1      17.133   0.082  51.124  1.00  0.00    -0.253 NA
HETATM    4  C4  UNL     1      18.041   0.758  50.524  1.00  0.00     0.214 A 
HETATM    5  N3  UNL     1      19.376   0.739  51.000  1.00  0.00    -0.304 N 
HETATM    6  C11 UNL     1      19.705  -0.028  52.144  1.00  0.00     0.066 A 
ENDROOT
BRANCH   6   7
HETATM    7  C12 UNL     1      20.857  -0.138  52.714  1.00  0.00     0.035 C 
BRANCH   7   8
HETATM    8  C13 UNL     1      22.016  -0.691  53.383  1.00  0.00     0.299 C 
BRANCH   8   9
HETATM    9  N4  UNL     1      23.257   0.053  53.225  1.00  0.00     0.088 N 
HETATM   10  H14 UNL     1      23.862  -0.394  52.511  1.00  0.00     0.316 HD
BRANCH   9  11
HETATM   11  C14 UNL     1      23.052   1.427  52.892  1.00  0.00     0.289 C 
BRANCH  11  12
HETATM   12  C15 UNL     1      24.348   2.068  52.403  1.00  0.00     0.153 C 
BRANCH  12  13
HETATM   13  N5  UNL     1      25.485   1.301  52.847  1.00  0.00    -0.354 N 
HETATM   14  C16 UNL     1      26.826   1.385  52.315  1.00  0.00     0.275 C 
HETATM   15  O1  UNL     1      26.970   2.198  51.386  1.00  0.00    -0.265 OA
HETATM   16  H19 UNL     1      25.377   0.605  53.637  1.00  0.00     0.162 HD
BRANCH  14  17
HETATM   17  C17 UNL     1      27.879   0.543  52.881  1.00  0.00     0.142 A 
HETATM   18  C18 UNL     1      27.937  -0.810  53.065  1.00  0.00     0.045 A 
HETATM   19  C19 UNL     1      29.170  -1.107  53.647  1.00  0.00     0.027 A 
HETATM   20  C20 UNL     1      29.802   0.127  53.783  1.00  0.00     0.143 A 
HETATM   21  O2  UNL     1      28.998   1.049  53.318  1.00  0.00    -0.317 OA
ENDBRANCH  14  17
ENDBRANCH  12  13
ENDBRANCH  11  12
ENDBRANCH   9  11
ENDBRANCH   8   9
ENDBRANCH   7   8
ENDBRANCH   6   7
BRANCH   1  22
HETATM   22  N1  UNL     1      18.476  -1.576  53.802  1.00  0.00    -0.391 N 
HETATM   23  C1  UNL     1      17.840  -2.880  53.877  1.00  0.00     0.146 C 
HETATM   24  H4  UNL     1      18.958  -1.155  54.622  1.00  0.00     0.159 HD
ENDBRANCH   1  22
BRANCH   5  25
HETATM   25  C5  UNL     1      20.427   1.490  50.363  1.00  0.00     0.042 A 
HETATM   26  C6  UNL     1      21.381   1.056  49.478  1.00  0.00     0.030 A 
HETATM   27  C7  UNL     1      22.306   1.907  48.960  1.00  0.00     0.004 A 
HETATM   28  C8  UNL     1      22.256   3.243  49.358  1.00  0.00     0.019 A 
HETATM   29  C9  UNL     1      21.297   3.693  50.250  1.00  0.00     0.013 A 
HETATM   30 BR1  UNL     1      21.313   5.539  50.728  1.00  0.00    -0.051 Br
HETATM   31  C10 UNL     1      20.347   2.804  50.778  1.00  0.00     0.049 A 
ENDBRANCH   5  25
TORSDOF 9
ENDMDL
MODEL 7
REMARK VINA RESULT:      -7.0      2.879      7.096
REMARK  9 active torsions:
REMARK  status: ('A' for Active; 'I' for Inactive)
REMARK    1  A    between atoms: N1_2  and  C2_3 
REMARK    2  A    between atoms: N3_7  and  C5_8 
REMARK    3  A    between atoms: C11_15  and  C12_16 
REMARK    4  A    between atoms: C12_16  and  C13_17 
REMARK    5  A    between atoms: C13_17  and  N4_18 
REMARK    6  A    between atoms: N4_18  and  C14_19 
REMARK    7  A    between atoms: C14_19  and  C15_20 
REMARK    8  A    between atoms: C15_20  and  N5_21 
REMARK       I    between atoms: N5_21  and  C16_22 
REMARK    9  A    between atoms: C16_22  and  C17_24 
ROOT
HETATM    1  C2  UNL     1      24.983   7.018  50.450  1.00  0.00     0.072 A 
HETATM    2  C3  UNL     1      24.172   7.976  50.838  1.00  0.00     0.149 A 
HETATM    3  N2  UNL     1      22.821   7.608  50.674  1.00  0.00    -0.253 NA
HETATM    4  C4  UNL     1      22.384   6.495  50.212  1.00  0.00     0.214 A 
HETATM    5  N3  UNL     1      23.293   5.486  49.807  1.00  0.00    -0.304 N 
HETATM    6  C11 UNL     1      24.688   5.710  49.910  1.00  0.00     0.066 A 
ENDROOT
BRANCH   6   7
HETATM    7  C12 UNL     1      25.641   4.910  49.570  1.00  0.00     0.035 C 
BRANCH   7   8
HETATM    8  C13 UNL     1      26.589   3.815  49.575  1.00  0.00     0.299 C 
BRANCH   8   9
HETATM    9  N4  UNL     1      26.851   3.208  50.871  1.00  0.00     0.088 N 
HETATM   10  H14 UNL     1      27.354   3.873  51.490  1.00  0.00     0.316 HD
BRANCH   9  11
HETATM   11  C14 UNL     1      25.671   2.738  51.525  1.00  0.00     0.289 C 
BRANCH  11  12
HETATM   12  C15 UNL     1      26.024   1.928  52.769  1.00  0.00     0.153 C 
BRANCH  12  13
HETATM   13  N5  UNL     1      24.878   1.179  53.221  1.00  0.00    -0.354 N 
HETATM   14  C16 UNL     1      24.852  -0.235  53.517  1.00  0.00     0.275 C 
HETATM   15  O1  UNL     1      25.933  -0.825  53.348  1.00  0.00    -0.265 OA
HETATM   16  H19 UNL     1      23.951   1.668  53.369  1.00  0.00     0.162 HD
BRANCH  14  17
HETATM   17  C17 UNL     1      23.609  -0.852  53.976  1.00  0.00     0.142 A 
HETATM   18  C18 UNL     1      22.435  -1.089  53.317  1.00  0.00     0.045 A 
HETATM   19  C19 UNL     1      21.560  -1.704  54.215  1.00  0.00     0.027 A 
HETATM   20  C20 UNL     1      22.286  -1.804  55.400  1.00  0.00     0.143 A 
HETATM   21  O2  UNL     1      23.471  -1.289  55.196  1.00  0.00    -0.317 OA
ENDBRANCH  14  17
ENDBRANCH  12  13
ENDBRANCH  11  12
ENDBRANCH   9  11
ENDBRANCH   8   9
ENDBRANCH   7   8
ENDBRANCH   6   7
BRANCH   1  22
HETATM   22  N1  UNL     1      26.246   7.606  50.708  1.00  0.00    -0.391 N 
HETATM   23  C1  UNL     1      26.841   8.751  50.043  1.00  0.00     0.146 C 
HETATM   24  H4  UNL     1      26.735   7.104  51.477  1.00  0.00     0.159 HD
ENDBRANCH   1  22
BRANCH   5  25
HETATM   25  C5  UNL     1      22.848   4.224  49.274  1.00  0.00     0.042 A 
HETATM   26  C6  UNL     1      23.050   3.698  48.024  1.00  0.00     0.030 A 
HETATM   27  C7  UNL     1      22.561   2.476  47.683  1.00  0.00     0.004 A 
HETATM   28  C8  UNL     1      21.844   1.768  48.648  1.00  0.00     0.019 A 
HETATM   29  C9  UNL     1      21.634   2.290  49.914  1.00  0.00     0.013 A 
HETATM   30 BR1  UNL     1      20.643   1.242  51.161  1.00  0.00    -0.051 Br
HETATM   31  C10 UNL     1      22.144   3.553  50.254  1.00  0.00     0.049 A 
ENDBRANCH   5  25
TORSDOF 9
ENDMDL
MODEL 8
REMARK VINA RESULT:      -7.0      3.085      6.020
REMARK  9 active torsions:
REMARK  status: ('A' for Active; 'I' for Inactive)
REMARK    1  A    between atoms: N1_2  and  C2_3 
REMARK    2  A    between atoms: N3_7  and  C5_8 
REMARK    3  A    between atoms: C11_15  and  C12_16 
REMARK    4  A    between atoms: C12_16  and  C13_17 
REMARK    5  A    between atoms: C13_17  and  N4_18 
REMARK    6  A    between atoms: N4_18  and  C14_19 
REMARK    7  A    between atoms: C14_19  and  C15_20 
REMARK    8  A    between atoms: C15_20  and  N5_21 
REMARK       I    between atoms: N5_21  and  C16_22 
REMARK    9  A    between atoms: C16_22  and  C17_24 
ROOT
HETATM    1  C2  UNL     1      23.781   2.049  50.587  1.00  0.00     0.072 A 
HETATM    2  C3  UNL     1      22.761   1.406  51.107  1.00  0.00     0.149 A 
HETATM    3  N2  UNL     1      23.137   0.691  52.263  1.00  0.00    -0.253 NA
HETATM    4  C4  UNL     1      24.306   0.641  52.783  1.00  0.00     0.214 A 
HETATM    5  N3  UNL     1      25.380   1.352  52.191  1.00  0.00    -0.304 N 
HETATM    6  C11 UNL     1      25.158   2.118  51.020  1.00  0.00     0.066 A 
ENDROOT
BRANCH   6   7
HETATM    7  C12 UNL     1      26.023   2.803  50.351  1.00  0.00     0.035 C 
BRANCH   7   8
HETATM    8  C13 UNL     1      26.641   3.616  49.324  1.00  0.00     0.299 C 
BRANCH   8   9
HETATM    9  N4  UNL     1      27.019   4.963  49.722  1.00  0.00     0.088 N 
HETATM   10  H14 UNL     1      28.023   5.133  49.525  1.00  0.00     0.316 HD
BRANCH   9  11
HETATM   11  C14 UNL     1      26.227   5.978  49.104  1.00  0.00     0.289 C 
BRANCH  11  12
HETATM   12  C15 UNL     1      25.476   6.796  50.150  1.00  0.00     0.153 C 
BRANCH  12  13
HETATM   13  N5  UNL     1      24.375   6.036  50.686  1.00  0.00    -0.354 N 
HETATM   14  C16 UNL     1      22.988   6.165  50.303  1.00  0.00     0.275 C 
HETATM   15  O1  UNL     1      22.763   7.027  49.435  1.00  0.00    -0.265 OA
HETATM   16  H19 UNL     1      24.551   5.299  51.425  1.00  0.00     0.162 HD
BRANCH  14  17
HETATM   17  C17 UNL     1      21.983   5.311  50.934  1.00  0.00     0.142 A 
HETATM   18  C18 UNL     1      21.899   4.826  52.209  1.00  0.00     0.045 A 
HETATM   19  C19 UNL     1      20.738   4.056  52.296  1.00  0.00     0.027 A 
HETATM   20  C20 UNL     1      20.175   4.126  51.024  1.00  0.00     0.143 A 
HETATM   21  O2  UNL     1      20.948   4.872  50.277  1.00  0.00    -0.317 OA
ENDBRANCH  14  17
ENDBRANCH  12  13
ENDBRANCH  11  12
ENDBRANCH   9  11
ENDBRANCH   8   9
ENDBRANCH   7   8
ENDBRANCH   6   7
BRANCH   1  22
HETATM   22  N1  UNL     1      23.171   2.677  49.473  1.00  0.00    -0.391 N 
HETATM   23  C1  UNL     1      22.458   2.040  48.379  1.00  0.00     0.146 C 
HETATM   24  H4  UNL     1      23.288   3.709  49.522  1.00  0.00     0.159 HD
ENDBRANCH   1  22
BRANCH   5  25
HETATM   25  C5  UNL     1      26.713   1.319  52.735  1.00  0.00     0.042 A 
HETATM   26  C6  UNL     1      27.475   2.354  53.212  1.00  0.00     0.030 A 
HETATM   27  C7  UNL     1      28.727   2.145  53.702  1.00  0.00     0.004 A 
HETATM   28  C8  UNL     1      29.215   0.839  53.706  1.00  0.00     0.019 A 
HETATM   29  C9  UNL     1      28.454  -0.215  53.228  1.00  0.00     0.013 A 
HETATM   30 BR1  UNL     1      29.212  -1.964  53.280  1.00  0.00    -0.051 Br
HETATM   31  C10 UNL     1      27.164   0.014  52.724  1.00  0.00     0.049 A 
ENDBRANCH   5  25
TORSDOF 9
ENDMDL
MODEL 9
REMARK VINA RESULT:      -7.0      3.151      8.329
REMARK  9 active torsions:
REMARK  status: ('A' for Active; 'I' for Inactive)
REMARK    1  A    between atoms: N1_2  and  C2_3 
REMARK    2  A    between atoms: N3_7  and  C5_8 
REMARK    3  A    between atoms: C11_15  and  C12_16 
REMARK    4  A    between atoms: C12_16  and  C13_17 
REMARK    5  A    between atoms: C13_17  and  N4_18 
REMARK    6  A    between atoms: N4_18  and  C14_19 
REMARK    7  A    between atoms: C14_19  and  C15_20 
REMARK    8  A    between atoms: C15_20  and  N5_21 
REMARK       I    between atoms: N5_21  and  C16_22 
REMARK    9  A    between atoms: C16_22  and  C17_24 
ROOT
HETATM    1  C2  UNL     1      23.690   4.543  49.993  1.00  0.00     0.072 A 
HETATM    2  C3  UNL     1      22.735   5.424  49.799  1.00  0.00     0.149 A 
HETATM    3  N2  UNL     1      23.234   6.608  49.219  1.00  0.00    -0.253 NA
HETATM    4  C4  UNL     1      24.451   6.847  48.901  1.00  0.00     0.214 A 
HETATM    5  N3  UNL     1      25.452   5.869  49.125  1.00  0.00    -0.304 N 
HETATM    6  C11 UNL     1      25.104   4.624  49.705  1.00  0.00     0.066 A 
ENDROOT
BRANCH   6   7
HETATM    7  C12 UNL     1      25.890   3.642  49.991  1.00  0.00     0.035 C 
BRANCH   7   8
HETATM    8  C13 UNL     1      26.549   2.566  50.703  1.00  0.00     0.299 C 
BRANCH   8   9
HETATM    9  N4  UNL     1      26.666   2.737  52.143  1.00  0.00     0.088 N 
HETATM   10  H14 UNL     1      25.739   2.942  52.562  1.00  0.00     0.316 HD
BRANCH   9  11
HETATM   11  C14 UNL     1      27.254   1.612  52.799  1.00  0.00     0.289 C 
BRANCH  11  12
HETATM   12  C15 UNL     1      26.795   0.306  52.157  1.00  0.00     0.153 C 
BRANCH  12  13
HETATM   13  N5  UNL     1      25.715  -0.272  52.916  1.00  0.00    -0.354 N 
HETATM   14  C16 UNL     1      24.321   0.101  52.831  1.00  0.00     0.275 C 
HETATM   15  O1  UNL     1      24.073   1.013  52.022  1.00  0.00    -0.265 OA
HETATM   16  H19 UNL     1      25.911  -1.049  53.608  1.00  0.00     0.162 HD
BRANCH  14  17
HETATM   17  C17 UNL     1      23.338  -0.588  53.664  1.00  0.00     0.142 A 
HETATM   18  C18 UNL     1      22.034  -0.916  53.419  1.00  0.00     0.045 A 
HETATM   19  C19 UNL     1      21.540  -1.570  54.548  1.00  0.00     0.027 A 
HETATM   20  C20 UNL     1      22.613  -1.598  55.436  1.00  0.00     0.143 A 
HETATM   21  O2  UNL     1      23.631  -1.010  54.862  1.00  0.00    -0.317 OA
ENDBRANCH  14  17
ENDBRANCH  12  13
ENDBRANCH  11  12
ENDBRANCH   9  11
ENDBRANCH   8   9
ENDBRANCH   7   8
ENDBRANCH   6   7
BRANCH   1  22
HETATM   22  N1  UNL     1      22.963   3.470  50.564  1.00  0.00    -0.391 N 
HETATM   23  C1  UNL     1      21.836   3.551  51.477  1.00  0.00     0.146 C 
HETATM   24  H4  UNL     1      23.338   2.556  50.239  1.00  0.00     0.159 HD
ENDBRANCH   1  22
BRANCH   5  25
HETATM   25  C5  UNL     1      26.834   6.097  48.791  1.00  0.00     0.042 A 
HETATM   26  C6  UNL     1      27.801   5.185  48.454  1.00  0.00     0.030 A 
HETATM   27  C7  UNL     1      29.070   5.575  48.158  1.00  0.00     0.004 A 
HETATM   28  C8  UNL     1      29.362   6.938  48.209  1.00  0.00     0.019 A 
HETATM   29  C9  UNL     1      28.393   7.868  48.547  1.00  0.00     0.013 A 
HETATM   30 BR1  UNL     1      28.893   9.708  48.585  1.00  0.00    -0.051 Br
HETATM   31  C10 UNL     1      27.087   7.453  48.851  1.00  0.00     0.049 A 
ENDBRANCH   5  25
TORSDOF 9
ENDMDL
