MODEL 1
REMARK VINA RESULT:      -8.5      0.000      0.000
REMARK  4 active torsions:
REMARK  status: ('A' for Active; 'I' for Inactive)
REMARK    1  A    between atoms: C1_2  and  C2_3 
REMARK    2  A    between atoms: C2_3  and  N2_4 
REMARK    3  A    between atoms: C2_3  and  C9_13 
REMARK    4  A    between atoms: N2_4  and  C3_5 
ROOT
HETATM    1  C2  UNL     1      25.207   2.490  51.273  1.00  0.00     0.173 C 
ENDROOT
BRANCH   1   2
HETATM    2  C1  UNL     1      24.964   3.914  50.805  1.00  0.00     0.111 C 
HETATM    3  N1  UNL     1      25.964   4.605  50.402  1.00  0.00    -0.314 NA
HETATM    4  H1  UNL     1      25.764   5.578  50.087  1.00  0.00     0.185 HD
ENDBRANCH   1   2
BRANCH   1   5
HETATM    5  N2  UNL     1      26.028   2.548  52.428  1.00  0.00    -0.375 N 
HETATM    6  H4  UNL     1      25.910   3.363  53.080  1.00  0.00     0.160 HD
BRANCH   5   7
HETATM    7  C3  UNL     1      27.031   1.619  52.848  1.00  0.00     0.030 A 
HETATM    8  C4  UNL     1      28.218   1.946  53.491  1.00  0.00     0.032 A 
HETATM    9  C5  UNL     1      29.198   1.087  53.907  1.00  0.00     0.046 A 
HETATM   10  C6  UNL     1      28.993  -0.252  53.663  1.00  0.00     0.138 A 
HETATM   11  F1  UNL     1      29.907  -1.179  54.038  1.00  0.00    -0.204 F 
HETATM   12  C7  UNL     1      27.841  -0.660  53.030  1.00  0.00     0.074 A 
HETATM   13 CL1  UNL     1      27.553  -2.363  52.708  1.00  0.00    -0.081 Cl
HETATM   14  C8  UNL     1      26.897   0.264  52.640  1.00  0.00     0.056 A 
ENDBRANCH   5   7
ENDBRANCH   1   5
BRANCH   1  15
HETATM   15  C9  UNL     1      23.844   1.917  51.525  1.00  0.00     0.056 C 
HETATM   16  C10 UNL     1      23.019   1.892  50.446  1.00  0.00     0.169 C 
HETATM   17  O1  UNL     1      21.699   1.471  50.177  1.00  0.00    -0.320 OA
HETATM   18  C11 UNL     1      20.914   0.786  51.125  1.00  0.00     0.083 A 
HETATM   19  C12 UNL     1      19.606   0.715  50.648  1.00  0.00     0.039 A 
HETATM   20  C16 UNL     1      21.282   0.244  52.340  1.00  0.00    -0.005 A 
HETATM   21  C13 UNL     1      18.625   0.102  51.367  1.00  0.00     0.026 A 
HETATM   22  C14 UNL     1      18.959  -0.451  52.589  1.00  0.00     0.034 A 
HETATM   23 CL2  UNL     1      17.688  -1.230  53.490  1.00  0.00    -0.084 Cl
HETATM   24  C15 UNL     1      20.261  -0.364  53.032  1.00  0.00     0.035 A 
HETATM   25  C17 UNL     1      22.603   0.210  53.026  1.00  0.00     0.161 C 
HETATM   26  N3  UNL     1      23.386   1.398  52.783  1.00  0.00    -0.385 N 
HETATM   27  H14 UNL     1      23.733   2.065  53.535  1.00  0.00     0.159 HD
ENDBRANCH   1  15
TORSDOF 4
ENDMDL
MODEL 2
REMARK VINA RESULT:      -8.2      3.644      5.102
REMARK  4 active torsions:
REMARK  status: ('A' for Active; 'I' for Inactive)
REMARK    1  A    between atoms: C1_2  and  C2_3 
REMARK    2  A    between atoms: C2_3  and  N2_4 
REMARK    3  A    between atoms: C2_3  and  C9_13 
REMARK    4  A    between atoms: N2_4  and  C3_5 
ROOT
HETATM    1  C2  UNL     1      25.334   2.837  51.448  1.00  0.00     0.173 C 
ENDROOT
BRANCH   1   2
HETATM    2  C1  UNL     1      26.591   2.025  51.702  1.00  0.00     0.111 C 
HETATM    3  N1  UNL     1      27.611   2.616  52.202  1.00  0.00    -0.314 NA
HETATM    4  H1  UNL     1      28.458   2.031  52.364  1.00  0.00     0.185 HD
ENDBRANCH   1   2
BRANCH   1   5
HETATM    5  N2  UNL     1      25.306   3.172  50.070  1.00  0.00    -0.375 N 
HETATM    6  H4  UNL     1      24.826   2.511  49.409  1.00  0.00     0.160 HD
BRANCH   5   7
HETATM    7  C3  UNL     1      25.856   4.325  49.428  1.00  0.00     0.030 A 
HETATM    8  C4  UNL     1      25.158   5.480  49.101  1.00  0.00     0.032 A 
HETATM    9  C5  UNL     1      25.650   6.600  48.488  1.00  0.00     0.046 A 
HETATM   10  C6  UNL     1      26.984   6.588  48.153  1.00  0.00     0.138 A 
HETATM   11  F1  UNL     1      27.562   7.650  47.544  1.00  0.00    -0.204 F 
HETATM   12  C7  UNL     1      27.748   5.480  48.443  1.00  0.00     0.074 A 
HETATM   13 CL1  UNL     1      29.455   5.438  48.027  1.00  0.00    -0.081 Cl
HETATM   14  C8  UNL     1      27.184   4.387  49.063  1.00  0.00     0.056 A 
ENDBRANCH   5   7
ENDBRANCH   1   5
BRANCH   1  15
HETATM   15  C9  UNL     1      24.199   1.959  51.882  1.00  0.00     0.056 C 
HETATM   16  C10 UNL     1      24.455   1.174  52.962  1.00  0.00     0.169 C 
HETATM   17  O1  UNL     1      23.748   0.219  53.723  1.00  0.00    -0.320 OA
HETATM   18  C11 UNL     1      22.381  -0.051  53.520  1.00  0.00     0.083 A 
HETATM   19  C12 UNL     1      22.040  -1.185  54.255  1.00  0.00     0.039 A 
HETATM   20  C16 UNL     1      21.460   0.627  52.749  1.00  0.00    -0.005 A 
HETATM   21  C13 UNL     1      20.770  -1.678  54.244  1.00  0.00     0.026 A 
HETATM   22  C14 UNL     1      19.822  -1.023  53.482  1.00  0.00     0.034 A 
HETATM   23 CL2  UNL     1      18.205  -1.671  53.483  1.00  0.00    -0.084 Cl
HETATM   24  C15 UNL     1      20.191   0.095  52.766  1.00  0.00     0.035 A 
HETATM   25  C17 UNL     1      21.612   1.840  51.899  1.00  0.00     0.161 C 
HETATM   26  N3  UNL     1      22.905   1.914  51.262  1.00  0.00    -0.385 N 
HETATM   27  H14 UNL     1      23.067   1.941  50.211  1.00  0.00     0.159 HD
ENDBRANCH   1  15
TORSDOF 4
ENDMDL
MODEL 3
REMARK VINA RESULT:      -8.0      2.415      3.664
REMARK  4 active torsions:
REMARK  status: ('A' for Active; 'I' for Inactive)
REMARK    1  A    between atoms: C1_2  and  C2_3 
REMARK    2  A    between atoms: C2_3  and  N2_4 
REMARK    3  A    between atoms: C2_3  and  C9_13 
REMARK    4  A    between atoms: N2_4  and  C3_5 
ROOT
HETATM    1  C2  UNL     1      22.700  -0.329  54.145  1.00  0.00     0.173 C 
ENDROOT
BRANCH   1   2
HETATM    2  C1  UNL     1      22.528  -1.507  55.086  1.00  0.00     0.111 C 
HETATM    3  N1  UNL     1      23.415  -1.706  55.988  1.00  0.00    -0.314 NA
HETATM    4  H1  UNL     1      23.268  -2.523  56.618  1.00  0.00     0.185 HD
ENDBRANCH   1   2
BRANCH   1   5
HETATM    5  N2  UNL     1      23.785  -0.620  53.279  1.00  0.00    -0.375 N 
HETATM    6  H4  UNL     1      23.644  -1.348  52.535  1.00  0.00     0.160 HD
BRANCH   5   7
HETATM    7  C3  UNL     1      25.093  -0.042  53.273  1.00  0.00     0.030 A 
HETATM    8  C4  UNL     1      25.377   1.317  53.284  1.00  0.00     0.032 A 
HETATM    9  C5  UNL     1      26.612   1.906  53.279  1.00  0.00     0.046 A 
HETATM   10  C6  UNL     1      27.700   1.064  53.259  1.00  0.00     0.138 A 
HETATM   11  F1  UNL     1      28.963   1.552  53.252  1.00  0.00    -0.204 F 
HETATM   12  C7  UNL     1      27.504  -0.299  53.248  1.00  0.00     0.074 A 
HETATM   13 CL1  UNL     1      28.876  -1.397  53.223  1.00  0.00    -0.081 Cl
HETATM   14  C8  UNL     1      26.230  -0.820  53.254  1.00  0.00     0.056 A 
ENDBRANCH   5   7
ENDBRANCH   1   5
BRANCH   1  15
HETATM   15  C9  UNL     1      21.384  -0.186  53.442  1.00  0.00     0.056 C 
HETATM   16  C10 UNL     1      21.462   0.179  52.135  1.00  0.00     0.169 C 
HETATM   17  O1  UNL     1      20.551   0.432  51.088  1.00  0.00    -0.320 OA
HETATM   18  C11 UNL     1      19.166   0.206  51.216  1.00  0.00     0.083 A 
HETATM   19  C12 UNL     1      18.524   0.762  50.111  1.00  0.00     0.039 A 
HETATM   20  C16 UNL     1      18.474  -0.439  52.219  1.00  0.00    -0.005 A 
HETATM   21  C13 UNL     1      17.171   0.692  49.972  1.00  0.00     0.026 A 
HETATM   22  C14 UNL     1      16.445   0.052  50.959  1.00  0.00     0.034 A 
HETATM   23 CL2  UNL     1      14.717  -0.027  50.761  1.00  0.00    -0.084 Cl
HETATM   24  C15 UNL     1      17.111  -0.487  52.039  1.00  0.00     0.035 A 
HETATM   25  C17 UNL     1      18.958  -1.093  53.466  1.00  0.00     0.161 C 
HETATM   26  N3  UNL     1      20.099  -0.420  54.039  1.00  0.00    -0.385 N 
HETATM   27  H14 UNL     1      20.131   0.007  55.013  1.00  0.00     0.159 HD
ENDBRANCH   1  15
TORSDOF 4
ENDMDL
MODEL 4
REMARK VINA RESULT:      -8.0      4.546      8.034
REMARK  4 active torsions:
REMARK  status: ('A' for Active; 'I' for Inactive)
REMARK    1  A    between atoms: C1_2  and  C2_3 
REMARK    2  A    between atoms: C2_3  and  N2_4 
REMARK    3  A    between atoms: C2_3  and  C9_13 
REMARK    4  A    between atoms: N2_4  and  C3_5 
ROOT
HETATM    1  C2  UNL     1      24.180   4.079  51.209  1.00  0.00     0.173 C 
ENDROOT
BRANCH   1   2
HETATM    2  C1  UNL     1      22.941   4.913  50.937  1.00  0.00     0.111 C 
HETATM    3  N1  UNL     1      22.637   5.846  51.760  1.00  0.00    -0.314 NA
HETATM    4  H1  UNL     1      21.781   6.400  51.544  1.00  0.00     0.185 HD
ENDBRANCH   1   2
BRANCH   1   5
HETATM    5  N2  UNL     1      23.925   2.761  50.750  1.00  0.00    -0.375 N 
HETATM    6  H4  UNL     1      24.103   2.547  49.738  1.00  0.00     0.160 HD
BRANCH   5   7
HETATM    7  C3  UNL     1      23.444   1.641  51.498  1.00  0.00     0.030 A 
HETATM    8  C4  UNL     1      22.202   1.040  51.345  1.00  0.00     0.032 A 
HETATM    9  C5  UNL     1      21.708  -0.030  52.040  1.00  0.00     0.046 A 
HETATM   10  C6  UNL     1      22.528  -0.577  53.001  1.00  0.00     0.138 A 
HETATM   11  F1  UNL     1      22.128  -1.638  53.741  1.00  0.00    -0.204 F 
HETATM   12  C7  UNL     1      23.778  -0.039  53.214  1.00  0.00     0.074 A 
HETATM   13 CL1  UNL     1      24.845  -0.718  54.434  1.00  0.00    -0.081 Cl
HETATM   14  C8  UNL     1      24.207   1.040  52.475  1.00  0.00     0.056 A 
ENDBRANCH   5   7
ENDBRANCH   1   5
BRANCH   1  15
HETATM   15  C9  UNL     1      25.294   4.771  50.482  1.00  0.00     0.056 C 
HETATM   16  C10 UNL     1      26.181   3.948  49.864  1.00  0.00     0.169 C 
HETATM   17  O1  UNL     1      27.348   4.101  49.086  1.00  0.00    -0.320 OA
HETATM   18  C11 UNL     1      27.810   5.359  48.653  1.00  0.00     0.083 A 
HETATM   19  C12 UNL     1      29.085   5.199  48.113  1.00  0.00     0.039 A 
HETATM   20  C16 UNL     1      27.187   6.588  48.709  1.00  0.00    -0.005 A 
HETATM   21  C13 UNL     1      29.778   6.260  47.613  1.00  0.00     0.026 A 
HETATM   22  C14 UNL     1      29.183   7.507  47.654  1.00  0.00     0.034 A 
HETATM   23 CL2  UNL     1      30.086   8.848  47.009  1.00  0.00    -0.084 Cl
HETATM   24  C15 UNL     1      27.921   7.631  48.195  1.00  0.00     0.035 A 
HETATM   25  C17 UNL     1      25.848   6.973  49.237  1.00  0.00     0.161 C 
HETATM   26  N3  UNL     1      25.460   6.194  50.388  1.00  0.00    -0.385 N 
HETATM   27  H14 UNL     1      25.243   6.592  51.351  1.00  0.00     0.159 HD
ENDBRANCH   1  15
TORSDOF 4
ENDMDL
MODEL 5
REMARK VINA RESULT:      -8.0      5.020      6.576
REMARK  4 active torsions:
REMARK  status: ('A' for Active; 'I' for Inactive)
REMARK    1  A    between atoms: C1_2  and  C2_3 
REMARK    2  A    between atoms: C2_3  and  N2_4 
REMARK    3  A    between atoms: C2_3  and  C9_13 
REMARK    4  A    between atoms: N2_4  and  C3_5 
ROOT
HETATM    1  C2  UNL     1      26.135   4.917  49.099  1.00  0.00     0.173 C 
ENDROOT
BRANCH   1   2
HETATM    2  C1  UNL     1      25.354   6.141  49.541  1.00  0.00     0.111 C 
HETATM    3  N1  UNL     1      25.436   6.511  50.764  1.00  0.00    -0.314 NA
HETATM    4  H1  UNL     1      24.888   7.355  51.036  1.00  0.00     0.185 HD
ENDBRANCH   1   2
BRANCH   1   5
HETATM    5  N2  UNL     1      27.516   5.214  49.228  1.00  0.00    -0.375 N 
HETATM    6  H4  UNL     1      28.033   4.817  50.051  1.00  0.00     0.160 HD
BRANCH   5   7
HETATM    7  C3  UNL     1      28.336   6.004  48.363  1.00  0.00     0.030 A 
HETATM    8  C4  UNL     1      27.920   7.121  47.651  1.00  0.00     0.032 A 
HETATM    9  C5  UNL     1      28.674   7.900  46.816  1.00  0.00     0.046 A 
HETATM   10  C6  UNL     1      29.993   7.543  46.659  1.00  0.00     0.138 A 
HETATM   11  F1  UNL     1      30.819   8.253  45.853  1.00  0.00    -0.204 F 
HETATM   12  C7  UNL     1      30.486   6.448  47.331  1.00  0.00     0.074 A 
HETATM   13 CL1  UNL     1      32.167   5.970  47.149  1.00  0.00    -0.081 Cl
HETATM   14  C8  UNL     1      29.667   5.710  48.156  1.00  0.00     0.056 A 
ENDBRANCH   5   7
ENDBRANCH   1   5
BRANCH   1  15
HETATM   15  C9  UNL     1      25.667   3.804  49.987  1.00  0.00     0.056 C 
HETATM   16  C10 UNL     1      26.649   2.998  50.471  1.00  0.00     0.169 C 
HETATM   17  O1  UNL     1      26.722   1.866  51.309  1.00  0.00    -0.320 OA
HETATM   18  C11 UNL     1      25.601   1.354  51.991  1.00  0.00     0.083 A 
HETATM   19  C12 UNL     1      25.944   0.119  52.540  1.00  0.00     0.039 A 
HETATM   20  C16 UNL     1      24.344   1.901  52.144  1.00  0.00    -0.005 A 
HETATM   21  C13 UNL     1      25.044  -0.608  53.259  1.00  0.00     0.026 A 
HETATM   22  C14 UNL     1      23.774  -0.089  53.432  1.00  0.00     0.034 A 
HETATM   23 CL2  UNL     1      22.640  -1.035  54.355  1.00  0.00    -0.084 Cl
HETATM   24  C15 UNL     1      23.468   1.134  52.876  1.00  0.00     0.035 A 
HETATM   25  C17 UNL     1      23.779   3.186  51.648  1.00  0.00     0.161 C 
HETATM   26  N3  UNL     1      24.301   3.560  50.355  1.00  0.00    -0.385 N 
HETATM   27  H14 UNL     1      23.716   3.704  49.478  1.00  0.00     0.159 HD
ENDBRANCH   1  15
TORSDOF 4
ENDMDL
MODEL 6
REMARK VINA RESULT:      -7.9      3.554      6.549
REMARK  4 active torsions:
REMARK  status: ('A' for Active; 'I' for Inactive)
REMARK    1  A    between atoms: C1_2  and  C2_3 
REMARK    2  A    between atoms: C2_3  and  N2_4 
REMARK    3  A    between atoms: C2_3  and  C9_13 
REMARK    4  A    between atoms: N2_4  and  C3_5 
ROOT
HETATM    1  C2  UNL     1      23.072   2.687  51.772  1.00  0.00     0.173 C 
ENDROOT
BRANCH   1   2
HETATM    2  C1  UNL     1      22.675   1.594  50.796  1.00  0.00     0.111 C 
HETATM    3  N1  UNL     1      21.759   0.768  51.139  1.00  0.00    -0.314 NA
HETATM    4  H1  UNL     1      21.510   0.030  50.446  1.00  0.00     0.185 HD
ENDBRANCH   1   2
BRANCH   1   5
HETATM    5  N2  UNL     1      23.701   2.068  52.883  1.00  0.00    -0.375 N 
HETATM    6  H4  UNL     1      23.189   2.058  53.799  1.00  0.00     0.160 HD
BRANCH   5   7
HETATM    7  C3  UNL     1      24.980   1.431  52.934  1.00  0.00     0.030 A 
HETATM    8  C4  UNL     1      25.226   0.088  52.681  1.00  0.00     0.032 A 
HETATM    9  C5  UNL     1      26.433  -0.555  52.720  1.00  0.00     0.046 A 
HETATM   10  C6  UNL     1      27.531   0.207  53.049  1.00  0.00     0.138 A 
HETATM   11  F1  UNL     1      28.768  -0.340  53.114  1.00  0.00    -0.204 F 
HETATM   12  C7  UNL     1      27.373   1.548  53.315  1.00  0.00     0.074 A 
HETATM   13 CL1  UNL     1      28.758   2.544  53.736  1.00  0.00    -0.081 Cl
HETATM   14  C8  UNL     1      26.125   2.128  53.255  1.00  0.00     0.056 A 
ENDBRANCH   5   7
ENDBRANCH   1   5
BRANCH   1  15
HETATM   15  C9  UNL     1      23.971   3.604  50.998  1.00  0.00     0.056 C 
HETATM   16  C10 UNL     1      23.925   4.910  51.372  1.00  0.00     0.169 C 
HETATM   17  O1  UNL     1      24.549   6.111  50.973  1.00  0.00    -0.320 OA
HETATM   18  C11 UNL     1      25.589   6.145  50.023  1.00  0.00     0.083 A 
HETATM   19  C12 UNL     1      25.830   7.474  49.680  1.00  0.00     0.039 A 
HETATM   20  C16 UNL     1      26.303   5.104  49.468  1.00  0.00    -0.005 A 
HETATM   21  C13 UNL     1      26.791   7.806  48.774  1.00  0.00     0.026 A 
HETATM   22  C14 UNL     1      27.526   6.787  48.198  1.00  0.00     0.034 A 
HETATM   23 CL2  UNL     1      28.749   7.234  47.042  1.00  0.00    -0.084 Cl
HETATM   24  C15 UNL     1      27.261   5.483  48.558  1.00  0.00     0.035 A 
HETATM   25  C17 UNL     1      26.206   3.634  49.691  1.00  0.00     0.161 C 
HETATM   26  N3  UNL     1      24.853   3.198  49.941  1.00  0.00    -0.385 N 
HETATM   27  H14 UNL     1      24.318   2.496  49.347  1.00  0.00     0.159 HD
ENDBRANCH   1  15
TORSDOF 4
ENDMDL
MODEL 7
REMARK VINA RESULT:      -7.8      3.170      7.453
REMARK  4 active torsions:
REMARK  status: ('A' for Active; 'I' for Inactive)
REMARK    1  A    between atoms: C1_2  and  C2_3 
REMARK    2  A    between atoms: C2_3  and  N2_4 
REMARK    3  A    between atoms: C2_3  and  C9_13 
REMARK    4  A    between atoms: N2_4  and  C3_5 
ROOT
HETATM    1  C2  UNL     1      22.909   3.025  52.562  1.00  0.00     0.173 C 
ENDROOT
BRANCH   1   2
HETATM    2  C1  UNL     1      23.346   4.312  51.886  1.00  0.00     0.111 C 
HETATM    3  N1  UNL     1      22.884   5.422  52.324  1.00  0.00    -0.314 NA
HETATM    4  H1  UNL     1      23.203   6.287  51.839  1.00  0.00     0.185 HD
ENDBRANCH   1   2
BRANCH   1   5
HETATM    5  N2  UNL     1      21.944   2.403  51.728  1.00  0.00    -0.375 N 
HETATM    6  H4  UNL     1      21.921   2.671  50.713  1.00  0.00     0.160 HD
BRANCH   5   7
HETATM    7  C3  UNL     1      20.963   1.427  52.086  1.00  0.00     0.030 A 
HETATM    8  C4  UNL     1      20.949   0.686  53.260  1.00  0.00     0.032 A 
HETATM    9  C5  UNL     1      20.029  -0.255  53.635  1.00  0.00     0.046 A 
HETATM   10  C6  UNL     1      19.000  -0.501  52.755  1.00  0.00     0.138 A 
HETATM   11  F1  UNL     1      18.041  -1.414  53.038  1.00  0.00    -0.204 F 
HETATM   12  C7  UNL     1      18.940   0.193  51.568  1.00  0.00     0.074 A 
HETATM   13 CL1  UNL     1      17.637  -0.101  50.426  1.00  0.00    -0.081 Cl
HETATM   14  C8  UNL     1      19.903   1.126  51.257  1.00  0.00     0.056 A 
ENDBRANCH   5   7
ENDBRANCH   1   5
BRANCH   1  15
HETATM   15  C9  UNL     1      24.164   2.223  52.741  1.00  0.00     0.056 C 
HETATM   16  C10 UNL     1      25.100   2.787  53.549  1.00  0.00     0.169 C 
HETATM   17  O1  UNL     1      26.388   2.447  54.014  1.00  0.00    -0.320 OA
HETATM   18  C11 UNL     1      26.981   1.195  53.757  1.00  0.00     0.083 A 
HETATM   19  C12 UNL     1      28.319   1.253  54.142  1.00  0.00     0.039 A 
HETATM   20  C16 UNL     1      26.420   0.054  53.220  1.00  0.00    -0.005 A 
HETATM   21  C13 UNL     1      29.140   0.174  54.005  1.00  0.00     0.026 A 
HETATM   22  C14 UNL     1      28.611  -0.986  53.471  1.00  0.00     0.034 A 
HETATM   23 CL2  UNL     1      29.678  -2.352  53.305  1.00  0.00    -0.084 Cl
HETATM   24  C15 UNL     1      27.284  -1.009  53.099  1.00  0.00     0.035 A 
HETATM   25  C17 UNL     1      25.034  -0.216  52.750  1.00  0.00     0.161 C 
HETATM   26  N3  UNL     1      24.416   0.941  52.147  1.00  0.00    -0.385 N 
HETATM   27  H14 UNL     1      24.060   0.991  51.145  1.00  0.00     0.159 HD
ENDBRANCH   1  15
TORSDOF 4
ENDMDL
MODEL 8
REMARK VINA RESULT:      -7.8      1.870      2.598
REMARK  4 active torsions:
REMARK  status: ('A' for Active; 'I' for Inactive)
REMARK    1  A    between atoms: C1_2  and  C2_3 
REMARK    2  A    between atoms: C2_3  and  N2_4 
REMARK    3  A    between atoms: C2_3  and  C9_13 
REMARK    4  A    between atoms: N2_4  and  C3_5 
ROOT
HETATM    1  C2  UNL     1      23.820   2.114  51.903  1.00  0.00     0.173 C 
ENDROOT
BRANCH   1   2
HETATM    2  C1  UNL     1      23.537   3.606  51.909  1.00  0.00     0.111 C 
HETATM    3  N1  UNL     1      24.066   4.326  52.826  1.00  0.00    -0.314 NA
HETATM    4  H1  UNL     1      23.852   5.346  52.801  1.00  0.00     0.185 HD
ENDBRANCH   1   2
BRANCH   1   5
HETATM    5  N2  UNL     1      24.591   1.815  53.056  1.00  0.00    -0.375 N 
HETATM    6  H4  UNL     1      24.241   2.152  53.987  1.00  0.00     0.160 HD
BRANCH   5   7
HETATM    7  C3  UNL     1      25.821   1.090  53.134  1.00  0.00     0.030 A 
HETATM    8  C4  UNL     1      26.029  -0.203  52.673  1.00  0.00     0.032 A 
HETATM    9  C5  UNL     1      27.189  -0.927  52.731  1.00  0.00     0.046 A 
HETATM   10  C6  UNL     1      28.275  -0.312  53.310  1.00  0.00     0.138 A 
HETATM   11  F1  UNL     1      29.466  -0.947  53.414  1.00  0.00    -0.204 F 
HETATM   12  C7  UNL     1      28.152   0.972  53.792  1.00  0.00     0.074 A 
HETATM   13 CL1  UNL     1      29.523   1.782  54.536  1.00  0.00    -0.081 Cl
HETATM   14  C8  UNL     1      26.951   1.639  53.699  1.00  0.00     0.056 A 
ENDBRANCH   5   7
ENDBRANCH   1   5
BRANCH   1  15
HETATM   15  C9  UNL     1      22.474   1.454  51.884  1.00  0.00     0.056 C 
HETATM   16  C10 UNL     1      22.103   0.863  53.050  1.00  0.00     0.169 C 
HETATM   17  O1  UNL     1      20.983   0.145  53.522  1.00  0.00    -0.320 OA
HETATM   18  C11 UNL     1      19.810  -0.016  52.760  1.00  0.00     0.083 A 
HETATM   19  C12 UNL     1      18.995  -0.952  53.396  1.00  0.00     0.039 A 
HETATM   20  C16 UNL     1      19.441   0.597  51.581  1.00  0.00    -0.005 A 
HETATM   21  C13 UNL     1      17.787  -1.305  52.875  1.00  0.00     0.026 A 
HETATM   22  C14 UNL     1      17.386  -0.710  51.694  1.00  0.00     0.034 A 
HETATM   23 CL2  UNL     1      15.838  -1.176  51.047  1.00  0.00    -0.084 Cl
HETATM   24  C15 UNL     1      18.215   0.211  51.090  1.00  0.00     0.035 A 
HETATM   25  C17 UNL     1      20.151   1.608  50.749  1.00  0.00     0.161 C 
HETATM   26  N3  UNL     1      21.583   1.428  50.758  1.00  0.00    -0.385 N 
HETATM   27  H14 UNL     1      22.181   1.241  49.898  1.00  0.00     0.159 HD
ENDBRANCH   1  15
TORSDOF 4
ENDMDL
MODEL 9
REMARK VINA RESULT:      -7.7      3.796      7.022
REMARK  4 active torsions:
REMARK  status: ('A' for Active; 'I' for Inactive)
REMARK    1  A    between atoms: C1_2  and  C2_3 
REMARK    2  A    between atoms: C2_3  and  N2_4 
REMARK    3  A    between atoms: C2_3  and  C9_13 
REMARK    4  A    between atoms: N2_4  and  C3_5 
ROOT
HETATM    1  C2  UNL     1      21.987   3.517  51.996  1.00  0.00     0.173 C 
ENDROOT
BRANCH   1   2
HETATM    2  C1  UNL     1      20.753   4.166  51.394  1.00  0.00     0.111 C 
HETATM    3  N1  UNL     1      20.614   4.156  50.122  1.00  0.00    -0.314 NA
HETATM    4  H1  UNL     1      19.756   4.609  49.741  1.00  0.00     0.185 HD
ENDBRANCH   1   2
BRANCH   1   5
HETATM    5  N2  UNL     1      21.852   2.113  51.853  1.00  0.00    -0.375 N 
HETATM    6  H4  UNL     1      21.539   1.738  50.923  1.00  0.00     0.160 HD
BRANCH   5   7
HETATM    7  C3  UNL     1      22.093   1.096  52.829  1.00  0.00     0.030 A 
HETATM    8  C4  UNL     1      21.138   0.540  53.670  1.00  0.00     0.032 A 
HETATM    9  C5  UNL     1      21.330  -0.431  54.615  1.00  0.00     0.046 A 
HETATM   10  C6  UNL     1      22.611  -0.915  54.753  1.00  0.00     0.138 A 
HETATM   11  F1  UNL     1      22.900  -1.878  55.661  1.00  0.00    -0.204 F 
HETATM   12  C7  UNL     1      23.616  -0.417  53.956  1.00  0.00     0.074 A 
HETATM   13 CL1  UNL     1      25.260  -1.018  54.113  1.00  0.00    -0.081 Cl
HETATM   14  C8  UNL     1      23.347   0.562  53.026  1.00  0.00     0.056 A 
ENDBRANCH   5   7
ENDBRANCH   1   5
BRANCH   1  15
HETATM   15  C9  UNL     1      23.148   4.096  51.244  1.00  0.00     0.056 C 
HETATM   16  C10 UNL     1      24.094   3.199  50.860  1.00  0.00     0.169 C 
HETATM   17  O1  UNL     1      25.319   3.240  50.160  1.00  0.00    -0.320 OA
HETATM   18  C11 UNL     1      25.799   4.411  49.541  1.00  0.00     0.083 A 
HETATM   19  C12 UNL     1      27.116   4.191  49.142  1.00  0.00     0.039 A 
HETATM   20  C16 UNL     1      25.157   5.612  49.322  1.00  0.00    -0.005 A 
HETATM   21  C13 UNL     1      27.834   5.162  48.511  1.00  0.00     0.026 A 
HETATM   22  C14 UNL     1      27.221   6.379  48.275  1.00  0.00     0.034 A 
HETATM   23 CL2  UNL     1      28.157   7.605  47.468  1.00  0.00    -0.084 Cl
HETATM   24  C15 UNL     1      25.917   6.564  48.684  1.00  0.00     0.035 A 
HETATM   25  C17 UNL     1      23.775   6.050  49.663  1.00  0.00     0.161 C 
HETATM   26  N3  UNL     1      23.303   5.483  50.903  1.00  0.00    -0.385 N 
HETATM   27  H14 UNL     1      23.002   6.043  51.756  1.00  0.00     0.159 HD
ENDBRANCH   1  15
TORSDOF 4
ENDMDL
