MODEL 1
REMARK VINA RESULT:      -8.8      0.000      0.000
REMARK  4 active torsions:
REMARK  status: ('A' for Active; 'I' for Inactive)
REMARK    1  A    between atoms: C4_5  and  N1_6 
REMARK    2  A    between atoms: N1_6  and  C5_7 
REMARK    3  A    between atoms: C8_12  and  C9_13 
REMARK    4  A    between atoms: C10_15  and  C11_16 
ROOT
HETATM    1  C5  UNL     1      24.541   2.636  51.269  1.00  0.00     0.139 A 
HETATM    2  N2  UNL     1      23.498   1.798  51.224  1.00  0.00    -0.224 NA
HETATM    3  C6  UNL     1      22.627   1.729  50.207  1.00  0.00     0.234 A 
HETATM    4  N3  UNL     1      22.782   2.543  49.145  1.00  0.00    -0.253 NA
HETATM    5  C7  UNL     1      23.798   3.425  49.090  1.00  0.00     0.131 A 
HETATM    6  C8  UNL     1      24.658   3.449  50.162  1.00  0.00     0.041 A 
ENDROOT
BRANCH   1   7
HETATM    7  N1  UNL     1      25.489   2.757  52.304  1.00  0.00    -0.340 N 
HETATM    8  H3  UNL     1      25.458   3.612  52.909  1.00  0.00     0.167 HD
BRANCH   7   9
HETATM    9  C4  UNL     1      26.519   1.847  52.653  1.00  0.00     0.035 A 
HETATM   10  C3  UNL     1      27.729   2.283  53.209  1.00  0.00     0.032 A 
HETATM   11  C2  UNL     1      28.742   1.443  53.557  1.00  0.00     0.046 A 
HETATM   12  C1  UNL     1      28.630   0.093  53.380  1.00  0.00     0.133 A 
HETATM   13  F1  UNL     1      29.673  -0.680  53.747  1.00  0.00    -0.205 F 
HETATM   14  C18 UNL     1      27.469  -0.398  52.840  1.00  0.00     0.051 A 
HETATM   15  C17 UNL     1      26.467   0.479  52.499  1.00  0.00     0.051 A 
HETATM   16 BR1  UNL     1      27.302  -2.276  52.587  1.00  0.00    -0.048 Br
ENDBRANCH   7   9
ENDBRANCH   1   7
BRANCH   6  17
HETATM   17  C9  UNL     1      25.787   4.439  50.085  1.00  0.00     0.297 A 
HETATM   18  N4  UNL     1      25.433   5.841  50.527  1.00  0.00     0.106 N 
HETATM   19  C10 UNL     1      25.762   5.560  49.177  1.00  0.00     0.292 A 
HETATM   20  H7  UNL     1      26.093   6.247  51.220  1.00  0.00     0.317 HD
BRANCH  19  21
HETATM   21  C11 UNL     1      27.048   5.966  48.562  1.00  0.00    -0.023 A 
HETATM   22  C12 UNL     1      28.176   5.174  48.571  1.00  0.00     0.009 A 
HETATM   23  C13 UNL     1      29.382   5.528  48.007  1.00  0.00     0.001 A 
HETATM   24  C14 UNL     1      29.480   6.765  47.383  1.00  0.00     0.000 A 
HETATM   25  C15 UNL     1      28.392   7.601  47.339  1.00  0.00     0.001 A 
HETATM   26  C16 UNL     1      27.233   7.191  47.915  1.00  0.00     0.009 A 
ENDBRANCH  19  21
ENDBRANCH   6  17
TORSDOF 4
ENDMDL
MODEL 2
REMARK VINA RESULT:      -8.8      4.312      7.857
REMARK  4 active torsions:
REMARK  status: ('A' for Active; 'I' for Inactive)
REMARK    1  A    between atoms: C4_5  and  N1_6 
REMARK    2  A    between atoms: N1_6  and  C5_7 
REMARK    3  A    between atoms: C8_12  and  C9_13 
REMARK    4  A    between atoms: C10_15  and  C11_16 
ROOT
HETATM    1  C5  UNL     1      26.974   2.069  54.036  1.00  0.00     0.139 A 
HETATM    2  N2  UNL     1      28.163   2.674  53.926  1.00  0.00    -0.224 NA
HETATM    3  C6  UNL     1      29.343   2.052  54.068  1.00  0.00     0.234 A 
HETATM    4  N3  UNL     1      29.369   0.733  54.338  1.00  0.00    -0.253 NA
HETATM    5  C7  UNL     1      28.230   0.029  54.468  1.00  0.00     0.131 A 
HETATM    6  C8  UNL     1      27.051   0.721  54.313  1.00  0.00     0.041 A 
ENDROOT
BRANCH   1   7
HETATM    7  N1  UNL     1      25.704   2.662  53.899  1.00  0.00    -0.340 N 
HETATM    8  H3  UNL     1      25.209   2.980  54.765  1.00  0.00     0.167 HD
BRANCH   7   9
HETATM    9  C4  UNL     1      24.976   2.896  52.704  1.00  0.00     0.035 A 
HETATM   10  C3  UNL     1      25.559   2.723  51.442  1.00  0.00     0.032 A 
HETATM   11  C2  UNL     1      24.896   2.936  50.273  1.00  0.00     0.046 A 
HETATM   12  C1  UNL     1      23.591   3.339  50.267  1.00  0.00     0.133 A 
HETATM   13  F1  UNL     1      22.995   3.531  49.071  1.00  0.00    -0.205 F 
HETATM   14  C18 UNL     1      22.962   3.525  51.470  1.00  0.00     0.051 A 
HETATM   15  C17 UNL     1      23.662   3.301  52.632  1.00  0.00     0.051 A 
HETATM   16 BR1  UNL     1      21.144   4.087  51.474  1.00  0.00    -0.048 Br
ENDBRANCH   7   9
ENDBRANCH   1   7
BRANCH   6  17
HETATM   17  C9  UNL     1      25.788  -0.080  54.461  1.00  0.00     0.297 A 
HETATM   18  N4  UNL     1      25.855  -1.482  53.899  1.00  0.00     0.106 N 
HETATM   19  C10 UNL     1      25.010  -0.502  53.321  1.00  0.00     0.292 A 
HETATM   20  H7  UNL     1      25.535  -2.219  54.559  1.00  0.00     0.317 HD
BRANCH  19  21
HETATM   21  C11 UNL     1      23.535  -0.521  53.474  1.00  0.00    -0.023 A 
HETATM   22  C12 UNL     1      22.667  -0.051  52.511  1.00  0.00     0.009 A 
HETATM   23  C13 UNL     1      21.295  -0.058  52.629  1.00  0.00     0.001 A 
HETATM   24  C14 UNL     1      20.736  -0.572  53.793  1.00  0.00     0.000 A 
HETATM   25  C15 UNL     1      21.546  -1.056  54.790  1.00  0.00     0.001 A 
HETATM   26  C16 UNL     1      22.892  -1.019  54.610  1.00  0.00     0.009 A 
ENDBRANCH  19  21
ENDBRANCH   6  17
TORSDOF 4
ENDMDL
MODEL 3
REMARK VINA RESULT:      -8.5      1.621      2.166
REMARK  4 active torsions:
REMARK  status: ('A' for Active; 'I' for Inactive)
REMARK    1  A    between atoms: C4_5  and  N1_6 
REMARK    2  A    between atoms: N1_6  and  C5_7 
REMARK    3  A    between atoms: C8_12  and  C9_13 
REMARK    4  A    between atoms: C10_15  and  C11_16 
ROOT
HETATM    1  C5  UNL     1      23.333   1.383  51.993  1.00  0.00     0.139 A 
HETATM    2  N2  UNL     1      22.293   0.543  51.908  1.00  0.00    -0.224 NA
HETATM    3  C6  UNL     1      21.445   0.494  50.870  1.00  0.00     0.234 A 
HETATM    4  N3  UNL     1      21.622   1.329  49.829  1.00  0.00    -0.253 NA
HETATM    5  C7  UNL     1      22.636   2.213  49.814  1.00  0.00     0.131 A 
HETATM    6  C8  UNL     1      23.472   2.218  50.905  1.00  0.00     0.041 A 
ENDROOT
BRANCH   1   7
HETATM    7  N1  UNL     1      24.257   1.485  53.051  1.00  0.00    -0.340 N 
HETATM    8  H3  UNL     1      24.000   2.070  53.880  1.00  0.00     0.167 HD
BRANCH   7   9
HETATM    9  C4  UNL     1      25.538   0.883  53.149  1.00  0.00     0.035 A 
HETATM   10  C3  UNL     1      25.757  -0.446  52.763  1.00  0.00     0.032 A 
HETATM   11  C2  UNL     1      26.969  -1.061  52.841  1.00  0.00     0.046 A 
HETATM   12  C1  UNL     1      28.066  -0.397  53.312  1.00  0.00     0.133 A 
HETATM   13  F1  UNL     1      29.236  -1.068  53.362  1.00  0.00    -0.205 F 
HETATM   14  C18 UNL     1      27.917   0.908  53.706  1.00  0.00     0.051 A 
HETATM   15  C17 UNL     1      26.679   1.497  53.614  1.00  0.00     0.051 A 
HETATM   16 BR1  UNL     1      29.439   1.842  54.365  1.00  0.00    -0.048 Br
ENDBRANCH   7   9
ENDBRANCH   1   7
BRANCH   6  17
HETATM   17  C9  UNL     1      24.600   3.211  50.872  1.00  0.00     0.297 A 
HETATM   18  N4  UNL     1      24.353   4.478  51.660  1.00  0.00     0.106 N 
HETATM   19  C10 UNL     1      24.464   4.505  50.247  1.00  0.00     0.292 A 
HETATM   20  H7  UNL     1      25.121   4.727  52.315  1.00  0.00     0.317 HD
BRANCH  19  21
HETATM   21  C11 UNL     1      25.651   5.049  49.544  1.00  0.00    -0.023 A 
HETATM   22  C12 UNL     1      26.775   4.301  49.265  1.00  0.00     0.009 A 
HETATM   23  C13 UNL     1      27.889   4.782  48.613  1.00  0.00     0.001 A 
HETATM   24  C14 UNL     1      27.891   6.110  48.205  1.00  0.00     0.000 A 
HETATM   25  C15 UNL     1      26.802   6.908  48.453  1.00  0.00     0.001 A 
HETATM   26  C16 UNL     1      25.736   6.370  49.100  1.00  0.00     0.009 A 
ENDBRANCH  19  21
ENDBRANCH   6  17
TORSDOF 4
ENDMDL
MODEL 4
REMARK VINA RESULT:      -8.4      3.479      6.496
REMARK  4 active torsions:
REMARK  status: ('A' for Active; 'I' for Inactive)
REMARK    1  A    between atoms: C4_5  and  N1_6 
REMARK    2  A    between atoms: N1_6  and  C5_7 
REMARK    3  A    between atoms: C8_12  and  C9_13 
REMARK    4  A    between atoms: C10_15  and  C11_16 
ROOT
HETATM    1  C5  UNL     1      24.365   3.461  51.577  1.00  0.00     0.139 A 
HETATM    2  N2  UNL     1      24.012   4.360  50.649  1.00  0.00    -0.224 NA
HETATM    3  C6  UNL     1      24.803   4.754  49.640  1.00  0.00     0.234 A 
HETATM    4  N3  UNL     1      26.038   4.230  49.522  1.00  0.00    -0.253 NA
HETATM    5  C7  UNL     1      26.491   3.317  50.402  1.00  0.00     0.131 A 
HETATM    6  C8  UNL     1      25.636   2.954  51.415  1.00  0.00     0.041 A 
ENDROOT
BRANCH   1   7
HETATM    7  N1  UNL     1      23.584   3.007  52.658  1.00  0.00    -0.340 N 
HETATM    8  H3  UNL     1      23.787   3.388  53.611  1.00  0.00     0.167 HD
BRANCH   7   9
HETATM    9  C4  UNL     1      22.522   2.067  52.631  1.00  0.00     0.035 A 
HETATM   10  C3  UNL     1      21.364   2.286  51.872  1.00  0.00     0.032 A 
HETATM   11  C2  UNL     1      20.324   1.411  51.819  1.00  0.00     0.046 A 
HETATM   12  C1  UNL     1      20.353   0.239  52.520  1.00  0.00     0.133 A 
HETATM   13  F1  UNL     1      19.287  -0.582  52.421  1.00  0.00    -0.205 F 
HETATM   14  C18 UNL     1      21.459  -0.036  53.282  1.00  0.00     0.051 A 
HETATM   15  C17 UNL     1      22.492   0.871  53.313  1.00  0.00     0.051 A 
HETATM   16 BR1  UNL     1      21.511  -1.666  54.263  1.00  0.00    -0.048 Br
ENDBRANCH   7   9
ENDBRANCH   1   7
BRANCH   6  17
HETATM   17  C9  UNL     1      26.157   1.934  52.389  1.00  0.00     0.297 A 
HETATM   18  N4  UNL     1      26.712   2.508  53.673  1.00  0.00     0.106 N 
HETATM   19  C10 UNL     1      27.555   1.854  52.740  1.00  0.00     0.292 A 
HETATM   20  H7  UNL     1      26.333   2.066  54.534  1.00  0.00     0.317 HD
BRANCH  19  21
HETATM   21  C11 UNL     1      28.120   0.504  52.977  1.00  0.00    -0.023 A 
HETATM   22  C12 UNL     1      29.396   0.289  53.453  1.00  0.00     0.009 A 
HETATM   23  C13 UNL     1      29.944  -0.954  53.681  1.00  0.00     0.001 A 
HETATM   24  C14 UNL     1      29.167  -2.074  53.417  1.00  0.00     0.000 A 
HETATM   25  C15 UNL     1      27.887  -1.929  52.942  1.00  0.00     0.001 A 
HETATM   26  C16 UNL     1      27.408  -0.674  52.738  1.00  0.00     0.009 A 
ENDBRANCH  19  21
ENDBRANCH   6  17
TORSDOF 4
ENDMDL
MODEL 5
REMARK VINA RESULT:      -8.3      4.183      7.949
REMARK  4 active torsions:
REMARK  status: ('A' for Active; 'I' for Inactive)
REMARK    1  A    between atoms: C4_5  and  N1_6 
REMARK    2  A    between atoms: N1_6  and  C5_7 
REMARK    3  A    between atoms: C8_12  and  C9_13 
REMARK    4  A    between atoms: C10_15  and  C11_16 
ROOT
HETATM    1  C5  UNL     1      26.844   1.682  52.913  1.00  0.00     0.139 A 
HETATM    2  N2  UNL     1      28.049   2.228  52.707  1.00  0.00    -0.224 NA
HETATM    3  C6  UNL     1      29.104   2.059  53.517  1.00  0.00     0.234 A 
HETATM    4  N3  UNL     1      28.977   1.297  54.620  1.00  0.00    -0.253 NA
HETATM    5  C7  UNL     1      27.808   0.702  54.921  1.00  0.00     0.131 A 
HETATM    6  C8  UNL     1      26.762   0.911  54.054  1.00  0.00     0.041 A 
ENDROOT
BRANCH   1   7
HETATM    7  N1  UNL     1      25.699   1.819  52.104  1.00  0.00    -0.340 N 
HETATM    8  H3  UNL     1      25.332   0.970  51.614  1.00  0.00     0.167 HD
BRANCH   7   9
HETATM    9  C4  UNL     1      24.948   2.996  51.850  1.00  0.00     0.035 A 
HETATM   10  C3  UNL     1      24.008   3.480  52.769  1.00  0.00     0.032 A 
HETATM   11  C2  UNL     1      23.268   4.604  52.565  1.00  0.00     0.046 A 
HETATM   12  C1  UNL     1      23.406   5.340  51.423  1.00  0.00     0.133 A 
HETATM   13  F1  UNL     1      22.640   6.443  51.287  1.00  0.00    -0.205 F 
HETATM   14  C18 UNL     1      24.311   4.919  50.483  1.00  0.00     0.051 A 
HETATM   15  C17 UNL     1      25.042   3.779  50.722  1.00  0.00     0.051 A 
HETATM   16 BR1  UNL     1      24.511   5.936  48.887  1.00  0.00    -0.048 Br
ENDBRANCH   7   9
ENDBRANCH   1   7
BRANCH   6  17
HETATM   17  C9  UNL     1      25.464   0.240  54.405  1.00  0.00     0.297 A 
HETATM   18  N4  UNL     1      25.531  -1.268  54.486  1.00  0.00     0.106 N 
HETATM   19  C10 UNL     1      24.773  -0.623  53.477  1.00  0.00     0.292 A 
HETATM   20  H7  UNL     1      25.131  -1.664  55.359  1.00  0.00     0.317 HD
BRANCH  19  21
HETATM   21  C11 UNL     1      23.291  -0.583  53.487  1.00  0.00    -0.023 A 
HETATM   22  C12 UNL     1      22.523  -1.168  54.472  1.00  0.00     0.009 A 
HETATM   23  C13 UNL     1      21.146  -1.145  54.504  1.00  0.00     0.001 A 
HETATM   24  C14 UNL     1      20.475  -0.491  53.480  1.00  0.00     0.000 A 
HETATM   25  C15 UNL     1      21.181   0.113  52.469  1.00  0.00     0.001 A 
HETATM   26  C16 UNL     1      22.537   0.053  52.498  1.00  0.00     0.009 A 
ENDBRANCH  19  21
ENDBRANCH   6  17
TORSDOF 4
ENDMDL
MODEL 6
REMARK VINA RESULT:      -8.2      4.029      6.562
REMARK  4 active torsions:
REMARK  status: ('A' for Active; 'I' for Inactive)
REMARK    1  A    between atoms: C4_5  and  N1_6 
REMARK    2  A    between atoms: N1_6  and  C5_7 
REMARK    3  A    between atoms: C8_12  and  C9_13 
REMARK    4  A    between atoms: C10_15  and  C11_16 
ROOT
HETATM    1  C5  UNL     1      22.221   0.077  52.749  1.00  0.00     0.139 A 
HETATM    2  N2  UNL     1      20.988  -0.200  53.193  1.00  0.00    -0.224 NA
HETATM    3  C6  UNL     1      20.726  -0.891  54.312  1.00  0.00     0.234 A 
HETATM    4  N3  UNL     1      21.745  -1.350  55.062  1.00  0.00    -0.253 NA
HETATM    5  C7  UNL     1      23.024  -1.127  54.706  1.00  0.00     0.131 A 
HETATM    6  C8  UNL     1      23.231  -0.415  53.549  1.00  0.00     0.041 A 
ENDROOT
BRANCH   1   7
HETATM    7  N1  UNL     1      22.564   0.794  51.587  1.00  0.00    -0.340 N 
HETATM    8  H3  UNL     1      22.449   0.321  50.660  1.00  0.00     0.167 HD
BRANCH   7   9
HETATM    9  C4  UNL     1      23.063   2.119  51.496  1.00  0.00     0.035 A 
HETATM   10  C3  UNL     1      22.471   3.177  52.198  1.00  0.00     0.032 A 
HETATM   11  C2  UNL     1      22.918   4.461  52.139  1.00  0.00     0.046 A 
HETATM   12  C1  UNL     1      23.999   4.796  51.373  1.00  0.00     0.133 A 
HETATM   13  F1  UNL     1      24.388   6.088  51.361  1.00  0.00    -0.205 F 
HETATM   14  C18 UNL     1      24.624   3.804  50.661  1.00  0.00     0.051 A 
HETATM   15  C17 UNL     1      24.145   2.518  50.744  1.00  0.00     0.051 A 
HETATM   16 BR1  UNL     1      26.130   4.259  49.590  1.00  0.00    -0.048 Br
ENDBRANCH   7   9
ENDBRANCH   1   7
BRANCH   6  17
HETATM   17  C9  UNL     1      24.665  -0.175  53.165  1.00  0.00     0.297 A 
HETATM   18  N4  UNL     1      25.514  -1.422  53.073  1.00  0.00     0.106 N 
HETATM   19  C10 UNL     1      25.755  -0.444  54.071  1.00  0.00     0.292 A 
HETATM   20  H7  UNL     1      26.053  -1.504  52.187  1.00  0.00     0.317 HD
BRANCH  19  21
HETATM   21  C11 UNL     1      26.917   0.476  54.029  1.00  0.00    -0.023 A 
HETATM   22  C12 UNL     1      28.090   0.248  54.716  1.00  0.00     0.009 A 
HETATM   23  C13 UNL     1      29.183   1.087  54.694  1.00  0.00     0.001 A 
HETATM   24  C14 UNL     1      29.108   2.245  53.931  1.00  0.00     0.000 A 
HETATM   25  C15 UNL     1      27.967   2.531  53.223  1.00  0.00     0.001 A 
HETATM   26  C16 UNL     1      26.926   1.661  53.289  1.00  0.00     0.009 A 
ENDBRANCH  19  21
ENDBRANCH   6  17
TORSDOF 4
ENDMDL
MODEL 7
REMARK VINA RESULT:      -8.2      3.915      7.885
REMARK  4 active torsions:
REMARK  status: ('A' for Active; 'I' for Inactive)
REMARK    1  A    between atoms: C4_5  and  N1_6 
REMARK    2  A    between atoms: N1_6  and  C5_7 
REMARK    3  A    between atoms: C8_12  and  C9_13 
REMARK    4  A    between atoms: C10_15  and  C11_16 
ROOT
HETATM    1  C5  UNL     1      26.680   2.210  51.822  1.00  0.00     0.139 A 
HETATM    2  N2  UNL     1      27.927   2.462  52.239  1.00  0.00    -0.224 NA
HETATM    3  C6  UNL     1      28.374   2.215  53.479  1.00  0.00     0.234 A 
HETATM    4  N3  UNL     1      27.540   1.677  54.389  1.00  0.00    -0.253 NA
HETATM    5  C7  UNL     1      26.264   1.385  54.073  1.00  0.00     0.131 A 
HETATM    6  C8  UNL     1      25.864   1.661  52.788  1.00  0.00     0.041 A 
ENDROOT
BRANCH   1   7
HETATM    7  N1  UNL     1      26.150   2.445  50.538  1.00  0.00    -0.340 N 
HETATM    8  H3  UNL     1      25.745   1.636  50.012  1.00  0.00     0.167 HD
BRANCH   7   9
HETATM    9  C4  UNL     1      26.090   3.675  49.834  1.00  0.00     0.035 A 
HETATM   10  C3  UNL     1      24.872   4.322  49.588  1.00  0.00     0.032 A 
HETATM   11  C2  UNL     1      24.770   5.502  48.917  1.00  0.00     0.046 A 
HETATM   12  C1  UNL     1      25.880   6.136  48.435  1.00  0.00     0.133 A 
HETATM   13  F1  UNL     1      25.705   7.302  47.779  1.00  0.00    -0.205 F 
HETATM   14  C18 UNL     1      27.103   5.554  48.643  1.00  0.00     0.051 A 
HETATM   15  C17 UNL     1      27.170   4.362  49.325  1.00  0.00     0.051 A 
HETATM   16 BR1  UNL     1      28.656   6.428  47.976  1.00  0.00    -0.048 Br
ENDBRANCH   7   9
ENDBRANCH   1   7
BRANCH   6  17
HETATM   17  C9  UNL     1      24.437   1.329  52.451  1.00  0.00     0.297 A 
HETATM   18  N4  UNL     1      23.535   2.527  52.258  1.00  0.00     0.106 N 
HETATM   19  C10 UNL     1      23.347   1.637  53.346  1.00  0.00     0.292 A 
HETATM   20  H7  UNL     1      22.982   2.504  51.378  1.00  0.00     0.317 HD
BRANCH  19  21
HETATM   21  C11 UNL     1      22.225   0.671  53.409  1.00  0.00    -0.023 A 
HETATM   22  C12 UNL     1      21.052   0.823  52.700  1.00  0.00     0.009 A 
HETATM   23  C13 UNL     1      19.996  -0.061  52.742  1.00  0.00     0.001 A 
HETATM   24  C14 UNL     1      20.109  -1.185  53.549  1.00  0.00     0.000 A 
HETATM   25  C15 UNL     1      21.252  -1.395  54.280  1.00  0.00     0.001 A 
HETATM   26  C16 UNL     1      22.256  -0.485  54.194  1.00  0.00     0.009 A 
ENDBRANCH  19  21
ENDBRANCH   6  17
TORSDOF 4
ENDMDL
MODEL 8
REMARK VINA RESULT:      -8.2      3.504      6.506
REMARK  4 active torsions:
REMARK  status: ('A' for Active; 'I' for Inactive)
REMARK    1  A    between atoms: C4_5  and  N1_6 
REMARK    2  A    between atoms: N1_6  and  C5_7 
REMARK    3  A    between atoms: C8_12  and  C9_13 
REMARK    4  A    between atoms: C10_15  and  C11_16 
ROOT
HETATM    1  C5  UNL     1      22.378   2.379  52.465  1.00  0.00     0.139 A 
HETATM    2  N2  UNL     1      21.267   3.103  52.278  1.00  0.00    -0.224 NA
HETATM    3  C6  UNL     1      20.039   2.581  52.143  1.00  0.00     0.234 A 
HETATM    4  N3  UNL     1      19.877   1.245  52.193  1.00  0.00    -0.253 NA
HETATM    5  C7  UNL     1      20.930   0.426  52.378  1.00  0.00     0.131 A 
HETATM    6  C8  UNL     1      22.163   1.019  52.509  1.00  0.00     0.041 A 
ENDROOT
BRANCH   1   7
HETATM    7  N1  UNL     1      23.692   2.865  52.614  1.00  0.00    -0.340 N 
HETATM    8  H3  UNL     1      24.077   2.966  53.582  1.00  0.00     0.167 HD
BRANCH   7   9
HETATM    9  C4  UNL     1      24.598   3.252  51.593  1.00  0.00     0.035 A 
HETATM   10  C3  UNL     1      25.741   2.496  51.300  1.00  0.00     0.032 A 
HETATM   11  C2  UNL     1      26.634   2.831  50.330  1.00  0.00     0.046 A 
HETATM   12  C1  UNL     1      26.460   3.952  49.568  1.00  0.00     0.133 A 
HETATM   13  F1  UNL     1      27.385   4.224  48.624  1.00  0.00    -0.205 F 
HETATM   14  C18 UNL     1      25.360   4.735  49.806  1.00  0.00     0.051 A 
HETATM   15  C17 UNL     1      24.477   4.367  50.794  1.00  0.00     0.051 A 
HETATM   16 BR1  UNL     1      25.106   6.299  48.752  1.00  0.00    -0.048 Br
ENDBRANCH   7   9
ENDBRANCH   1   7
BRANCH   6  17
HETATM   17  C9  UNL     1      23.327   0.090  52.714  1.00  0.00     0.297 A 
HETATM   18  N4  UNL     1      23.122  -0.959  53.783  1.00  0.00     0.106 N 
HETATM   19  C10 UNL     1      24.084   0.070  53.943  1.00  0.00     0.292 A 
HETATM   20  H7  UNL     1      23.342  -1.927  53.476  1.00  0.00     0.317 HD
BRANCH  19  21
HETATM   21  C11 UNL     1      25.543  -0.171  53.839  1.00  0.00    -0.023 A 
HETATM   22  C12 UNL     1      26.111  -0.983  52.880  1.00  0.00     0.009 A 
HETATM   23  C13 UNL     1      27.462  -1.222  52.762  1.00  0.00     0.001 A 
HETATM   24  C14 UNL     1      28.321  -0.610  53.665  1.00  0.00     0.000 A 
HETATM   25  C15 UNL     1      27.818   0.211  54.645  1.00  0.00     0.001 A 
HETATM   26  C16 UNL     1      26.476   0.404  54.705  1.00  0.00     0.009 A 
ENDBRANCH  19  21
ENDBRANCH   6  17
TORSDOF 4
ENDMDL
MODEL 9
REMARK VINA RESULT:      -8.2      4.212      6.047
REMARK  4 active torsions:
REMARK  status: ('A' for Active; 'I' for Inactive)
REMARK    1  A    between atoms: C4_5  and  N1_6 
REMARK    2  A    between atoms: N1_6  and  C5_7 
REMARK    3  A    between atoms: C8_12  and  C9_13 
REMARK    4  A    between atoms: C10_15  and  C11_16 
ROOT
HETATM    1  C5  UNL     1      26.602   0.065  53.428  1.00  0.00     0.139 A 
HETATM    2  N2  UNL     1      27.340  -0.351  54.465  1.00  0.00    -0.224 NA
HETATM    3  C6  UNL     1      28.394   0.315  54.958  1.00  0.00     0.234 A 
HETATM    4  N3  UNL     1      28.763   1.481  54.396  1.00  0.00    -0.253 NA
HETATM    5  C7  UNL     1      28.089   1.990  53.347  1.00  0.00     0.131 A 
HETATM    6  C8  UNL     1      27.017   1.262  52.886  1.00  0.00     0.041 A 
ENDROOT
BRANCH   1   7
HETATM    7  N1  UNL     1      25.486  -0.585  52.865  1.00  0.00    -0.340 N 
HETATM    8  H3  UNL     1      25.640  -1.204  52.034  1.00  0.00     0.167 HD
BRANCH   7   9
HETATM    9  C4  UNL     1      24.133  -0.513  53.283  1.00  0.00     0.035 A 
HETATM   10  C3  UNL     1      23.738  -0.912  54.567  1.00  0.00     0.032 A 
HETATM   11  C2  UNL     1      22.451  -0.859  55.008  1.00  0.00     0.046 A 
HETATM   12  C1  UNL     1      21.449  -0.398  54.201  1.00  0.00     0.133 A 
HETATM   13  F1  UNL     1      20.197  -0.373  54.703  1.00  0.00    -0.205 F 
HETATM   14  C18 UNL     1      21.771   0.009  52.932  1.00  0.00     0.051 A 
HETATM   15  C17 UNL     1      23.081  -0.059  52.520  1.00  0.00     0.051 A 
HETATM   16 BR1  UNL     1      20.383   0.651  51.800  1.00  0.00    -0.048 Br
ENDBRANCH   7   9
ENDBRANCH   1   7
BRANCH   6  17
HETATM   17  C9  UNL     1      26.275   1.843  51.715  1.00  0.00     0.297 A 
HETATM   18  N4  UNL     1      26.826   3.155  51.202  1.00  0.00     0.106 N 
HETATM   19  C10 UNL     1      25.547   3.086  51.809  1.00  0.00     0.292 A 
HETATM   20  H7  UNL     1      26.990   3.174  50.176  1.00  0.00     0.317 HD
BRANCH  19  21
HETATM   21  C11 UNL     1      24.285   3.194  51.039  1.00  0.00    -0.023 A 
HETATM   22  C12 UNL     1      24.155   2.772  49.733  1.00  0.00     0.009 A 
HETATM   23  C13 UNL     1      22.995   2.861  48.996  1.00  0.00     0.001 A 
HETATM   24  C14 UNL     1      21.872   3.412  49.601  1.00  0.00     0.000 A 
HETATM   25  C15 UNL     1      21.935   3.851  50.900  1.00  0.00     0.001 A 
HETATM   26  C16 UNL     1      23.111   3.734  51.569  1.00  0.00     0.009 A 
ENDBRANCH  19  21
ENDBRANCH   6  17
TORSDOF 4
ENDMDL
