MODEL 1
REMARK VINA RESULT:      -8.6      0.000      0.000
REMARK  2 active torsions:
REMARK  status: ('A' for Active; 'I' for Inactive)
REMARK       I    between atoms: C2_2  and  N1_4 
REMARK    1  A    between atoms: N1_4  and  C3_5 
REMARK    2  A    between atoms: C7_9  and  C8_10 
ROOT
HETATM    1  C3  UNL     1      21.019   0.278  53.310  1.00  0.00     0.008 C 
HETATM    2  C4  UNL     1      22.367   0.157  53.149  1.00  0.00     0.067 C 
HETATM    3  C5  UNL     1      23.544  -0.766  53.295  1.00  0.00    -0.018 C 
HETATM    4  C6  UNL     1      24.782  -0.324  52.946  1.00  0.00    -0.017 C 
HETATM    5  C7  UNL     1      25.507   0.862  52.411  1.00  0.00     0.066 C 
HETATM    6  C13 UNL     1      24.668   2.081  52.406  1.00  0.00     0.006 C 
HETATM    7  C14 UNL     1      24.084   3.292  52.478  1.00  0.00     0.115 C 
HETATM    8  N3  UNL     1      22.777   3.625  52.157  1.00  0.00    -0.256 NA
HETATM    9  C15 UNL     1      22.216   4.192  51.220  1.00  0.00     0.206 C 
HETATM   10  N4  UNL     1      21.043   3.908  52.030  1.00  0.00    -0.363 N 
HETATM   11  C16 UNL     1      20.288   2.766  52.539  1.00  0.00     0.073 C 
HETATM   12  C17 UNL     1      21.086   1.688  52.803  1.00  0.00     0.085 C 
HETATM   13  H16 UNL     1      20.721   4.905  52.268  1.00  0.00     0.165 HD
ENDROOT
BRANCH   5  14
HETATM   14  C8  UNL     1      26.760   1.100  53.221  1.00  0.00    -0.029 A 
HETATM   15  C9  UNL     1      27.545   2.187  52.864  1.00  0.00     0.011 A 
HETATM   16  C10 UNL     1      28.683   2.367  53.634  1.00  0.00     0.020 A 
HETATM   17  C11 UNL     1      29.004   1.521  54.680  1.00  0.00     0.116 A 
HETATM   18  N2  UNL     1      28.223   0.476  55.004  1.00  0.00    -0.273 NA
HETATM   19  C12 UNL     1      27.094   0.249  54.282  1.00  0.00     0.124 A 
ENDBRANCH   5  14
BRANCH   1  20
HETATM   20  N1  UNL     1      19.926  -0.619  53.792  1.00  0.00    -0.333 N 
HETATM   21  C2  UNL     1      18.779  -0.902  53.015  1.00  0.00     0.217 C 
HETATM   22  C1  UNL     1      17.811  -1.820  53.685  1.00  0.00     0.117 C 
HETATM   23  O1  UNL     1      18.534  -0.457  51.867  1.00  0.00    -0.274 OA
HETATM   24  H4  UNL     1      20.101  -1.007  54.743  1.00  0.00     0.168 HD
ENDBRANCH   1  20
TORSDOF 2
ENDMDL
MODEL 2
REMARK VINA RESULT:      -8.4      2.561      4.302
REMARK  2 active torsions:
REMARK  status: ('A' for Active; 'I' for Inactive)
REMARK       I    between atoms: C2_2  and  N1_4 
REMARK    1  A    between atoms: N1_4  and  C3_5 
REMARK    2  A    between atoms: C7_9  and  C8_10 
ROOT
HETATM    1  C3  UNL     1      23.082   2.218  50.376  1.00  0.00     0.008 C 
HETATM    2  C4  UNL     1      24.231   1.927  51.049  1.00  0.00     0.067 C 
HETATM    3  C5  UNL     1      25.721   2.124  51.081  1.00  0.00    -0.018 C 
HETATM    4  C6  UNL     1      26.445   1.555  52.081  1.00  0.00    -0.017 C 
HETATM    5  C7  UNL     1      26.317   0.712  53.302  1.00  0.00     0.066 C 
HETATM    6  C13 UNL     1      24.977   0.094  53.423  1.00  0.00     0.006 C 
HETATM    7  C14 UNL     1      23.868  -0.649  53.590  1.00  0.00     0.115 C 
HETATM    8  N3  UNL     1      22.550  -0.261  53.408  1.00  0.00    -0.256 NA
HETATM    9  C15 UNL     1      21.608   0.037  54.143  1.00  0.00     0.206 C 
HETATM   10  N4  UNL     1      20.941   0.206  52.862  1.00  0.00    -0.363 N 
HETATM   11  C16 UNL     1      21.016   1.041  51.667  1.00  0.00     0.073 C 
HETATM   12  C17 UNL     1      22.296   1.422  51.375  1.00  0.00     0.085 C 
HETATM   13  H16 UNL     1      20.192  -0.562  52.926  1.00  0.00     0.165 HD
ENDROOT
BRANCH   5  14
HETATM   14  C8  UNL     1      27.381  -0.360  53.293  1.00  0.00    -0.029 A 
HETATM   15  C9  UNL     1      28.670   0.028  53.631  1.00  0.00     0.011 A 
HETATM   16  C10 UNL     1      29.613  -0.987  53.611  1.00  0.00     0.020 A 
HETATM   17  C11 UNL     1      29.284  -2.289  53.277  1.00  0.00     0.116 A 
HETATM   18  N2  UNL     1      28.027  -2.636  52.954  1.00  0.00    -0.273 NA
HETATM   19  C12 UNL     1      27.060  -1.680  52.957  1.00  0.00     0.124 A 
ENDBRANCH   5  14
BRANCH   1  20
HETATM   20  N1  UNL     1      22.743   3.004  49.152  1.00  0.00    -0.333 N 
HETATM   21  C2  UNL     1      22.138   2.418  48.016  1.00  0.00     0.217 C 
HETATM   22  C1  UNL     1      21.886   3.381  46.905  1.00  0.00     0.117 C 
HETATM   23  O1  UNL     1      21.818   1.211  47.889  1.00  0.00    -0.274 OA
HETATM   24  H4  UNL     1      22.997   4.012  49.227  1.00  0.00     0.168 HD
ENDBRANCH   1  20
TORSDOF 2
ENDMDL
MODEL 3
REMARK VINA RESULT:      -8.3      2.719      6.901
REMARK  2 active torsions:
REMARK  status: ('A' for Active; 'I' for Inactive)
REMARK       I    between atoms: C2_2  and  N1_4 
REMARK    1  A    between atoms: N1_4  and  C3_5 
REMARK    2  A    between atoms: C7_9  and  C8_10 
ROOT
HETATM    1  C3  UNL     1      26.162   0.430  52.314  1.00  0.00     0.008 C 
HETATM    2  C4  UNL     1      24.876   0.291  52.743  1.00  0.00     0.067 C 
HETATM    3  C5  UNL     1      23.910  -0.608  53.461  1.00  0.00    -0.018 C 
HETATM    4  C6  UNL     1      22.622  -0.203  53.626  1.00  0.00    -0.017 C 
HETATM    5  C7  UNL     1      21.688   0.920  53.335  1.00  0.00     0.066 C 
HETATM    6  C13 UNL     1      22.257   1.890  52.372  1.00  0.00     0.006 C 
HETATM    7  C14 UNL     1      22.575   2.770  51.405  1.00  0.00     0.115 C 
HETATM    8  N3  UNL     1      23.795   3.389  51.186  1.00  0.00    -0.256 NA
HETATM    9  C15 UNL     1      24.264   4.510  51.381  1.00  0.00     0.206 C 
HETATM   10  N4  UNL     1      25.437   3.890  50.790  1.00  0.00    -0.363 N 
HETATM   11  C16 UNL     1      26.392   2.819  51.065  1.00  0.00     0.073 C 
HETATM   12  C17 UNL     1      25.824   1.774  51.739  1.00  0.00     0.085 C 
HETATM   13  H16 UNL     1      25.537   4.470  49.892  1.00  0.00     0.165 HD
ENDROOT
BRANCH   5  14
HETATM   14  C8  UNL     1      20.383   0.372  52.807  1.00  0.00    -0.029 A 
HETATM   15  C9  UNL     1      19.725  -0.560  53.597  1.00  0.00     0.011 A 
HETATM   16  C10 UNL     1      18.533  -1.034  53.074  1.00  0.00     0.020 A 
HETATM   17  C11 UNL     1      18.042  -0.604  51.854  1.00  0.00     0.116 A 
HETATM   18  N2  UNL     1      18.701   0.302  51.111  1.00  0.00    -0.273 NA
HETATM   19  C12 UNL     1      19.878   0.801  51.574  1.00  0.00     0.124 A 
ENDBRANCH   5  14
BRANCH   1  20
HETATM   20  N1  UNL     1      27.397  -0.407  52.386  1.00  0.00    -0.333 N 
HETATM   21  C2  UNL     1      28.073  -0.659  53.602  1.00  0.00     0.217 C 
HETATM   22  C1  UNL     1      29.285  -1.517  53.450  1.00  0.00     0.117 C 
HETATM   23  O1  UNL     1      27.742  -0.233  54.736  1.00  0.00    -0.274 OA
HETATM   24  H4  UNL     1      27.698  -0.777  51.460  1.00  0.00     0.168 HD
ENDBRANCH   1  20
TORSDOF 2
ENDMDL
MODEL 4
REMARK VINA RESULT:      -8.1      3.303      6.599
REMARK  2 active torsions:
REMARK  status: ('A' for Active; 'I' for Inactive)
REMARK       I    between atoms: C2_2  and  N1_4 
REMARK    1  A    between atoms: N1_4  and  C3_5 
REMARK    2  A    between atoms: C7_9  and  C8_10 
ROOT
HETATM    1  C3  UNL     1      26.408   0.410  52.459  1.00  0.00     0.008 C 
HETATM    2  C4  UNL     1      26.072   1.480  51.686  1.00  0.00     0.067 C 
HETATM    3  C5  UNL     1      26.593   2.521  50.734  1.00  0.00    -0.018 C 
HETATM    4  C6  UNL     1      25.730   3.429  50.207  1.00  0.00    -0.017 C 
HETATM    5  C7  UNL     1      24.298   3.842  50.208  1.00  0.00     0.066 C 
HETATM    6  C13 UNL     1      23.522   3.179  51.281  1.00  0.00     0.006 C 
HETATM    7  C14 UNL     1      22.728   2.774  52.289  1.00  0.00     0.115 C 
HETATM    8  N3  UNL     1      22.629   1.505  52.836  1.00  0.00    -0.256 NA
HETATM    9  C15 UNL     1      21.826   0.575  52.768  1.00  0.00     0.206 C 
HETATM   10  N4  UNL     1      22.783  -0.037  53.675  1.00  0.00    -0.363 N 
HETATM   11  C16 UNL     1      24.173  -0.485  53.693  1.00  0.00     0.073 C 
HETATM   12  C17 UNL     1      24.980   0.281  52.899  1.00  0.00     0.085 C 
HETATM   13  H16 UNL     1      22.180  -0.143  54.557  1.00  0.00     0.165 HD
ENDROOT
BRANCH   5  14
HETATM   14  C8  UNL     1      24.201   5.342  50.352  1.00  0.00    -0.029 A 
HETATM   15  C9  UNL     1      25.369   6.070  50.172  1.00  0.00     0.011 A 
HETATM   16  C10 UNL     1      25.233   7.441  50.312  1.00  0.00     0.020 A 
HETATM   17  C11 UNL     1      24.019   8.033  50.609  1.00  0.00     0.116 A 
HETATM   18  N2  UNL     1      22.903   7.303  50.778  1.00  0.00    -0.273 NA
HETATM   19  C12 UNL     1      22.977   5.952  50.653  1.00  0.00     0.124 A 
ENDBRANCH   5  14
BRANCH   1  20
HETATM   20  N1  UNL     1      27.673  -0.331  52.749  1.00  0.00    -0.333 N 
HETATM   21  C2  UNL     1      28.524   0.013  53.824  1.00  0.00     0.217 C 
HETATM   22  C1  UNL     1      29.734  -0.855  53.934  1.00  0.00     0.117 C 
HETATM   23  O1  UNL     1      28.342   0.945  54.644  1.00  0.00    -0.274 OA
HETATM   24  H4  UNL     1      27.852  -1.114  52.085  1.00  0.00     0.168 HD
ENDBRANCH   1  20
TORSDOF 2
ENDMDL
MODEL 5
REMARK VINA RESULT:      -8.0      4.867      6.395
REMARK  2 active torsions:
REMARK  status: ('A' for Active; 'I' for Inactive)
REMARK       I    between atoms: C2_2  and  N1_4 
REMARK    1  A    between atoms: N1_4  and  C3_5 
REMARK    2  A    between atoms: C7_9  and  C8_10 
ROOT
HETATM    1  C3  UNL     1      24.777   2.835  51.728  1.00  0.00     0.008 C 
HETATM    2  C4  UNL     1      25.529   3.425  50.757  1.00  0.00     0.067 C 
HETATM    3  C5  UNL     1      26.693   3.244  49.824  1.00  0.00    -0.018 C 
HETATM    4  C6  UNL     1      27.036   4.258  48.985  1.00  0.00    -0.017 C 
HETATM    5  C7  UNL     1      26.660   5.643  48.587  1.00  0.00     0.066 C 
HETATM    6  C13 UNL     1      25.690   6.255  49.524  1.00  0.00     0.006 C 
HETATM    7  C14 UNL     1      24.932   6.990  50.358  1.00  0.00     0.115 C 
HETATM    8  N3  UNL     1      23.788   6.599  51.035  1.00  0.00    -0.256 NA
HETATM    9  C15 UNL     1      22.578   6.786  50.906  1.00  0.00     0.206 C 
HETATM   10  N4  UNL     1      22.538   5.945  52.091  1.00  0.00    -0.363 N 
HETATM   11  C16 UNL     1      22.862   4.582  52.503  1.00  0.00     0.073 C 
HETATM   12  C17 UNL     1      23.935   4.073  51.827  1.00  0.00     0.085 C 
HETATM   13  H16 UNL     1      22.136   6.634  52.809  1.00  0.00     0.165 HD
ENDROOT
BRANCH   5  14
HETATM   14  C8  UNL     1      27.900   6.501  48.496  1.00  0.00    -0.029 A 
HETATM   15  C9  UNL     1      29.098   5.851  48.232  1.00  0.00     0.011 A 
HETATM   16  C10 UNL     1      30.208   6.676  48.156  1.00  0.00     0.020 A 
HETATM   17  C11 UNL     1      30.120   8.046  48.331  1.00  0.00     0.116 A 
HETATM   18  N2  UNL     1      28.946   8.648  48.584  1.00  0.00    -0.273 NA
HETATM   19  C12 UNL     1      27.822   7.888  48.671  1.00  0.00     0.124 A 
ENDBRANCH   5  14
BRANCH   1  20
HETATM   20  N1  UNL     1      24.785   1.507  52.412  1.00  0.00    -0.333 N 
HETATM   21  C2  UNL     1      25.530   1.262  53.588  1.00  0.00     0.217 C 
HETATM   22  C1  UNL     1      25.397  -0.132  54.104  1.00  0.00     0.117 C 
HETATM   23  O1  UNL     1      26.255   2.091  54.190  1.00  0.00    -0.274 OA
HETATM   24  H4  UNL     1      24.190   0.796  51.935  1.00  0.00     0.168 HD
ENDBRANCH   1  20
TORSDOF 2
ENDMDL
MODEL 6
REMARK VINA RESULT:      -7.9      3.855      5.184
REMARK  2 active torsions:
REMARK  status: ('A' for Active; 'I' for Inactive)
REMARK       I    between atoms: C2_2  and  N1_4 
REMARK    1  A    between atoms: N1_4  and  C3_5 
REMARK    2  A    between atoms: C7_9  and  C8_10 
ROOT
HETATM    1  C3  UNL     1      23.464   0.863  52.409  1.00  0.00     0.008 C 
HETATM    2  C4  UNL     1      24.399   1.615  51.763  1.00  0.00     0.067 C 
HETATM    3  C5  UNL     1      25.778   2.205  51.854  1.00  0.00    -0.018 C 
HETATM    4  C6  UNL     1      26.257   2.937  50.813  1.00  0.00    -0.017 C 
HETATM    5  C7  UNL     1      25.901   3.439  49.457  1.00  0.00     0.066 C 
HETATM    6  C13 UNL     1      24.463   3.266  49.151  1.00  0.00     0.006 C 
HETATM    7  C14 UNL     1      23.167   3.310  48.791  1.00  0.00     0.115 C 
HETATM    8  N3  UNL     1      22.203   2.329  48.961  1.00  0.00    -0.256 NA
HETATM    9  C15 UNL     1      21.646   1.504  48.237  1.00  0.00     0.206 C 
HETATM   10  N4  UNL     1      20.979   1.176  49.486  1.00  0.00    -0.363 N 
HETATM   11  C16 UNL     1      21.290   0.650  50.812  1.00  0.00     0.073 C 
HETATM   12  C17 UNL     1      22.535   1.016  51.241  1.00  0.00     0.085 C 
HETATM   13  H16 UNL     1      19.966   1.439  49.245  1.00  0.00     0.165 HD
ENDROOT
BRANCH   5  14
HETATM   14  C8  UNL     1      26.282   4.896  49.338  1.00  0.00    -0.029 A 
HETATM   15  C9  UNL     1      27.400   5.196  48.573  1.00  0.00     0.011 A 
HETATM   16  C10 UNL     1      27.712   6.543  48.492  1.00  0.00     0.020 A 
HETATM   17  C11 UNL     1      26.958   7.512  49.130  1.00  0.00     0.116 A 
HETATM   18  N2  UNL     1      25.878   7.192  49.864  1.00  0.00    -0.273 NA
HETATM   19  C12 UNL     1      25.526   5.885  49.980  1.00  0.00     0.124 A 
ENDBRANCH   5  14
BRANCH   1  20
HETATM   20  N1  UNL     1      23.391   0.170  53.731  1.00  0.00    -0.333 N 
HETATM   21  C2  UNL     1      24.429  -0.662  54.210  1.00  0.00     0.217 C 
HETATM   22  C1  UNL     1      24.153  -1.255  55.551  1.00  0.00     0.117 C 
HETATM   23  O1  UNL     1      25.504  -0.920  53.616  1.00  0.00    -0.274 OA
HETATM   24  H4  UNL     1      22.509   0.367  54.250  1.00  0.00     0.168 HD
ENDBRANCH   1  20
TORSDOF 2
ENDMDL
MODEL 7
REMARK VINA RESULT:      -7.8      2.964      6.970
REMARK  2 active torsions:
REMARK  status: ('A' for Active; 'I' for Inactive)
REMARK       I    between atoms: C2_2  and  N1_4 
REMARK    1  A    between atoms: N1_4  and  C3_5 
REMARK    2  A    between atoms: C7_9  and  C8_10 
ROOT
HETATM    1  C3  UNL     1      26.071   0.094  53.730  1.00  0.00     0.008 C 
HETATM    2  C4  UNL     1      25.208   0.647  52.832  1.00  0.00     0.067 C 
HETATM    3  C5  UNL     1      25.097   1.499  51.599  1.00  0.00    -0.018 C 
HETATM    4  C6  UNL     1      23.868   1.750  51.074  1.00  0.00    -0.017 C 
HETATM    5  C7  UNL     1      22.418   1.475  51.273  1.00  0.00     0.066 C 
HETATM    6  C13 UNL     1      22.135   0.868  52.593  1.00  0.00     0.006 C 
HETATM    7  C14 UNL     1      21.708   0.454  53.800  1.00  0.00     0.115 C 
HETATM    8  N3  UNL     1      22.267  -0.521  54.611  1.00  0.00    -0.256 NA
HETATM    9  C15 UNL     1      21.999  -1.687  54.900  1.00  0.00     0.206 C 
HETATM   10  N4  UNL     1      23.199  -1.537  55.707  1.00  0.00    -0.363 N 
HETATM   11  C16 UNL     1      24.631  -1.306  55.544  1.00  0.00     0.073 C 
HETATM   12  C17 UNL     1      24.914  -0.519  54.462  1.00  0.00     0.085 C 
HETATM   13  H16 UNL     1      22.789  -1.646  56.694  1.00  0.00     0.165 HD
ENDROOT
BRANCH   5  14
HETATM   14  C8  UNL     1      21.631   2.755  51.114  1.00  0.00    -0.029 A 
HETATM   15  C9  UNL     1      22.316   3.946  51.316  1.00  0.00     0.011 A 
HETATM   16  C10 UNL     1      21.556   5.093  51.160  1.00  0.00     0.020 A 
HETATM   17  C11 UNL     1      20.214   5.047  50.825  1.00  0.00     0.116 A 
HETATM   18  N2  UNL     1      19.577   3.879  50.634  1.00  0.00    -0.273 NA
HETATM   19  C12 UNL     1      20.273   2.720  50.776  1.00  0.00     0.124 A 
ENDBRANCH   5  14
BRANCH   1  20
HETATM   20  N1  UNL     1      27.553   0.096  53.913  1.00  0.00    -0.333 N 
HETATM   21  C2  UNL     1      28.362  -1.011  53.568  1.00  0.00     0.217 C 
HETATM   22  C1  UNL     1      29.816  -0.799  53.832  1.00  0.00     0.117 C 
HETATM   23  O1  UNL     1      27.962  -2.097  53.083  1.00  0.00    -0.274 OA
HETATM   24  H4  UNL     1      27.917   0.986  54.314  1.00  0.00     0.168 HD
ENDBRANCH   1  20
TORSDOF 2
ENDMDL
MODEL 8
REMARK VINA RESULT:      -7.6      2.343      4.139
REMARK  2 active torsions:
REMARK  status: ('A' for Active; 'I' for Inactive)
REMARK       I    between atoms: C2_2  and  N1_4 
REMARK    1  A    between atoms: N1_4  and  C3_5 
REMARK    2  A    between atoms: C7_9  and  C8_10 
ROOT
HETATM    1  C3  UNL     1      20.825  -0.281  53.918  1.00  0.00     0.008 C 
HETATM    2  C4  UNL     1      21.573   0.751  53.436  1.00  0.00     0.067 C 
HETATM    3  C5  UNL     1      21.543   2.021  52.632  1.00  0.00    -0.018 C 
HETATM    4  C6  UNL     1      22.694   2.722  52.454  1.00  0.00    -0.017 C 
HETATM    5  C7  UNL     1      24.146   2.718  52.787  1.00  0.00     0.066 C 
HETATM    6  C13 UNL     1      24.588   1.427  53.362  1.00  0.00     0.006 C 
HETATM    7  C14 UNL     1      25.164   0.276  53.754  1.00  0.00     0.115 C 
HETATM    8  N3  UNL     1      24.688  -0.643  54.675  1.00  0.00    -0.256 NA
HETATM    9  C15 UNL     1      24.947  -0.939  55.841  1.00  0.00     0.206 C 
HETATM   10  N4  UNL     1      23.881  -1.899  55.610  1.00  0.00    -0.363 N 
HETATM   11  C16 UNL     1      22.450  -1.929  55.320  1.00  0.00     0.073 C 
HETATM   12  C17 UNL     1      22.049  -0.867  54.558  1.00  0.00     0.085 C 
HETATM   13  H16 UNL     1      24.421  -2.822  55.705  1.00  0.00     0.165 HD
ENDROOT
BRANCH   5  14
HETATM   14  C8  UNL     1      24.952   3.036  51.550  1.00  0.00    -0.029 A 
HETATM   15  C9  UNL     1      24.316   3.759  50.551  1.00  0.00     0.011 A 
HETATM   16  C10 UNL     1      25.093   4.028  49.436  1.00  0.00     0.020 A 
HETATM   17  C11 UNL     1      26.406   3.604  49.335  1.00  0.00     0.116 A 
HETATM   18  N2  UNL     1      26.997   2.905  50.320  1.00  0.00    -0.273 NA
HETATM   19  C12 UNL     1      26.282   2.611  51.438  1.00  0.00     0.124 A 
ENDBRANCH   5  14
BRANCH   1  20
HETATM   20  N1  UNL     1      19.385  -0.669  53.843  1.00  0.00    -0.333 N 
HETATM   21  C2  UNL     1      18.640  -0.595  52.643  1.00  0.00     0.217 C 
HETATM   22  C1  UNL     1      17.220  -1.029  52.790  1.00  0.00     0.117 C 
HETATM   23  O1  UNL     1      19.069  -0.211  51.528  1.00  0.00    -0.274 OA
HETATM   24  H4  UNL     1      18.998  -0.994  54.755  1.00  0.00     0.168 HD
ENDBRANCH   1  20
TORSDOF 2
ENDMDL
MODEL 9
REMARK VINA RESULT:      -7.6      2.921      4.229
REMARK  2 active torsions:
REMARK  status: ('A' for Active; 'I' for Inactive)
REMARK       I    between atoms: C2_2  and  N1_4 
REMARK    1  A    between atoms: N1_4  and  C3_5 
REMARK    2  A    between atoms: C7_9  and  C8_10 
ROOT
HETATM    1  C3  UNL     1      19.897   3.710  50.633  1.00  0.00     0.008 C 
HETATM    2  C4  UNL     1      20.668   2.647  50.996  1.00  0.00     0.067 C 
HETATM    3  C5  UNL     1      20.719   1.150  51.119  1.00  0.00    -0.018 C 
HETATM    4  C6  UNL     1      21.854   0.559  51.579  1.00  0.00    -0.017 C 
HETATM    5  C7  UNL     1      23.229   0.857  52.067  1.00  0.00     0.066 C 
HETATM    6  C13 UNL     1      23.430   2.298  52.340  1.00  0.00     0.006 C 
HETATM    7  C14 UNL     1      23.714   3.542  52.770  1.00  0.00     0.115 C 
HETATM    8  N3  UNL     1      23.391   4.745  52.165  1.00  0.00    -0.256 NA
HETATM    9  C15 UNL     1      23.996   5.595  51.511  1.00  0.00     0.206 C 
HETATM   10  N4  UNL     1      22.683   6.219  51.508  1.00  0.00    -0.363 N 
HETATM   11  C16 UNL     1      21.332   5.973  51.010  1.00  0.00     0.073 C 
HETATM   12  C17 UNL     1      21.017   4.643  50.989  1.00  0.00     0.085 C 
HETATM   13  H16 UNL     1      22.888   7.115  52.062  1.00  0.00     0.165 HD
ENDROOT
BRANCH   5  14
HETATM   14  C8  UNL     1      23.513   0.051  53.312  1.00  0.00    -0.029 A 
HETATM   15  C9  UNL     1      22.418  -0.446  54.004  1.00  0.00     0.011 A 
HETATM   16  C10 UNL     1      22.725  -1.180  55.139  1.00  0.00     0.020 A 
HETATM   17  C11 UNL     1      24.030  -1.396  55.544  1.00  0.00     0.116 A 
HETATM   18  N2  UNL     1      25.072  -0.903  54.852  1.00  0.00    -0.273 NA
HETATM   19  C12 UNL     1      24.830  -0.174  53.731  1.00  0.00     0.124 A 
ENDBRANCH   5  14
BRANCH   1  20
HETATM   20  N1  UNL     1      18.511   3.880  50.101  1.00  0.00    -0.333 N 
HETATM   21  C2  UNL     1      17.377   3.939  50.943  1.00  0.00     0.217 C 
HETATM   22  C1  UNL     1      16.090   4.110  50.206  1.00  0.00     0.117 C 
HETATM   23  O1  UNL     1      17.380   3.860  52.196  1.00  0.00    -0.274 OA
HETATM   24  H4  UNL     1      18.476   3.949  49.062  1.00  0.00     0.168 HD
ENDBRANCH   1  20
TORSDOF 2
ENDMDL
