MODEL 1
REMARK VINA RESULT:      -9.4      0.000      0.000
REMARK  5 active torsions:
REMARK  status: ('A' for Active; 'I' for Inactive)
REMARK    1  A    between atoms: C3_4  and  O1_5 
REMARK    2  A    between atoms: O1_5  and  C4_6 
REMARK    3  A    between atoms: C8_10  and  N2_11 
REMARK    4  A    between atoms: N2_11  and  C9_12 
REMARK    5  A    between atoms: C9_12  and  C10_13 
ROOT
HETATM    1  N1  UNL     1      24.915   3.000  50.337  1.00  0.00    -0.301 NA
HETATM    2  C1  UNL     1      24.122   2.682  51.289  1.00  0.00     0.076 C 
HETATM    3  C2  UNL     1      24.429   1.360  51.861  1.00  0.00     0.085 C 
HETATM    4  C3  UNL     1      24.013   0.510  52.801  1.00  0.00     0.141 C 
HETATM    5  N3  UNL     1      23.233   0.027  53.848  1.00  0.00    -0.353 NA
HETATM    6  C12 UNL     1      22.082  -0.476  53.915  1.00  0.00     0.381 C 
HETATM    7  N4  UNL     1      20.772  -0.984  53.523  1.00  0.00    -0.351 N 
HETATM    8  C13 UNL     1      20.724   0.201  52.686  1.00  0.00     0.034 A 
HETATM    9  C14 UNL     1      20.206   1.314  53.323  1.00  0.00     0.032 A 
HETATM   10  C15 UNL     1      20.234   2.500  52.637  1.00  0.00     0.041 A 
HETATM   11  C16 UNL     1      20.788   2.399  51.388  1.00  0.00     0.091 A 
HETATM   12  C17 UNL     1      21.294   1.295  50.750  1.00  0.00     0.069 A 
HETATM   13 CL1  UNL     1      21.961   1.046  49.161  1.00  0.00    -0.081 Cl
HETATM   14  C18 UNL     1      21.274   0.098  51.424  1.00  0.00     0.056 A 
HETATM   15  O3  UNL     1      20.962   3.488  50.491  1.00  0.00    -0.336 OA
HETATM   16  C19 UNL     1      22.277   3.998  50.311  1.00  0.00     0.202 A 
HETATM   17  C20 UNL     1      22.278   5.345  49.743  1.00  0.00     0.009 A 
HETATM   18  C21 UNL     1      22.941   6.453  50.016  1.00  0.00    -0.002 A 
HETATM   19  C22 UNL     1      23.858   6.279  51.132  1.00  0.00    -0.001 A 
HETATM   20  C23 UNL     1      23.887   5.105  51.689  1.00  0.00     0.026 A 
HETATM   21  C24 UNL     1      23.165   3.785  51.477  1.00  0.00     0.194 A 
HETATM   22  F1  UNL     1      22.532   3.581  52.690  1.00  0.00    -0.228 F 
HETATM   23  H1  UNL     1      24.965   3.817  49.760  1.00  0.00     0.186 HD
HETATM   24  H12 UNL     1      20.814  -1.830  54.126  1.00  0.00     0.166 HD
ENDROOT
BRANCH   4  25
HETATM   25  O1  UNL     1      24.573  -0.756  53.099  1.00  0.00    -0.295 OA
BRANCH  25  26
HETATM   26  C4  UNL     1      25.932  -0.940  53.185  1.00  0.00     0.080 A 
HETATM   27  C5  UNL     1      26.633  -1.961  52.569  1.00  0.00     0.037 A 
HETATM   28  C6  UNL     1      27.999  -2.058  52.718  1.00  0.00     0.005 A 
HETATM   29  C7  UNL     1      28.647  -1.110  53.497  1.00  0.00     0.029 A 
HETATM   30  C8  UNL     1      27.993  -0.070  54.133  1.00  0.00     0.030 A 
HETATM   31  C11 UNL     1      26.634  -0.036  53.941  1.00  0.00     0.066 A 
BRANCH  30  32
HETATM   32  N2  UNL     1      28.679   0.878  54.920  1.00  0.00    -0.383 N 
HETATM   33  H6  UNL     1      28.834   0.643  55.933  1.00  0.00     0.160 HD
BRANCH  32  34
HETATM   34  C9  UNL     1      29.151   2.115  54.369  1.00  0.00     0.189 C 
BRANCH  34  35
HETATM   35  C10 UNL     1      28.603   2.371  52.994  1.00  0.00     0.250 C 
HETATM   36  O2  UNL     1      27.646   2.574  52.270  1.00  0.00    -0.305 OA
ENDBRANCH  34  35
ENDBRANCH  32  34
ENDBRANCH  30  32
ENDBRANCH  25  26
ENDBRANCH   4  25
TORSDOF 5
ENDMDL
MODEL 2
REMARK VINA RESULT:      -9.2      2.072      4.964
REMARK  5 active torsions:
REMARK  status: ('A' for Active; 'I' for Inactive)
REMARK    1  A    between atoms: C3_4  and  O1_5 
REMARK    2  A    between atoms: O1_5  and  C4_6 
REMARK    3  A    between atoms: C8_10  and  N2_11 
REMARK    4  A    between atoms: N2_11  and  C9_12 
REMARK    5  A    between atoms: C9_12  and  C10_13 
ROOT
HETATM    1  N1  UNL     1      22.798   1.394  52.759  1.00  0.00    -0.301 NA
HETATM    2  C1  UNL     1      23.307   1.903  51.701  1.00  0.00     0.076 C 
HETATM    3  C2  UNL     1      24.763   2.101  51.816  1.00  0.00     0.085 C 
HETATM    4  C3  UNL     1      25.810   2.555  51.125  1.00  0.00     0.141 C 
HETATM    5  N3  UNL     1      26.505   3.102  50.051  1.00  0.00    -0.353 NA
HETATM    6  C12 UNL     1      26.623   4.268  49.594  1.00  0.00     0.381 C 
HETATM    7  N4  UNL     1      26.471   5.709  49.432  1.00  0.00    -0.351 N 
HETATM    8  C13 UNL     1      25.070   5.446  49.703  1.00  0.00     0.034 A 
HETATM    9  C14 UNL     1      24.329   5.146  48.574  1.00  0.00     0.032 A 
HETATM   10  C15 UNL     1      23.024   4.773  48.760  1.00  0.00     0.041 A 
HETATM   11  C16 UNL     1      22.641   4.752  50.076  1.00  0.00     0.091 A 
HETATM   12  C17 UNL     1      23.370   5.057  51.196  1.00  0.00     0.069 A 
HETATM   13 CL1  UNL     1      22.971   5.120  52.890  1.00  0.00    -0.081 Cl
HETATM   14  C18 UNL     1      24.681   5.433  51.027  1.00  0.00     0.056 A 
HETATM   15  O3  UNL     1      21.351   4.370  50.535  1.00  0.00    -0.336 OA
HETATM   16  C19 UNL     1      21.218   3.101  51.162  1.00  0.00     0.202 A 
HETATM   17  C20 UNL     1      19.832   2.637  51.187  1.00  0.00     0.009 A 
HETATM   18  C21 UNL     1      19.250   1.479  50.935  1.00  0.00    -0.002 A 
HETATM   19  C22 UNL     1      20.209   0.460  50.539  1.00  0.00    -0.001 A 
HETATM   20  C23 UNL     1      21.457   0.822  50.480  1.00  0.00     0.026 A 
HETATM   21  C24 UNL     1      22.226   2.109  50.724  1.00  0.00     0.194 A 
HETATM   22  F1  UNL     1      22.819   2.350  49.497  1.00  0.00    -0.228 F 
HETATM   23  H1  UNL     1      21.855   1.144  52.986  1.00  0.00     0.186 HD
HETATM   24  H12 UNL     1      27.477   5.890  49.238  1.00  0.00     0.166 HD
ENDROOT
BRANCH   4  25
HETATM   25  O1  UNL     1      27.154   2.603  51.569  1.00  0.00    -0.295 OA
BRANCH  25  26
HETATM   26  C4  UNL     1      27.572   1.904  52.674  1.00  0.00     0.080 A 
HETATM   27  C5  UNL     1      28.766   2.117  53.340  1.00  0.00     0.037 A 
HETATM   28  C6  UNL     1      29.094   1.360  54.444  1.00  0.00     0.005 A 
HETATM   29  C7  UNL     1      28.201   0.385  54.865  1.00  0.00     0.029 A 
HETATM   30  C8  UNL     1      26.995   0.133  54.235  1.00  0.00     0.030 A 
HETATM   31  C11 UNL     1      26.735   0.924  53.144  1.00  0.00     0.066 A 
BRANCH  30  32
HETATM   32  N2  UNL     1      26.107  -0.866  54.686  1.00  0.00    -0.383 N 
HETATM   33  H6  UNL     1      26.488  -1.584  55.354  1.00  0.00     0.160 HD
BRANCH  32  34
HETATM   34  C9  UNL     1      24.739  -0.909  54.257  1.00  0.00     0.189 C 
BRANCH  34  35
HETATM   35  C10 UNL     1      23.804  -1.272  55.376  1.00  0.00     0.250 C 
HETATM   36  O2  UNL     1      22.797  -1.840  55.754  1.00  0.00    -0.305 OA
ENDBRANCH  34  35
ENDBRANCH  32  34
ENDBRANCH  30  32
ENDBRANCH  25  26
ENDBRANCH   4  25
TORSDOF 5
ENDMDL
MODEL 3
REMARK VINA RESULT:      -9.1      2.454      4.438
REMARK  5 active torsions:
REMARK  status: ('A' for Active; 'I' for Inactive)
REMARK    1  A    between atoms: C3_4  and  O1_5 
REMARK    2  A    between atoms: O1_5  and  C4_6 
REMARK    3  A    between atoms: C8_10  and  N2_11 
REMARK    4  A    between atoms: N2_11  and  C9_12 
REMARK    5  A    between atoms: C9_12  and  C10_13 
ROOT
HETATM    1  N1  UNL     1      23.861   5.379  52.735  1.00  0.00    -0.301 NA
HETATM    2  C1  UNL     1      22.987   5.056  51.859  1.00  0.00     0.076 C 
HETATM    3  C2  UNL     1      22.018   4.069  52.367  1.00  0.00     0.085 C 
HETATM    4  C3  UNL     1      20.944   3.373  51.989  1.00  0.00     0.141 C 
HETATM    5  N3  UNL     1      19.930   2.925  51.148  1.00  0.00    -0.353 NA
HETATM    6  C12 UNL     1      19.892   2.113  50.188  1.00  0.00     0.381 C 
HETATM    7  N4  UNL     1      20.310   1.140  49.184  1.00  0.00    -0.351 N 
HETATM    8  C13 UNL     1      21.451   2.021  49.016  1.00  0.00     0.034 A 
HETATM    9  C14 UNL     1      21.248   3.028  48.090  1.00  0.00     0.032 A 
HETATM   10  C15 UNL     1      22.235   3.969  47.958  1.00  0.00     0.041 A 
HETATM   11  C16 UNL     1      23.305   3.762  48.789  1.00  0.00     0.091 A 
HETATM   12  C17 UNL     1      23.514   2.760  49.701  1.00  0.00     0.069 A 
HETATM   13 CL1  UNL     1      24.846   2.373  50.754  1.00  0.00    -0.081 Cl
HETATM   14  C18 UNL     1      22.533   1.808  49.846  1.00  0.00     0.056 A 
HETATM   15  O3  UNL     1      24.442   4.612  48.867  1.00  0.00    -0.336 OA
HETATM   16  C19 UNL     1      24.565   5.455  50.004  1.00  0.00     0.202 A 
HETATM   17  C20 UNL     1      25.492   6.563  49.777  1.00  0.00     0.009 A 
HETATM   18  C21 UNL     1      25.455   7.855  50.042  1.00  0.00    -0.002 A 
HETATM   19  C22 UNL     1      24.215   8.244  50.694  1.00  0.00    -0.001 A 
HETATM   20  C23 UNL     1      23.343   7.302  50.905  1.00  0.00     0.026 A 
HETATM   21  C24 UNL     1      23.270   5.811  50.627  1.00  0.00     0.194 A 
HETATM   22  F1  UNL     1      22.157   5.703  49.811  1.00  0.00    -0.228 F 
HETATM   23  H1  UNL     1      24.636   6.013  52.696  1.00  0.00     0.186 HD
HETATM   24  H12 UNL     1      19.489   0.514  49.311  1.00  0.00     0.166 HD
ENDROOT
BRANCH   4  25
HETATM   25  O1  UNL     1      20.214   2.455  52.782  1.00  0.00    -0.295 OA
BRANCH  25  26
HETATM   26  C4  UNL     1      20.757   1.260  53.183  1.00  0.00     0.080 A 
HETATM   27  C5  UNL     1      20.032   0.174  53.641  1.00  0.00     0.037 A 
HETATM   28  C6  UNL     1      20.673  -0.984  54.020  1.00  0.00     0.005 A 
HETATM   29  C7  UNL     1      22.057  -1.032  53.932  1.00  0.00     0.029 A 
HETATM   30  C8  UNL     1      22.829   0.025  53.482  1.00  0.00     0.030 A 
HETATM   31  C11 UNL     1      22.123   1.146  53.121  1.00  0.00     0.066 A 
BRANCH  30  32
HETATM   32  N2  UNL     1      24.235  -0.052  53.405  1.00  0.00    -0.383 N 
HETATM   33  H6  UNL     1      24.696   0.368  52.557  1.00  0.00     0.160 HD
BRANCH  32  34
HETATM   34  C9  UNL     1      25.014  -0.675  54.435  1.00  0.00     0.189 C 
BRANCH  34  35
HETATM   35  C10 UNL     1      26.313   0.039  54.676  1.00  0.00     0.250 C 
HETATM   36  O2  UNL     1      26.909   1.015  55.093  1.00  0.00    -0.305 OA
ENDBRANCH  34  35
ENDBRANCH  32  34
ENDBRANCH  30  32
ENDBRANCH  25  26
ENDBRANCH   4  25
TORSDOF 5
ENDMDL
MODEL 4
REMARK VINA RESULT:      -9.0      1.780      2.647
REMARK  5 active torsions:
REMARK  status: ('A' for Active; 'I' for Inactive)
REMARK    1  A    between atoms: C3_4  and  O1_5 
REMARK    2  A    between atoms: O1_5  and  C4_6 
REMARK    3  A    between atoms: C8_10  and  N2_11 
REMARK    4  A    between atoms: N2_11  and  C9_12 
REMARK    5  A    between atoms: C9_12  and  C10_13 
ROOT
HETATM    1  N1  UNL     1      24.870   3.472  50.515  1.00  0.00    -0.301 NA
HETATM    2  C1  UNL     1      23.651   3.334  50.878  1.00  0.00     0.076 C 
HETATM    3  C2  UNL     1      23.360   1.978  51.375  1.00  0.00     0.085 C 
HETATM    4  C3  UNL     1      22.363   1.240  51.864  1.00  0.00     0.141 C 
HETATM    5  N3  UNL     1      21.075   0.939  52.297  1.00  0.00    -0.353 NA
HETATM    6  C12 UNL     1      19.993   0.694  51.703  1.00  0.00     0.381 C 
HETATM    7  N4  UNL     1      19.021   0.478  50.637  1.00  0.00    -0.351 N 
HETATM    8  C13 UNL     1      19.640   1.643  50.033  1.00  0.00     0.034 A 
HETATM    9  C14 UNL     1      19.079   2.843  50.430  1.00  0.00     0.032 A 
HETATM   10  C15 UNL     1      19.682   3.994  49.994  1.00  0.00     0.041 A 
HETATM   11  C16 UNL     1      20.783   3.773  49.209  1.00  0.00     0.091 A 
HETATM   12  C17 UNL     1      21.337   2.585  48.806  1.00  0.00     0.069 A 
HETATM   13 CL1  UNL     1      22.683   2.193  47.773  1.00  0.00    -0.081 Cl
HETATM   14  C18 UNL     1      20.744   1.421  49.235  1.00  0.00     0.056 A 
HETATM   15  O3  UNL     1      21.601   4.797  48.658  1.00  0.00    -0.336 OA
HETATM   16  C19 UNL     1      22.879   5.012  49.240  1.00  0.00     0.202 A 
HETATM   17  C20 UNL     1      23.427   6.326  48.908  1.00  0.00     0.009 A 
HETATM   18  C21 UNL     1      24.036   7.267  49.606  1.00  0.00    -0.002 A 
HETATM   19  C22 UNL     1      24.176   6.904  51.007  1.00  0.00    -0.001 A 
HETATM   20  C23 UNL     1      23.689   5.752  51.365  1.00  0.00     0.026 A 
HETATM   21  C24 UNL     1      22.961   4.617  50.665  1.00  0.00     0.194 A 
HETATM   22  F1  UNL     1      21.757   4.557  51.346  1.00  0.00    -0.228 F 
HETATM   23  H1  UNL     1      25.366   4.258  50.141  1.00  0.00     0.186 HD
HETATM   24  H12 UNL     1      18.582  -0.356  51.077  1.00  0.00     0.166 HD
ENDROOT
BRANCH   4  25
HETATM   25  O1  UNL     1      22.438  -0.116  52.266  1.00  0.00    -0.295 OA
BRANCH  25  26
HETATM   26  C4  UNL     1      23.109  -0.494  53.403  1.00  0.00     0.080 A 
HETATM   27  C5  UNL     1      22.522  -1.076  54.512  1.00  0.00     0.037 A 
HETATM   28  C6  UNL     1      23.286  -1.419  55.606  1.00  0.00     0.005 A 
HETATM   29  C7  UNL     1      24.649  -1.167  55.566  1.00  0.00     0.029 A 
HETATM   30  C8  UNL     1      25.285  -0.587  54.482  1.00  0.00     0.030 A 
HETATM   31  C11 UNL     1      24.463  -0.272  53.428  1.00  0.00     0.066 A 
BRANCH  30  32
HETATM   32  N2  UNL     1      26.674  -0.341  54.469  1.00  0.00    -0.383 N 
HETATM   33  H6  UNL     1      27.219  -0.610  55.327  1.00  0.00     0.160 HD
BRANCH  32  34
HETATM   34  C9  UNL     1      27.325   0.251  53.337  1.00  0.00     0.189 C 
BRANCH  34  35
HETATM   35  C10 UNL     1      27.665   1.696  53.569  1.00  0.00     0.250 C 
HETATM   36  O2  UNL     1      28.189   2.550  54.260  1.00  0.00    -0.305 OA
ENDBRANCH  34  35
ENDBRANCH  32  34
ENDBRANCH  30  32
ENDBRANCH  25  26
ENDBRANCH   4  25
TORSDOF 5
ENDMDL
MODEL 5
REMARK VINA RESULT:      -9.0      3.110      6.469
REMARK  5 active torsions:
REMARK  status: ('A' for Active; 'I' for Inactive)
REMARK    1  A    between atoms: C3_4  and  O1_5 
REMARK    2  A    between atoms: O1_5  and  C4_6 
REMARK    3  A    between atoms: C8_10  and  N2_11 
REMARK    4  A    between atoms: N2_11  and  C9_12 
REMARK    5  A    between atoms: C9_12  and  C10_13 
ROOT
HETATM    1  N1  UNL     1      27.184   2.856  51.964  1.00  0.00    -0.301 NA
HETATM    2  C1  UNL     1      26.091   2.487  51.412  1.00  0.00     0.076 C 
HETATM    3  C2  UNL     1      25.628   3.437  50.386  1.00  0.00     0.085 C 
HETATM    4  C3  UNL     1      24.637   3.626  49.512  1.00  0.00     0.141 C 
HETATM    5  N3  UNL     1      23.458   3.357  48.823  1.00  0.00    -0.353 NA
HETATM    6  C12 UNL     1      22.239   3.451  49.118  1.00  0.00     0.381 C 
HETATM    7  N4  UNL     1      21.015   3.712  49.867  1.00  0.00    -0.351 N 
HETATM    8  C13 UNL     1      21.719   3.068  50.960  1.00  0.00     0.034 A 
HETATM    9  C14 UNL     1      21.558   1.694  50.996  1.00  0.00     0.032 A 
HETATM   10  C15 UNL     1      22.284   1.001  51.929  1.00  0.00     0.041 A 
HETATM   11  C16 UNL     1      23.082   1.798  52.707  1.00  0.00     0.091 A 
HETATM   12  C17 UNL     1      23.236   3.160  52.681  1.00  0.00     0.069 A 
HETATM   13 CL1  UNL     1      24.167   4.267  53.650  1.00  0.00    -0.081 Cl
HETATM   14  C18 UNL     1      22.516   3.871  51.750  1.00  0.00     0.056 A 
HETATM   15  O3  UNL     1      23.953   1.321  53.724  1.00  0.00    -0.336 OA
HETATM   16  C19 UNL     1      25.349   1.317  53.455  1.00  0.00     0.202 A 
HETATM   17  C20 UNL     1      26.085   0.427  54.351  1.00  0.00     0.009 A 
HETATM   18  C21 UNL     1      27.042  -0.465  54.172  1.00  0.00    -0.002 A 
HETATM   19  C22 UNL     1      27.430  -0.577  52.775  1.00  0.00    -0.001 A 
HETATM   20  C23 UNL     1      26.795   0.180  51.928  1.00  0.00     0.026 A 
HETATM   21  C24 UNL     1      25.680   1.208  52.016  1.00  0.00     0.194 A 
HETATM   22  F1  UNL     1      24.696   0.666  51.208  1.00  0.00    -0.228 F 
HETATM   23  H1  UNL     1      27.740   2.434  52.682  1.00  0.00     0.186 HD
HETATM   24  H12 UNL     1      20.517   4.172  49.078  1.00  0.00     0.166 HD
ENDROOT
BRANCH   4  25
HETATM   25  O1  UNL     1      24.496   4.719  48.623  1.00  0.00    -0.295 OA
BRANCH  25  26
HETATM   26  C4  UNL     1      24.863   5.992  48.984  1.00  0.00     0.080 A 
HETATM   27  C5  UNL     1      23.982   7.000  49.332  1.00  0.00     0.037 A 
HETATM   28  C6  UNL     1      24.452   8.248  49.681  1.00  0.00     0.005 A 
HETATM   29  C7  UNL     1      25.822   8.464  49.673  1.00  0.00     0.029 A 
HETATM   30  C8  UNL     1      26.745   7.490  49.333  1.00  0.00     0.030 A 
HETATM   31  C11 UNL     1      26.205   6.273  48.997  1.00  0.00     0.066 A 
BRANCH  30  32
HETATM   32  N2  UNL     1      28.133   7.739  49.332  1.00  0.00    -0.383 N 
HETATM   33  H6  UNL     1      28.568   8.048  50.239  1.00  0.00     0.160 HD
BRANCH  32  34
HETATM   34  C9  UNL     1      28.927   7.581  48.149  1.00  0.00     0.189 C 
BRANCH  34  35
HETATM   35  C10 UNL     1      29.746   6.322  48.179  1.00  0.00     0.250 C 
HETATM   36  O2  UNL     1      29.797   5.108  48.243  1.00  0.00    -0.305 OA
ENDBRANCH  34  35
ENDBRANCH  32  34
ENDBRANCH  30  32
ENDBRANCH  25  26
ENDBRANCH   4  25
TORSDOF 5
ENDMDL
MODEL 6
REMARK VINA RESULT:      -9.0      2.951      5.061
REMARK  5 active torsions:
REMARK  status: ('A' for Active; 'I' for Inactive)
REMARK    1  A    between atoms: C3_4  and  O1_5 
REMARK    2  A    between atoms: O1_5  and  C4_6 
REMARK    3  A    between atoms: C8_10  and  N2_11 
REMARK    4  A    between atoms: N2_11  and  C9_12 
REMARK    5  A    between atoms: C9_12  and  C10_13 
ROOT
HETATM    1  N1  UNL     1      22.211   2.204  47.766  1.00  0.00    -0.301 NA
HETATM    2  C1  UNL     1      22.691   3.360  48.030  1.00  0.00     0.076 C 
HETATM    3  C2  UNL     1      23.804   3.301  48.994  1.00  0.00     0.085 C 
HETATM    4  C3  UNL     1      24.668   4.088  49.637  1.00  0.00     0.141 C 
HETATM    5  N3  UNL     1      25.293   5.271  50.022  1.00  0.00    -0.353 NA
HETATM    6  C12 UNL     1      24.980   6.205  50.804  1.00  0.00     0.381 C 
HETATM    7  N4  UNL     1      24.234   7.013  51.762  1.00  0.00    -0.351 N 
HETATM    8  C13 UNL     1      23.094   6.697  50.921  1.00  0.00     0.034 A 
HETATM    9  C14 UNL     1      22.904   7.587  49.881  1.00  0.00     0.032 A 
HETATM   10  C15 UNL     1      21.919   7.294  48.975  1.00  0.00     0.041 A 
HETATM   11  C16 UNL     1      21.254   6.127  49.246  1.00  0.00     0.091 A 
HETATM   12  C17 UNL     1      21.433   5.246  50.281  1.00  0.00     0.069 A 
HETATM   13 CL1  UNL     1      20.616   3.782  50.749  1.00  0.00    -0.081 Cl
HETATM   14  C18 UNL     1      22.418   5.526  51.199  1.00  0.00     0.056 A 
HETATM   15  O3  UNL     1      20.212   5.586  48.443  1.00  0.00    -0.336 OA
HETATM   16  C19 UNL     1      20.514   4.454  47.638  1.00  0.00     0.202 A 
HETATM   17  C20 UNL     1      19.544   4.264  46.561  1.00  0.00     0.009 A 
HETATM   18  C21 UNL     1      19.648   3.980  45.276  1.00  0.00    -0.002 A 
HETATM   19  C22 UNL     1      21.034   3.836  44.858  1.00  0.00    -0.001 A 
HETATM   20  C23 UNL     1      21.942   4.012  45.772  1.00  0.00     0.026 A 
HETATM   21  C24 UNL     1      21.940   4.358  47.252  1.00  0.00     0.194 A 
HETATM   22  F1  UNL     1      22.658   5.540  47.293  1.00  0.00    -0.228 F 
HETATM   23  H1  UNL     1      21.465   1.918  47.162  1.00  0.00     0.186 HD
HETATM   24  H12 UNL     1      25.056   7.235  52.360  1.00  0.00     0.166 HD
ENDROOT
BRANCH   4  25
HETATM   25  O1  UNL     1      25.668   3.673  50.549  1.00  0.00    -0.295 OA
BRANCH  25  26
HETATM   26  C4  UNL     1      25.452   2.646  51.435  1.00  0.00     0.080 A 
HETATM   27  C5  UNL     1      24.250   2.389  52.070  1.00  0.00     0.037 A 
HETATM   28  C6  UNL     1      24.135   1.330  52.944  1.00  0.00     0.005 A 
HETATM   29  C7  UNL     1      25.250   0.537  53.170  1.00  0.00     0.029 A 
HETATM   30  C8  UNL     1      26.474   0.751  52.562  1.00  0.00     0.030 A 
HETATM   31  C11 UNL     1      26.515   1.822  51.704  1.00  0.00     0.066 A 
BRANCH  30  32
HETATM   32  N2  UNL     1      27.591  -0.072  52.812  1.00  0.00    -0.383 N 
HETATM   33  H6  UNL     1      27.904  -0.710  52.037  1.00  0.00     0.160 HD
BRANCH  32  34
HETATM   34  C9  UNL     1      28.280  -0.048  54.070  1.00  0.00     0.189 C 
BRANCH  34  35
HETATM   35  C10 UNL     1      29.015   1.244  54.290  1.00  0.00     0.250 C 
HETATM   36  O2  UNL     1      29.005   2.460  54.329  1.00  0.00    -0.305 OA
ENDBRANCH  34  35
ENDBRANCH  32  34
ENDBRANCH  30  32
ENDBRANCH  25  26
ENDBRANCH   4  25
TORSDOF 5
ENDMDL
MODEL 7
REMARK VINA RESULT:      -8.6      3.115      6.476
REMARK  5 active torsions:
REMARK  status: ('A' for Active; 'I' for Inactive)
REMARK    1  A    between atoms: C3_4  and  O1_5 
REMARK    2  A    between atoms: O1_5  and  C4_6 
REMARK    3  A    between atoms: C8_10  and  N2_11 
REMARK    4  A    between atoms: N2_11  and  C9_12 
REMARK    5  A    between atoms: C9_12  and  C10_13 
ROOT
HETATM    1  N1  UNL     1      24.363   3.530  52.844  1.00  0.00    -0.301 NA
HETATM    2  C1  UNL     1      24.000   3.187  51.667  1.00  0.00     0.076 C 
HETATM    3  C2  UNL     1      23.909   4.335  50.748  1.00  0.00     0.085 C 
HETATM    4  C3  UNL     1      23.608   4.635  49.483  1.00  0.00     0.141 C 
HETATM    5  N3  UNL     1      23.223   4.417  48.163  1.00  0.00    -0.353 NA
HETATM    6  C12 UNL     1      22.119   4.189  47.606  1.00  0.00     0.381 C 
HETATM    7  N4  UNL     1      20.692   3.958  47.410  1.00  0.00    -0.351 N 
HETATM    8  C13 UNL     1      20.816   3.112  48.583  1.00  0.00     0.034 A 
HETATM    9  C14 UNL     1      21.161   1.804  48.294  1.00  0.00     0.032 A 
HETATM   10  C15 UNL     1      21.410   0.972  49.353  1.00  0.00     0.041 A 
HETATM   11  C16 UNL     1      21.275   1.580  50.573  1.00  0.00     0.091 A 
HETATM   12  C17 UNL     1      20.923   2.873  50.864  1.00  0.00     0.069 A 
HETATM   13 CL1  UNL     1      20.668   3.726  52.360  1.00  0.00    -0.081 Cl
HETATM   14  C18 UNL     1      20.671   3.722  49.812  1.00  0.00     0.056 A 
HETATM   15  O3  UNL     1      21.507   0.944  51.823  1.00  0.00    -0.336 OA
HETATM   16  C19 UNL     1      22.695   1.277  52.528  1.00  0.00     0.202 A 
HETATM   17  C20 UNL     1      23.043   0.277  53.536  1.00  0.00     0.009 A 
HETATM   18  C21 UNL     1      24.169  -0.317  53.886  1.00  0.00    -0.002 A 
HETATM   19  C22 UNL     1      25.294   0.127  53.079  1.00  0.00    -0.001 A 
HETATM   20  C23 UNL     1      25.041   1.004  52.153  1.00  0.00     0.026 A 
HETATM   21  C24 UNL     1      23.802   1.728  51.654  1.00  0.00     0.194 A 
HETATM   22  F1  UNL     1      23.727   1.332  50.330  1.00  0.00    -0.228 F 
HETATM   23  H1  UNL     1      24.514   2.991  53.675  1.00  0.00     0.186 HD
HETATM   24  H12 UNL     1      20.612   4.567  46.570  1.00  0.00     0.166 HD
ENDROOT
BRANCH   4  25
HETATM   25  O1  UNL     1      23.626   5.924  48.897  1.00  0.00    -0.295 OA
BRANCH  25  26
HETATM   26  C4  UNL     1      24.535   6.878  49.284  1.00  0.00     0.080 A 
HETATM   27  C5  UNL     1      24.220   8.050  49.947  1.00  0.00     0.037 A 
HETATM   28  C6  UNL     1      25.209   8.945  50.292  1.00  0.00     0.005 A 
HETATM   29  C7  UNL     1      26.521   8.640  49.959  1.00  0.00     0.029 A 
HETATM   30  C8  UNL     1      26.890   7.482  49.297  1.00  0.00     0.030 A 
HETATM   31  C11 UNL     1      25.852   6.638  48.985  1.00  0.00     0.066 A 
BRANCH  30  32
HETATM   32  N2  UNL     1      28.232   7.200  48.970  1.00  0.00    -0.383 N 
HETATM   33  H6  UNL     1      28.977   7.727  49.492  1.00  0.00     0.160 HD
BRANCH  32  34
HETATM   34  C9  UNL     1      28.577   6.234  47.967  1.00  0.00     0.189 C 
BRANCH  34  35
HETATM   35  C10 UNL     1      29.877   5.543  48.266  1.00  0.00     0.250 C 
HETATM   36  O2  UNL     1      30.790   4.827  47.899  1.00  0.00    -0.305 OA
ENDBRANCH  34  35
ENDBRANCH  32  34
ENDBRANCH  30  32
ENDBRANCH  25  26
ENDBRANCH   4  25
TORSDOF 5
ENDMDL
MODEL 8
REMARK VINA RESULT:      -8.5      3.590      6.409
REMARK  5 active torsions:
REMARK  status: ('A' for Active; 'I' for Inactive)
REMARK    1  A    between atoms: C3_4  and  O1_5 
REMARK    2  A    between atoms: O1_5  and  C4_6 
REMARK    3  A    between atoms: C8_10  and  N2_11 
REMARK    4  A    between atoms: N2_11  and  C9_12 
REMARK    5  A    between atoms: C9_12  and  C10_13 
ROOT
HETATM    1  N1  UNL     1      24.211   2.945  53.396  1.00  0.00    -0.301 NA
HETATM    2  C1  UNL     1      23.911   2.649  52.188  1.00  0.00     0.076 C 
HETATM    3  C2  UNL     1      24.168   3.760  51.256  1.00  0.00     0.085 C 
HETATM    4  C3  UNL     1      24.077   4.077  49.963  1.00  0.00     0.141 C 
HETATM    5  N3  UNL     1      23.798   3.904  48.610  1.00  0.00    -0.353 NA
HETATM    6  C12 UNL     1      22.737   3.899  47.935  1.00  0.00     0.381 C 
HETATM    7  N4  UNL     1      21.323   3.973  47.583  1.00  0.00    -0.351 N 
HETATM    8  C13 UNL     1      21.135   3.157  48.769  1.00  0.00     0.034 A 
HETATM    9  C14 UNL     1      21.219   1.798  48.531  1.00  0.00     0.032 A 
HETATM   10  C15 UNL     1      21.167   0.965  49.618  1.00  0.00     0.041 A 
HETATM   11  C16 UNL     1      21.036   1.627  50.811  1.00  0.00     0.091 A 
HETATM   12  C17 UNL     1      20.943   2.974  51.049  1.00  0.00     0.069 A 
HETATM   13 CL1  UNL     1      20.718   3.909  52.501  1.00  0.00    -0.081 Cl
HETATM   14  C18 UNL     1      20.994   3.824  49.970  1.00  0.00     0.056 A 
HETATM   15  O3  UNL     1      20.990   0.996  52.084  1.00  0.00    -0.336 OA
HETATM   16  C19 UNL     1      22.140   1.091  52.914  1.00  0.00     0.202 A 
HETATM   17  C20 UNL     1      22.153   0.072  53.963  1.00  0.00     0.009 A 
HETATM   18  C21 UNL     1      23.080  -0.737  54.442  1.00  0.00    -0.002 A 
HETATM   19  C22 UNL     1      24.355  -0.569  53.762  1.00  0.00    -0.001 A 
HETATM   20  C23 UNL     1      24.398   0.311  52.806  1.00  0.00     0.026 A 
HETATM   21  C24 UNL     1      23.405   1.267  52.166  1.00  0.00     0.194 A 
HETATM   22  F1  UNL     1      23.389   0.854  50.845  1.00  0.00    -0.228 F 
HETATM   23  H1  UNL     1      24.152   2.413  54.243  1.00  0.00     0.186 HD
HETATM   24  H12 UNL     1      21.467   4.557  46.734  1.00  0.00     0.166 HD
ENDROOT
BRANCH   4  25
HETATM   25  O1  UNL     1      24.435   5.314  49.373  1.00  0.00    -0.295 OA
BRANCH  25  26
HETATM   26  C4  UNL     1      25.729   5.585  49.002  1.00  0.00     0.080 A 
HETATM   27  C5  UNL     1      26.754   4.657  48.966  1.00  0.00     0.037 A 
HETATM   28  C6  UNL     1      28.022   5.032  48.578  1.00  0.00     0.005 A 
HETATM   29  C7  UNL     1      28.241   6.356  48.227  1.00  0.00     0.029 A 
HETATM   30  C8  UNL     1      27.251   7.323  48.246  1.00  0.00     0.030 A 
HETATM   31  C11 UNL     1      26.014   6.878  48.642  1.00  0.00     0.066 A 
BRANCH  30  32
HETATM   32  N2  UNL     1      27.504   8.662  47.885  1.00  0.00    -0.383 N 
HETATM   33  H6  UNL     1      27.364   8.925  46.876  1.00  0.00     0.160 HD
BRANCH  32  34
HETATM   34  C9  UNL     1      27.935   9.635  48.847  1.00  0.00     0.189 C 
BRANCH  34  35
HETATM   35  C10 UNL     1      29.431   9.693  48.965  1.00  0.00     0.250 C 
HETATM   36  O2  UNL     1      30.429   9.630  49.659  1.00  0.00    -0.305 OA
ENDBRANCH  34  35
ENDBRANCH  32  34
ENDBRANCH  30  32
ENDBRANCH  25  26
ENDBRANCH   4  25
TORSDOF 5
ENDMDL
MODEL 9
REMARK VINA RESULT:      -8.4      3.158      6.031
REMARK  5 active torsions:
REMARK  status: ('A' for Active; 'I' for Inactive)
REMARK    1  A    between atoms: C3_4  and  O1_5 
REMARK    2  A    between atoms: O1_5  and  C4_6 
REMARK    3  A    between atoms: C8_10  and  N2_11 
REMARK    4  A    between atoms: N2_11  and  C9_12 
REMARK    5  A    between atoms: C9_12  and  C10_13 
ROOT
HETATM    1  N1  UNL     1      19.812   4.563  49.939  1.00  0.00    -0.301 NA
HETATM    2  C1  UNL     1      20.471   4.002  50.881  1.00  0.00     0.076 C 
HETATM    3  C2  UNL     1      21.689   4.750  51.240  1.00  0.00     0.085 C 
HETATM    4  C3  UNL     1      22.730   4.708  52.073  1.00  0.00     0.141 C 
HETATM    5  N3  UNL     1      23.551   4.219  53.085  1.00  0.00    -0.353 NA
HETATM    6  C12 UNL     1      24.394   3.287  53.147  1.00  0.00     0.381 C 
HETATM    7  N4  UNL     1      25.237   2.160  52.765  1.00  0.00    -0.351 N 
HETATM    8  C13 UNL     1      24.038   1.672  52.109  1.00  0.00     0.034 A 
HETATM    9  C14 UNL     1      23.225   0.908  52.927  1.00  0.00     0.032 A 
HETATM   10  C15 UNL     1      22.019   0.507  52.417  1.00  0.00     0.041 A 
HETATM   11  C16 UNL     1      21.794   0.938  51.136  1.00  0.00     0.091 A 
HETATM   12  C17 UNL     1      22.601   1.687  50.318  1.00  0.00     0.069 A 
HETATM   13 CL1  UNL     1      22.442   2.236  48.674  1.00  0.00    -0.081 Cl
HETATM   14  C18 UNL     1      23.815   2.098  50.816  1.00  0.00     0.056 A 
HETATM   15  O3  UNL     1      20.608   0.683  50.394  1.00  0.00    -0.336 OA
HETATM   16  C19 UNL     1      19.695   1.757  50.211  1.00  0.00     0.202 A 
HETATM   17  C20 UNL     1      18.359   1.293  49.841  1.00  0.00     0.009 A 
HETATM   18  C21 UNL     1      17.139   1.614  50.229  1.00  0.00    -0.002 A 
HETATM   19  C22 UNL     1      17.146   2.648  51.252  1.00  0.00    -0.001 A 
HETATM   20  C23 UNL     1      18.309   3.086  51.635  1.00  0.00     0.026 A 
HETATM   21  C24 UNL     1      19.754   2.780  51.280  1.00  0.00     0.194 A 
HETATM   22  F1  UNL     1      20.286   2.363  52.487  1.00  0.00    -0.228 F 
HETATM   23  H1  UNL     1      18.959   4.304  49.482  1.00  0.00     0.186 HD
HETATM   24  H12 UNL     1      26.092   2.517  53.238  1.00  0.00     0.166 HD
ENDROOT
BRANCH   4  25
HETATM   25  O1  UNL     1      23.782   5.652  52.154  1.00  0.00    -0.295 OA
BRANCH  25  26
HETATM   26  C4  UNL     1      24.129   6.436  51.082  1.00  0.00     0.080 A 
HETATM   27  C5  UNL     1      23.535   7.643  50.759  1.00  0.00     0.037 A 
HETATM   28  C6  UNL     1      23.957   8.356  49.658  1.00  0.00     0.005 A 
HETATM   29  C7  UNL     1      24.987   7.834  48.888  1.00  0.00     0.029 A 
HETATM   30  C8  UNL     1      25.614   6.633  49.168  1.00  0.00     0.030 A 
HETATM   31  C11 UNL     1      25.142   5.978  50.278  1.00  0.00     0.066 A 
BRANCH  30  32
HETATM   32  N2  UNL     1      26.658   6.127  48.366  1.00  0.00    -0.383 N 
HETATM   33  H6  UNL     1      26.435   5.309  47.744  1.00  0.00     0.160 HD
BRANCH  32  34
HETATM   34  C9  UNL     1      27.973   6.699  48.390  1.00  0.00     0.189 C 
BRANCH  34  35
HETATM   35  C10 UNL     1      29.048   5.659  48.253  1.00  0.00     0.250 C 
HETATM   36  O2  UNL     1      30.146   5.241  48.570  1.00  0.00    -0.305 OA
ENDBRANCH  34  35
ENDBRANCH  32  34
ENDBRANCH  30  32
ENDBRANCH  25  26
ENDBRANCH   4  25
TORSDOF 5
ENDMDL
