MODEL 1
REMARK VINA RESULT:      -8.3      0.000      0.000
REMARK  2 active torsions:
REMARK  status: ('A' for Active; 'I' for Inactive)
REMARK    1  A    between atoms: O1_2  and  C2_3 
REMARK    2  A    between atoms: C6_9  and  N3_10 
ROOT
HETATM    1  C2  UNL     1      21.003   1.631  52.465  1.00  0.00     0.106 A 
HETATM    2  C3  UNL     1      21.794   2.526  51.776  1.00  0.00     0.072 A 
HETATM    3  C4  UNL     1      23.169   2.448  51.842  1.00  0.00     0.077 A 
HETATM    4  N1  UNL     1      24.038   3.255  51.216  1.00  0.00    -0.241 NA
HETATM    5  C5  UNL     1      25.365   3.082  51.348  1.00  0.00     0.236 A 
HETATM    6  N2  UNL     1      25.891   2.088  52.121  1.00  0.00    -0.223 NA
HETATM    7  C6  UNL     1      25.032   1.249  52.772  1.00  0.00     0.145 A 
HETATM    8  C13 UNL     1      23.676   1.437  52.626  1.00  0.00     0.075 A 
HETATM    9  C14 UNL     1      22.927   0.521  53.331  1.00  0.00     0.121 A 
HETATM   10  C15 UNL     1      21.552   0.615  53.253  1.00  0.00     0.136 A 
HETATM   11  O2  UNL     1      20.759  -0.300  53.956  1.00  0.00    -0.344 OA
HETATM   12  C16 UNL     1      21.301  -1.537  54.417  1.00  0.00     0.202 C 
HETATM   13  C17 UNL     1      22.651  -1.202  55.020  1.00  0.00     0.202 C 
HETATM   14  O3  UNL     1      23.456  -0.476  54.101  1.00  0.00    -0.345 OA
ENDROOT
BRANCH   7  15
HETATM   15  N3  UNL     1      25.783   0.309  53.530  1.00  0.00    -0.330 N 
HETATM   16  C7  UNL     1      26.288   0.154  54.887  1.00  0.00     0.155 C 
HETATM   17  C8  UNL     1      27.792   0.230  54.892  1.00  0.00    -0.005 C 
HETATM   18  C9  UNL     1      28.313  -0.186  53.745  1.00  0.00    -0.082 C 
HETATM   19  C10 UNL     1      29.785  -0.178  53.579  1.00  0.00     0.043 C 
HETATM   20  C11 UNL     1      27.680  -0.695  52.499  1.00  0.00     0.092 C 
HETATM   21  C12 UNL     1      26.205  -0.874  52.793  1.00  0.00     0.277 C 
HETATM   22  F1  UNL     1      26.020  -2.045  53.513  1.00  0.00    -0.226 F 
ENDBRANCH   7  15
BRANCH   1  23
HETATM   23  O1  UNL     1      19.625   1.694  52.411  1.00  0.00    -0.353 OA
HETATM   24  C1  UNL     1      18.870   2.441  51.511  1.00  0.00     0.210 C 
ENDBRANCH   1  23
TORSDOF 2
ENDMDL
MODEL 2
REMARK VINA RESULT:      -8.2      1.860      3.477
REMARK  2 active torsions:
REMARK  status: ('A' for Active; 'I' for Inactive)
REMARK    1  A    between atoms: O1_2  and  C2_3 
REMARK    2  A    between atoms: C6_9  and  N3_10 
ROOT
HETATM    1  C2  UNL     1      20.572   0.443  53.018  1.00  0.00     0.106 A 
HETATM    2  C3  UNL     1      20.844  -0.397  54.077  1.00  0.00     0.072 A 
HETATM    3  C4  UNL     1      22.145  -0.674  54.441  1.00  0.00     0.077 A 
HETATM    4  N1  UNL     1      22.531  -1.468  55.451  1.00  0.00    -0.241 NA
HETATM    5  C5  UNL     1      23.834  -1.663  55.721  1.00  0.00     0.236 A 
HETATM    6  N2  UNL     1      24.820  -1.070  54.988  1.00  0.00    -0.223 NA
HETATM    7  C6  UNL     1      24.459  -0.256  53.953  1.00  0.00     0.145 A 
HETATM    8  C13 UNL     1      23.122  -0.065  53.689  1.00  0.00     0.075 A 
HETATM    9  C14 UNL     1      22.899   0.781  52.625  1.00  0.00     0.121 A 
HETATM   10  C15 UNL     1      21.590   1.046  52.274  1.00  0.00     0.136 A 
HETATM   11  O2  UNL     1      21.326   1.902  51.198  1.00  0.00    -0.344 OA
HETATM   12  C16 UNL     1      22.323   2.800  50.714  1.00  0.00     0.202 C 
HETATM   13  C17 UNL     1      23.609   2.000  50.648  1.00  0.00     0.202 C 
HETATM   14  O3  UNL     1      23.888   1.375  51.894  1.00  0.00    -0.345 OA
ENDROOT
BRANCH   7  15
HETATM   15  N3  UNL     1      25.631   0.236  53.315  1.00  0.00    -0.330 N 
HETATM   16  C7  UNL     1      26.406  -0.017  52.107  1.00  0.00     0.155 C 
HETATM   17  C8  UNL     1      27.749  -0.596  52.464  1.00  0.00    -0.005 C 
HETATM   18  C9  UNL     1      28.158  -0.195  53.662  1.00  0.00    -0.082 C 
HETATM   19  C10 UNL     1      29.465  -0.673  54.171  1.00  0.00     0.043 C 
HETATM   20  C11 UNL     1      27.532   0.697  54.674  1.00  0.00     0.092 C 
HETATM   21  C12 UNL     1      26.309   1.312  54.024  1.00  0.00     0.277 C 
HETATM   22  F1  UNL     1      26.706   2.340  53.181  1.00  0.00    -0.226 F 
ENDBRANCH   7  15
BRANCH   1  23
HETATM   23  O1  UNL     1      19.276   0.732  52.639  1.00  0.00    -0.353 OA
HETATM   24  C1  UNL     1      18.457  -0.060  51.838  1.00  0.00     0.210 C 
ENDBRANCH   1  23
TORSDOF 2
ENDMDL
MODEL 3
REMARK VINA RESULT:      -8.1      2.193      3.690
REMARK  2 active torsions:
REMARK  status: ('A' for Active; 'I' for Inactive)
REMARK    1  A    between atoms: O1_2  and  C2_3 
REMARK    2  A    between atoms: C6_9  and  N3_10 
ROOT
HETATM    1  C2  UNL     1      20.356   2.855  52.383  1.00  0.00     0.106 A 
HETATM    2  C3  UNL     1      20.225   1.569  52.861  1.00  0.00     0.072 A 
HETATM    3  C4  UNL     1      21.337   0.792  53.110  1.00  0.00     0.077 A 
HETATM    4  N1  UNL     1      21.336  -0.464  53.578  1.00  0.00    -0.241 NA
HETATM    5  C5  UNL     1      22.486  -1.129  53.789  1.00  0.00     0.236 A 
HETATM    6  N2  UNL     1      23.703  -0.563  53.537  1.00  0.00    -0.223 NA
HETATM    7  C6  UNL     1      23.738   0.715  53.060  1.00  0.00     0.145 A 
HETATM    8  C13 UNL     1      22.553   1.383  52.850  1.00  0.00     0.075 A 
HETATM    9  C14 UNL     1      22.732   2.662  52.373  1.00  0.00     0.121 A 
HETATM   10  C15 UNL     1      21.607   3.425  52.130  1.00  0.00     0.136 A 
HETATM   11  O2  UNL     1      21.753   4.730  51.645  1.00  0.00    -0.344 OA
HETATM   12  C16 UNL     1      22.994   5.423  51.766  1.00  0.00     0.202 C 
HETATM   13  C17 UNL     1      24.068   4.428  51.374  1.00  0.00     0.202 C 
HETATM   14  O3  UNL     1      23.951   3.227  52.125  1.00  0.00    -0.345 OA
ENDROOT
BRANCH   7  15
HETATM   15  N3  UNL     1      25.091   1.098  52.849  1.00  0.00    -0.330 N 
HETATM   16  C7  UNL     1      26.023   1.252  51.739  1.00  0.00     0.155 C 
HETATM   17  C8  UNL     1      27.113   0.218  51.830  1.00  0.00    -0.005 C 
HETATM   18  C9  UNL     1      27.347  -0.146  53.085  1.00  0.00    -0.082 C 
HETATM   19  C10 UNL     1      28.394  -1.159  53.356  1.00  0.00     0.043 C 
HETATM   20  C11 UNL     1      26.732   0.281  54.370  1.00  0.00     0.092 C 
HETATM   21  C12 UNL     1      25.823   1.452  54.057  1.00  0.00     0.277 C 
HETATM   22  F1  UNL     1      26.589   2.598  53.899  1.00  0.00    -0.226 F 
ENDBRANCH   7  15
BRANCH   1  23
HETATM   23  O1  UNL     1      19.254   3.648  52.129  1.00  0.00    -0.353 OA
HETATM   24  C1  UNL     1      18.456   3.606  50.989  1.00  0.00     0.210 C 
ENDBRANCH   1  23
TORSDOF 2
ENDMDL
MODEL 4
REMARK VINA RESULT:      -8.0      2.264      5.887
REMARK  2 active torsions:
REMARK  status: ('A' for Active; 'I' for Inactive)
REMARK    1  A    between atoms: O1_2  and  C2_3 
REMARK    2  A    between atoms: C6_9  and  N3_10 
ROOT
HETATM    1  C2  UNL     1      27.125   0.145  53.687  1.00  0.00     0.106 A 
HETATM    2  C3  UNL     1      27.524   1.063  52.738  1.00  0.00     0.072 A 
HETATM    3  C4  UNL     1      26.597   1.697  51.938  1.00  0.00     0.077 A 
HETATM    4  N1  UNL     1      26.863   2.606  50.988  1.00  0.00    -0.241 NA
HETATM    5  C5  UNL     1      25.876   3.168  50.268  1.00  0.00     0.236 A 
HETATM    6  N2  UNL     1      24.565   2.842  50.463  1.00  0.00    -0.223 NA
HETATM    7  C6  UNL     1      24.261   1.919  51.422  1.00  0.00     0.145 A 
HETATM    8  C13 UNL     1      25.282   1.354  52.152  1.00  0.00     0.075 A 
HETATM    9  C14 UNL     1      24.837   0.446  53.087  1.00  0.00     0.121 A 
HETATM   10  C15 UNL     1      25.780  -0.180  53.879  1.00  0.00     0.136 A 
HETATM   11  O2  UNL     1      25.362  -1.109  54.841  1.00  0.00    -0.344 OA
HETATM   12  C16 UNL     1      24.010  -1.138  55.293  1.00  0.00     0.202 C 
HETATM   13  C17 UNL     1      23.151  -1.012  54.050  1.00  0.00     0.202 C 
HETATM   14  O3  UNL     1      23.524   0.124  53.282  1.00  0.00    -0.345 OA
ENDROOT
BRANCH   7  15
HETATM   15  N3  UNL     1      22.855   1.714  51.444  1.00  0.00    -0.330 N 
HETATM   16  C7  UNL     1      21.878   0.783  50.895  1.00  0.00     0.155 C 
HETATM   17  C8  UNL     1      21.006   1.481  49.886  1.00  0.00    -0.005 C 
HETATM   18  C9  UNL     1      20.883   2.776  50.149  1.00  0.00    -0.082 C 
HETATM   19  C10 UNL     1      20.056   3.616  49.252  1.00  0.00     0.043 C 
HETATM   20  C11 UNL     1      21.445   3.622  51.236  1.00  0.00     0.092 C 
HETATM   21  C12 UNL     1      22.106   2.687  52.227  1.00  0.00     0.277 C 
HETATM   22  F1  UNL     1      21.132   2.097  53.020  1.00  0.00    -0.226 F 
ENDBRANCH   7  15
BRANCH   1  23
HETATM   23  O1  UNL     1      28.038  -0.499  54.498  1.00  0.00    -0.353 OA
HETATM   24  C1  UNL     1      29.389  -0.696  54.222  1.00  0.00     0.210 C 
ENDBRANCH   1  23
TORSDOF 2
ENDMDL
MODEL 5
REMARK VINA RESULT:      -8.0      2.703      6.678
REMARK  2 active torsions:
REMARK  status: ('A' for Active; 'I' for Inactive)
REMARK    1  A    between atoms: O1_2  and  C2_3 
REMARK    2  A    between atoms: C6_9  and  N3_10 
ROOT
HETATM    1  C2  UNL     1      27.228   0.933  53.097  1.00  0.00     0.106 A 
HETATM    2  C3  UNL     1      26.565   0.031  53.902  1.00  0.00     0.072 A 
HETATM    3  C4  UNL     1      25.190  -0.067  53.868  1.00  0.00     0.077 A 
HETATM    4  N1  UNL     1      24.438  -0.905  54.597  1.00  0.00    -0.241 NA
HETATM    5  C5  UNL     1      23.099  -0.918  54.479  1.00  0.00     0.236 A 
HETATM    6  N2  UNL     1      22.442  -0.086  53.619  1.00  0.00    -0.223 NA
HETATM    7  C6  UNL     1      23.179   0.779  52.863  1.00  0.00     0.145 A 
HETATM    8  C13 UNL     1      24.549   0.781  52.994  1.00  0.00     0.075 A 
HETATM    9  C14 UNL     1      25.168   1.696  52.172  1.00  0.00     0.121 A 
HETATM   10  C15 UNL     1      26.545   1.779  52.220  1.00  0.00     0.136 A 
HETATM   11  O2  UNL     1      27.207   2.698  51.396  1.00  0.00    -0.344 OA
HETATM   12  C16 UNL     1      26.562   3.257  50.253  1.00  0.00     0.202 C 
HETATM   13  C17 UNL     1      25.164   3.632  50.704  1.00  0.00     0.202 C 
HETATM   14  O3  UNL     1      24.508   2.526  51.310  1.00  0.00    -0.345 OA
ENDROOT
BRANCH   7  15
HETATM   15  N3  UNL     1      22.303   1.561  52.060  1.00  0.00    -0.330 N 
HETATM   16  C7  UNL     1      21.616   2.844  52.125  1.00  0.00     0.155 C 
HETATM   17  C8  UNL     1      20.128   2.632  52.220  1.00  0.00    -0.005 C 
HETATM   18  C9  UNL     1      19.751   1.501  51.637  1.00  0.00    -0.082 C 
HETATM   19  C10 UNL     1      18.316   1.136  51.639  1.00  0.00     0.043 C 
HETATM   20  C11 UNL     1      20.527   0.445  50.933  1.00  0.00     0.092 C 
HETATM   21  C12 UNL     1      21.943   0.962  50.784  1.00  0.00     0.277 C 
HETATM   22  F1  UNL     1      21.991   1.869  49.736  1.00  0.00    -0.226 F 
ENDBRANCH   7  15
BRANCH   1  23
HETATM   23  O1  UNL     1      28.604   1.044  53.117  1.00  0.00    -0.353 OA
HETATM   24  C1  UNL     1      29.483   0.252  53.851  1.00  0.00     0.210 C 
ENDBRANCH   1  23
TORSDOF 2
ENDMDL
MODEL 6
REMARK VINA RESULT:      -7.1      3.699      6.748
REMARK  2 active torsions:
REMARK  status: ('A' for Active; 'I' for Inactive)
REMARK    1  A    between atoms: O1_2  and  C2_3 
REMARK    2  A    between atoms: C6_9  and  N3_10 
ROOT
HETATM    1  C2  UNL     1      26.206   4.587  49.231  1.00  0.00     0.106 A 
HETATM    2  C3  UNL     1      26.755   3.583  50.001  1.00  0.00     0.072 A 
HETATM    3  C4  UNL     1      25.949   2.720  50.712  1.00  0.00     0.077 A 
HETATM    4  N1  UNL     1      26.365   1.708  51.488  1.00  0.00    -0.241 NA
HETATM    5  C5  UNL     1      25.487   0.922  52.135  1.00  0.00     0.236 A 
HETATM    6  N2  UNL     1      24.139   1.114  52.038  1.00  0.00    -0.223 NA
HETATM    7  C6  UNL     1      23.683   2.137  51.257  1.00  0.00     0.145 A 
HETATM    8  C13 UNL     1      24.594   2.932  50.599  1.00  0.00     0.075 A 
HETATM    9  C14 UNL     1      24.001   3.919  49.844  1.00  0.00     0.121 A 
HETATM   10  C15 UNL     1      24.824   4.774  49.138  1.00  0.00     0.136 A 
HETATM   11  O2  UNL     1      24.255   5.789  48.359  1.00  0.00    -0.344 OA
HETATM   12  C16 UNL     1      22.887   5.727  47.960  1.00  0.00     0.202 C 
HETATM   13  C17 UNL     1      22.112   5.299  49.191  1.00  0.00     0.202 C 
HETATM   14  O3  UNL     1      22.652   4.107  49.746  1.00  0.00    -0.345 OA
ENDROOT
BRANCH   7  15
HETATM   15  N3  UNL     1      22.263   2.171  51.313  1.00  0.00    -0.330 N 
HETATM   16  C7  UNL     1      21.215   2.871  52.044  1.00  0.00     0.155 C 
HETATM   17  C8  UNL     1      20.481   1.913  52.944  1.00  0.00    -0.005 C 
HETATM   18  C9  UNL     1      20.493   0.675  52.464  1.00  0.00    -0.082 C 
HETATM   19  C10 UNL     1      19.814  -0.398  53.228  1.00  0.00     0.043 C 
HETATM   20  C11 UNL     1      21.092   0.098  51.231  1.00  0.00     0.092 C 
HETATM   21  C12 UNL     1      21.591   1.260  50.397  1.00  0.00     0.277 C 
HETATM   22  F1  UNL     1      20.517   1.852  49.748  1.00  0.00    -0.226 F 
ENDBRANCH   7  15
BRANCH   1  23
HETATM   23  O1  UNL     1      26.997   5.461  48.511  1.00  0.00    -0.353 OA
HETATM   24  C1  UNL     1      28.380   5.391  48.368  1.00  0.00     0.210 C 
ENDBRANCH   1  23
TORSDOF 2
ENDMDL
MODEL 7
REMARK VINA RESULT:      -6.9      2.947      7.005
REMARK  2 active torsions:
REMARK  status: ('A' for Active; 'I' for Inactive)
REMARK    1  A    between atoms: O1_2  and  C2_3 
REMARK    2  A    between atoms: C6_9  and  N3_10 
ROOT
HETATM    1  C2  UNL     1      24.803  -0.045  53.549  1.00  0.00     0.106 A 
HETATM    2  C3  UNL     1      23.864  -0.879  54.119  1.00  0.00     0.072 A 
HETATM    3  C4  UNL     1      22.524  -0.736  53.826  1.00  0.00     0.077 A 
HETATM    4  N1  UNL     1      21.524  -1.485  54.312  1.00  0.00    -0.241 NA
HETATM    5  C5  UNL     1      20.248  -1.259  53.952  1.00  0.00     0.236 A 
HETATM    6  N2  UNL     1      19.909  -0.263  53.083  1.00  0.00    -0.223 NA
HETATM    7  C6  UNL     1      20.904   0.518  52.570  1.00  0.00     0.145 A 
HETATM    8  C13 UNL     1      22.205   0.274  52.947  1.00  0.00     0.075 A 
HETATM    9  C14 UNL     1      23.107   1.129  52.354  1.00  0.00     0.121 A 
HETATM   10  C15 UNL     1      24.444   0.971  52.659  1.00  0.00     0.136 A 
HETATM   11  O2  UNL     1      25.389   1.823  52.073  1.00  0.00    -0.344 OA
HETATM   12  C16 UNL     1      25.074   2.570  50.899  1.00  0.00     0.202 C 
HETATM   13  C17 UNL     1      23.690   3.143  51.128  1.00  0.00     0.202 C 
HETATM   14  O3  UNL     1      22.765   2.124  51.482  1.00  0.00    -0.345 OA
ENDROOT
BRANCH   7  15
HETATM   15  N3  UNL     1      20.334   1.498  51.712  1.00  0.00    -0.330 N 
HETATM   16  C7  UNL     1      19.881   2.881  51.782  1.00  0.00     0.155 C 
HETATM   17  C8  UNL     1      18.386   2.946  51.614  1.00  0.00    -0.005 C 
HETATM   18  C9  UNL     1      17.926   1.943  50.876  1.00  0.00    -0.082 C 
HETATM   19  C10 UNL     1      16.472   1.855  50.610  1.00  0.00     0.043 C 
HETATM   20  C11 UNL     1      18.618   0.806  50.213  1.00  0.00     0.092 C 
HETATM   21  C12 UNL     1      20.106   1.056  50.344  1.00  0.00     0.277 C 
HETATM   22  F1  UNL     1      20.496   2.001  49.406  1.00  0.00    -0.226 F 
ENDBRANCH   7  15
BRANCH   1  23
HETATM   23  O1  UNL     1      26.148  -0.174  53.829  1.00  0.00    -0.353 OA
HETATM   24  C1  UNL     1      26.813   0.353  54.934  1.00  0.00     0.210 C 
ENDBRANCH   1  23
TORSDOF 2
ENDMDL
MODEL 8
REMARK VINA RESULT:      -6.7      7.534      9.932
REMARK  2 active torsions:
REMARK  status: ('A' for Active; 'I' for Inactive)
REMARK    1  A    between atoms: O1_2  and  C2_3 
REMARK    2  A    between atoms: C6_9  and  N3_10 
ROOT
HETATM    1  C2  UNL     1      25.904   4.958  49.287  1.00  0.00     0.106 A 
HETATM    2  C3  UNL     1      27.138   4.454  48.932  1.00  0.00     0.072 A 
HETATM    3  C4  UNL     1      28.158   5.295  48.541  1.00  0.00     0.077 A 
HETATM    4  N1  UNL     1      29.395   4.924  48.179  1.00  0.00    -0.241 NA
HETATM    5  C5  UNL     1      30.316   5.835  47.819  1.00  0.00     0.236 A 
HETATM    6  N2  UNL     1      30.041   7.172  47.801  1.00  0.00    -0.223 NA
HETATM    7  C6  UNL     1      28.791   7.582  48.163  1.00  0.00     0.145 A 
HETATM    8  C13 UNL     1      27.858   6.638  48.531  1.00  0.00     0.075 A 
HETATM    9  C14 UNL     1      26.643   7.188  48.876  1.00  0.00     0.121 A 
HETATM   10  C15 UNL     1      25.634   6.329  49.266  1.00  0.00     0.136 A 
HETATM   11  O2  UNL     1      24.386   6.854  49.624  1.00  0.00    -0.344 OA
HETATM   12  C16 UNL     1      24.242   8.229  49.977  1.00  0.00     0.202 C 
HETATM   13  C17 UNL     1      25.038   9.009  48.949  1.00  0.00     0.202 C 
HETATM   14  O3  UNL     1      26.372   8.526  48.860  1.00  0.00    -0.345 OA
ENDROOT
BRANCH   7  15
HETATM   15  N3  UNL     1      28.714   8.998  48.054  1.00  0.00    -0.330 N 
HETATM   16  C7  UNL     1      28.367   9.999  47.054  1.00  0.00     0.155 C 
HETATM   17  C8  UNL     1      29.589  10.784  46.660  1.00  0.00    -0.005 C 
HETATM   18  C9  UNL     1      30.476  10.847  47.646  1.00  0.00    -0.082 C 
HETATM   19  C10 UNL     1      31.741  11.585  47.427  1.00  0.00     0.043 C 
HETATM   20  C11 UNL     1      30.464  10.289  49.024  1.00  0.00     0.092 C 
HETATM   21  C12 UNL     1      29.077   9.726  49.261  1.00  0.00     0.277 C 
HETATM   22  F1  UNL     1      28.202  10.765  49.541  1.00  0.00    -0.226 F 
ENDBRANCH   7  15
BRANCH   1  23
HETATM   23  O1  UNL     1      24.872   4.132  49.682  1.00  0.00    -0.353 OA
HETATM   24  C1  UNL     1      24.970   3.053  50.556  1.00  0.00     0.210 C 
ENDBRANCH   1  23
TORSDOF 2
ENDMDL
MODEL 9
REMARK VINA RESULT:      -6.5      3.503      6.705
REMARK  2 active torsions:
REMARK  status: ('A' for Active; 'I' for Inactive)
REMARK    1  A    between atoms: O1_2  and  C2_3 
REMARK    2  A    between atoms: C6_9  and  N3_10 
ROOT
HETATM    1  C2  UNL     1      26.150   4.818  49.310  1.00  0.00     0.106 A 
HETATM    2  C3  UNL     1      25.078   5.447  48.712  1.00  0.00     0.072 A 
HETATM    3  C4  UNL     1      23.790   5.008  48.936  1.00  0.00     0.077 A 
HETATM    4  N1  UNL     1      22.673   5.539  48.418  1.00  0.00    -0.241 NA
HETATM    5  C5  UNL     1      21.462   5.032  48.710  1.00  0.00     0.236 A 
HETATM    6  N2  UNL     1      21.310   3.959  49.540  1.00  0.00    -0.223 NA
HETATM    7  C6  UNL     1      22.428   3.395  50.084  1.00  0.00     0.145 A 
HETATM    8  C13 UNL     1      23.660   3.926  49.777  1.00  0.00     0.075 A 
HETATM    9  C14 UNL     1      24.700   3.268  50.395  1.00  0.00     0.121 A 
HETATM   10  C15 UNL     1      25.983   3.721  50.159  1.00  0.00     0.136 A 
HETATM   11  O2  UNL     1      27.064   3.075  50.772  1.00  0.00    -0.344 OA
HETATM   12  C16 UNL     1      26.868   2.241  51.913  1.00  0.00     0.202 C 
HETATM   13  C17 UNL     1      25.653   1.389  51.605  1.00  0.00     0.202 C 
HETATM   14  O3  UNL     1      24.545   2.196  51.228  1.00  0.00    -0.345 OA
ENDROOT
BRANCH   7  15
HETATM   15  N3  UNL     1      22.048   2.289  50.892  1.00  0.00    -0.330 N 
HETATM   16  C7  UNL     1      21.936   0.841  50.779  1.00  0.00     0.155 C 
HETATM   17  C8  UNL     1      20.491   0.425  50.843  1.00  0.00    -0.005 C 
HETATM   18  C9  UNL     1      19.762   1.275  51.556  1.00  0.00    -0.082 C 
HETATM   19  C10 UNL     1      18.313   1.016  51.721  1.00  0.00     0.043 C 
HETATM   20  C11 UNL     1      20.123   2.526  52.275  1.00  0.00     0.092 C 
HETATM   21  C12 UNL     1      21.634   2.632  52.245  1.00  0.00     0.277 C 
HETATM   22  F1  UNL     1      22.172   1.781  53.199  1.00  0.00    -0.226 F 
ENDBRANCH   7  15
BRANCH   1  23
HETATM   23  O1  UNL     1      27.447   5.243  49.098  1.00  0.00    -0.353 OA
HETATM   24  C1  UNL     1      27.838   6.342  48.339  1.00  0.00     0.210 C 
ENDBRANCH   1  23
TORSDOF 2
ENDMDL
