MODEL 1
REMARK VINA RESULT:      -7.4      0.000      0.000
REMARK  5 active torsions:
REMARK  status: ('A' for Active; 'I' for Inactive)
REMARK    1  A    between atoms: C2_2  and  O1_3 
REMARK    2  A    between atoms: O1_3  and  C3_4 
REMARK       I    between atoms: N2_14  and  C12_15 
REMARK    3  A    between atoms: C12_15  and  C13_17 
REMARK    4  A    between atoms: C14_18  and  C15_19 
REMARK    5  A    between atoms: C15_19  and  N3_20 
ROOT
HETATM    1  C3  UNL     1      24.499   0.694  52.420  1.00  0.00     0.094 C 
HETATM    2  C4  UNL     1      25.870   0.833  52.159  1.00  0.00     0.043 C 
HETATM    3  C5  UNL     1      27.070   0.061  52.459  1.00  0.00     0.162 C 
HETATM    4  N1  UNL     1      27.913   0.509  53.635  1.00  0.00    -0.287 NA
HETATM    5  C6  UNL     1      26.963   0.730  54.528  1.00  0.00     0.123 C 
HETATM    6  C7  UNL     1      26.286  -0.515  53.997  1.00  0.00    -0.012 C 
HETATM    7  C8  UNL     1      26.791  -1.281  53.043  1.00  0.00    -0.044 C 
HETATM    8  C9  UNL     1      27.225  -2.454  52.284  1.00  0.00     0.047 C 
HETATM    9  C10 UNL     1      24.835  -0.492  54.537  1.00  0.00     0.045 C 
HETATM   10  C11 UNL     1      23.889  -0.158  53.524  1.00  0.00     0.069 C 
HETATM   11  N2  UNL     1      22.577  -0.528  53.526  1.00  0.00    -0.321 N 
HETATM   12  C12 UNL     1      21.877  -1.304  54.449  1.00  0.00     0.245 C 
HETATM   13  O2  UNL     1      22.493  -1.753  55.440  1.00  0.00    -0.268 OA
HETATM   14  H13 UNL     1      22.106  -0.141  52.707  1.00  0.00     0.169 HD
ENDROOT
BRANCH   1  15
HETATM   15  O1  UNL     1      23.535   1.359  51.650  1.00  0.00    -0.349 OA
BRANCH  15  16
HETATM   16  C2  UNL     1      23.568   2.712  51.313  1.00  0.00     0.171 C 
HETATM   17  C1  UNL     1      23.557   3.609  52.555  1.00  0.00     0.034 C 
ENDBRANCH  15  16
ENDBRANCH   1  15
BRANCH  12  18
HETATM   18  C13 UNL     1      20.465  -1.560  54.225  1.00  0.00     0.072 C 
HETATM   19  C14 UNL     1      19.764  -0.783  53.423  1.00  0.00     0.008 C 
BRANCH  19  20
HETATM   20  C15 UNL     1      18.332  -0.918  53.101  1.00  0.00     0.299 C 
BRANCH  20  21
HETATM   21  N3  UNL     1      18.097  -0.521  51.736  1.00  0.00     0.083 N 
HETATM   22  C16 UNL     1      19.179   0.326  51.287  1.00  0.00     0.309 C 
HETATM   23  C17 UNL     1      16.829   0.146  51.576  1.00  0.00     0.309 C 
ENDBRANCH  20  21
ENDBRANCH  19  20
ENDBRANCH  12  18
TORSDOF 5
ENDMDL
MODEL 2
REMARK VINA RESULT:      -7.0      2.567      3.321
REMARK  5 active torsions:
REMARK  status: ('A' for Active; 'I' for Inactive)
REMARK    1  A    between atoms: C2_2  and  O1_3 
REMARK    2  A    between atoms: O1_3  and  C3_4 
REMARK       I    between atoms: N2_14  and  C12_15 
REMARK    3  A    between atoms: C12_15  and  C13_17 
REMARK    4  A    between atoms: C14_18  and  C15_19 
REMARK    5  A    between atoms: C15_19  and  N3_20 
ROOT
HETATM    1  C3  UNL     1      25.742   1.502  52.099  1.00  0.00     0.094 C 
HETATM    2  C4  UNL     1      26.997   1.100  52.574  1.00  0.00     0.043 C 
HETATM    3  C5  UNL     1      27.555  -0.126  53.135  1.00  0.00     0.162 C 
HETATM    4  N1  UNL     1      27.683  -0.209  54.642  1.00  0.00    -0.287 NA
HETATM    5  C6  UNL     1      26.502   0.270  55.000  1.00  0.00     0.123 C 
HETATM    6  C7  UNL     1      25.923  -0.515  53.841  1.00  0.00    -0.012 C 
HETATM    7  C8  UNL     1      26.639  -1.296  53.048  1.00  0.00    -0.044 C 
HETATM    8  C9  UNL     1      27.075  -2.442  52.249  1.00  0.00     0.047 C 
HETATM    9  C10 UNL     1      24.494   0.033  53.610  1.00  0.00     0.045 C 
HETATM   10  C11 UNL     1      24.412   0.846  52.442  1.00  0.00     0.069 C 
HETATM   11  N2  UNL     1      23.282   1.047  51.706  1.00  0.00    -0.321 N 
HETATM   12  C12 UNL     1      22.004   0.518  51.883  1.00  0.00     0.245 C 
HETATM   13  O2  UNL     1      21.808  -0.261  52.840  1.00  0.00    -0.268 OA
HETATM   14  H13 UNL     1      23.478   1.690  50.938  1.00  0.00     0.169 HD
ENDROOT
BRANCH   1  15
HETATM   15  O1  UNL     1      25.601   2.593  51.228  1.00  0.00    -0.349 OA
BRANCH  15  16
HETATM   16  C2  UNL     1      26.513   2.952  50.236  1.00  0.00     0.171 C 
HETATM   17  C1  UNL     1      26.155   4.296  49.593  1.00  0.00     0.034 C 
ENDBRANCH  15  16
ENDBRANCH   1  15
BRANCH  12  18
HETATM   18  C13 UNL     1      20.953   0.891  50.952  1.00  0.00     0.072 C 
HETATM   19  C14 UNL     1      21.250   1.482  49.811  1.00  0.00     0.008 C 
BRANCH  19  20
HETATM   20  C15 UNL     1      20.298   1.916  48.774  1.00  0.00     0.299 C 
BRANCH  20  21
HETATM   21  N3  UNL     1      21.013   2.459  47.648  1.00  0.00     0.083 N 
HETATM   22  C16 UNL     1      22.426   2.188  47.797  1.00  0.00     0.309 C 
HETATM   23  C17 UNL     1      20.782   3.872  47.488  1.00  0.00     0.309 C 
ENDBRANCH  20  21
ENDBRANCH  19  20
ENDBRANCH  12  18
TORSDOF 5
ENDMDL
MODEL 3
REMARK VINA RESULT:      -6.9      1.913      2.383
REMARK  5 active torsions:
REMARK  status: ('A' for Active; 'I' for Inactive)
REMARK    1  A    between atoms: C2_2  and  O1_3 
REMARK    2  A    between atoms: O1_3  and  C3_4 
REMARK       I    between atoms: N2_14  and  C12_15 
REMARK    3  A    between atoms: C12_15  and  C13_17 
REMARK    4  A    between atoms: C14_18  and  C15_19 
REMARK    5  A    between atoms: C15_19  and  N3_20 
ROOT
HETATM    1  C3  UNL     1      25.669   1.532  52.194  1.00  0.00     0.094 C 
HETATM    2  C4  UNL     1      26.902   1.150  52.740  1.00  0.00     0.043 C 
HETATM    3  C5  UNL     1      27.458  -0.076  53.301  1.00  0.00     0.162 C 
HETATM    4  N1  UNL     1      27.489  -0.202  54.810  1.00  0.00    -0.287 NA
HETATM    5  C6  UNL     1      26.274   0.232  55.102  1.00  0.00     0.123 C 
HETATM    6  C7  UNL     1      25.796  -0.532  53.886  1.00  0.00    -0.012 C 
HETATM    7  C8  UNL     1      26.584  -1.269  53.120  1.00  0.00    -0.044 C 
HETATM    8  C9  UNL     1      27.106  -2.377  52.319  1.00  0.00     0.047 C 
HETATM    9  C10 UNL     1      24.369  -0.017  53.576  1.00  0.00     0.045 C 
HETATM   10  C11 UNL     1      24.339   0.828  52.429  1.00  0.00     0.069 C 
HETATM   11  N2  UNL     1      23.255   1.021  51.626  1.00  0.00    -0.321 N 
HETATM   12  C12 UNL     1      21.984   0.451  51.702  1.00  0.00     0.245 C 
HETATM   13  O2  UNL     1      21.749  -0.362  52.622  1.00  0.00    -0.268 OA
HETATM   14  H13 UNL     1      23.482   1.693  50.892  1.00  0.00     0.169 HD
ENDROOT
BRANCH   1  15
HETATM   15  O1  UNL     1      25.554   2.644  51.348  1.00  0.00    -0.349 OA
BRANCH  15  16
HETATM   16  C2  UNL     1      26.558   3.121  50.506  1.00  0.00     0.171 C 
HETATM   17  C1  UNL     1      26.004   4.080  49.446  1.00  0.00     0.034 C 
ENDBRANCH  15  16
ENDBRANCH   1  15
BRANCH  12  18
HETATM   18  C13 UNL     1      20.986   0.824  50.715  1.00  0.00     0.072 C 
HETATM   19  C14 UNL     1      19.701   0.747  51.000  1.00  0.00     0.008 C 
BRANCH  19  20
HETATM   20  C15 UNL     1      18.581   1.088  50.106  1.00  0.00     0.299 C 
BRANCH  20  21
HETATM   21  N3  UNL     1      17.582   0.051  50.153  1.00  0.00     0.083 N 
HETATM   22  C16 UNL     1      16.347   0.544  49.586  1.00  0.00     0.309 C 
HETATM   23  C17 UNL     1      17.369  -0.435  51.492  1.00  0.00     0.309 C 
ENDBRANCH  20  21
ENDBRANCH  19  20
ENDBRANCH  12  18
TORSDOF 5
ENDMDL
MODEL 4
REMARK VINA RESULT:      -6.7      5.458      9.707
REMARK  5 active torsions:
REMARK  status: ('A' for Active; 'I' for Inactive)
REMARK    1  A    between atoms: C2_2  and  O1_3 
REMARK    2  A    between atoms: O1_3  and  C3_4 
REMARK       I    between atoms: N2_14  and  C12_15 
REMARK    3  A    between atoms: C12_15  and  C13_17 
REMARK    4  A    between atoms: C14_18  and  C15_19 
REMARK    5  A    between atoms: C15_19  and  N3_20 
ROOT
HETATM    1  C3  UNL     1      25.849   2.904  50.848  1.00  0.00     0.094 C 
HETATM    2  C4  UNL     1      24.601   2.368  51.194  1.00  0.00     0.043 C 
HETATM    3  C5  UNL     1      23.253   2.427  50.641  1.00  0.00     0.162 C 
HETATM    4  N1  UNL     1      22.280   3.401  51.275  1.00  0.00    -0.287 NA
HETATM    5  C6  UNL     1      23.058   4.466  51.381  1.00  0.00     0.123 C 
HETATM    6  C7  UNL     1      23.609   4.100  50.019  1.00  0.00    -0.012 C 
HETATM    7  C8  UNL     1      23.181   3.074  49.301  1.00  0.00    -0.044 C 
HETATM    8  C9  UNL     1      22.717   2.259  48.178  1.00  0.00     0.047 C 
HETATM    9  C10 UNL     1      24.906   4.924  49.834  1.00  0.00     0.045 C 
HETATM   10  C11 UNL     1      26.077   4.121  49.962  1.00  0.00     0.069 C 
HETATM   11  N2  UNL     1      27.281   4.395  49.386  1.00  0.00    -0.321 N 
HETATM   12  C12 UNL     1      27.644   5.452  48.551  1.00  0.00     0.245 C 
HETATM   13  O2  UNL     1      26.777   6.302  48.256  1.00  0.00    -0.268 OA
HETATM   14  H13 UNL     1      27.963   3.684  49.653  1.00  0.00     0.169 HD
ENDROOT
BRANCH   1  15
HETATM   15  O1  UNL     1      27.045   2.338  51.312  1.00  0.00    -0.349 OA
BRANCH  15  16
HETATM   16  C2  UNL     1      27.207   1.691  52.537  1.00  0.00     0.171 C 
HETATM   17  C1  UNL     1      28.300   2.346  53.387  1.00  0.00     0.034 C 
ENDBRANCH  15  16
ENDBRANCH   1  15
BRANCH  12  18
HETATM   18  C13 UNL     1      29.009   5.524  48.061  1.00  0.00     0.072 C 
HETATM   19  C14 UNL     1      29.606   6.690  47.912  1.00  0.00     0.008 C 
BRANCH  19  20
HETATM   20  C15 UNL     1      30.979   6.918  47.427  1.00  0.00     0.299 C 
BRANCH  20  21
HETATM   21  N3  UNL     1      31.794   7.443  48.493  1.00  0.00     0.083 N 
HETATM   22  C16 UNL     1      32.272   6.355  49.316  1.00  0.00     0.309 C 
HETATM   23  C17 UNL     1      31.085   8.411  49.291  1.00  0.00     0.309 C 
ENDBRANCH  20  21
ENDBRANCH  19  20
ENDBRANCH  12  18
TORSDOF 5
ENDMDL
MODEL 5
REMARK VINA RESULT:      -6.2      2.292      7.342
REMARK  5 active torsions:
REMARK  status: ('A' for Active; 'I' for Inactive)
REMARK    1  A    between atoms: C2_2  and  O1_3 
REMARK    2  A    between atoms: O1_3  and  C3_4 
REMARK       I    between atoms: N2_14  and  C12_15 
REMARK    3  A    between atoms: C12_15  and  C13_17 
REMARK    4  A    between atoms: C14_18  and  C15_19 
REMARK    5  A    between atoms: C15_19  and  N3_20 
ROOT
HETATM    1  C3  UNL     1      21.743   1.539  52.695  1.00  0.00     0.094 C 
HETATM    2  C4  UNL     1      20.446   1.853  52.266  1.00  0.00     0.043 C 
HETATM    3  C5  UNL     1      19.851   2.364  51.036  1.00  0.00     0.162 C 
HETATM    4  N1  UNL     1      19.527   3.843  50.980  1.00  0.00    -0.287 NA
HETATM    5  C6  UNL     1      20.636   4.342  51.499  1.00  0.00     0.123 C 
HETATM    6  C7  UNL     1      21.384   3.289  50.708  1.00  0.00    -0.012 C 
HETATM    7  C8  UNL     1      20.801   2.427  49.891  1.00  0.00    -0.044 C 
HETATM    8  C9  UNL     1      20.504   1.605  48.717  1.00  0.00     0.047 C 
HETATM    9  C10 UNL     1      22.817   3.235  51.292  1.00  0.00     0.045 C 
HETATM   10  C11 UNL     1      23.032   2.070  52.084  1.00  0.00     0.069 C 
HETATM   11  N2  UNL     1      24.244   1.484  52.303  1.00  0.00    -0.321 N 
HETATM   12  C12 UNL     1      25.501   1.841  51.814  1.00  0.00     0.245 C 
HETATM   13  O2  UNL     1      25.587   2.834  51.061  1.00  0.00    -0.268 OA
HETATM   14  H13 UNL     1      24.135   0.683  52.924  1.00  0.00     0.169 HD
ENDROOT
BRANCH   1  15
HETATM   15  O1  UNL     1      21.969   0.669  53.771  1.00  0.00    -0.349 OA
BRANCH  15  16
HETATM   16  C2  UNL     1      21.304  -0.539  53.982  1.00  0.00     0.171 C 
HETATM   17  C1  UNL     1      22.147  -1.516  54.808  1.00  0.00     0.034 C 
ENDBRANCH  15  16
ENDBRANCH   1  15
BRANCH  12  18
HETATM   18  C13 UNL     1      26.655   1.048  52.199  1.00  0.00     0.072 C 
HETATM   19  C14 UNL     1      26.506  -0.200  52.597  1.00  0.00     0.008 C 
BRANCH  19  20
HETATM   20  C15 UNL     1      27.577  -1.122  53.016  1.00  0.00     0.299 C 
BRANCH  20  21
HETATM   21  N3  UNL     1      28.697  -0.372  53.525  1.00  0.00     0.083 N 
HETATM   22  C16 UNL     1      29.901  -1.167  53.413  1.00  0.00     0.309 C 
HETATM   23  C17 UNL     1      28.493   0.051  54.887  1.00  0.00     0.309 C 
ENDBRANCH  20  21
ENDBRANCH  19  20
ENDBRANCH  12  18
TORSDOF 5
ENDMDL
MODEL 6
REMARK VINA RESULT:      -6.1      5.470      9.304
REMARK  5 active torsions:
REMARK  status: ('A' for Active; 'I' for Inactive)
REMARK    1  A    between atoms: C2_2  and  O1_3 
REMARK    2  A    between atoms: O1_3  and  C3_4 
REMARK       I    between atoms: N2_14  and  C12_15 
REMARK    3  A    between atoms: C12_15  and  C13_17 
REMARK    4  A    between atoms: C14_18  and  C15_19 
REMARK    5  A    between atoms: C15_19  and  N3_20 
ROOT
HETATM    1  C3  UNL     1      24.033   5.075  51.305  1.00  0.00     0.094 C 
HETATM    2  C4  UNL     1      23.345   4.208  52.165  1.00  0.00     0.043 C 
HETATM    3  C5  UNL     1      23.611   2.903  52.759  1.00  0.00     0.162 C 
HETATM    4  N1  UNL     1      22.983   1.694  52.096  1.00  0.00    -0.287 NA
HETATM    5  C6  UNL     1      23.238   1.968  50.828  1.00  0.00     0.123 C 
HETATM    6  C7  UNL     1      24.592   2.463  51.290  1.00  0.00    -0.012 C 
HETATM    7  C8  UNL     1      25.004   2.420  52.547  1.00  0.00    -0.044 C 
HETATM    8  C9  UNL     1      25.837   2.209  53.732  1.00  0.00     0.047 C 
HETATM    9  C10 UNL     1      25.189   3.274  50.114  1.00  0.00     0.045 C 
HETATM   10  C11 UNL     1      25.157   4.678  50.358  1.00  0.00     0.069 C 
HETATM   11  N2  UNL     1      26.008   5.588  49.806  1.00  0.00    -0.321 N 
HETATM   12  C12 UNL     1      27.081   5.385  48.937  1.00  0.00     0.245 C 
HETATM   13  O2  UNL     1      27.345   4.217  48.580  1.00  0.00    -0.268 OA
HETATM   14  H13 UNL     1      25.760   6.528  50.116  1.00  0.00     0.169 HD
ENDROOT
BRANCH   1  15
HETATM   15  O1  UNL     1      23.727   6.443  51.243  1.00  0.00    -0.349 OA
BRANCH  15  16
HETATM   16  C2  UNL     1      22.584   6.985  50.659  1.00  0.00     0.171 C 
HETATM   17  C1  UNL     1      22.925   8.114  49.680  1.00  0.00     0.034 C 
ENDBRANCH  15  16
ENDBRANCH   1  15
BRANCH  12  18
HETATM   18  C13 UNL     1      27.845   6.533  48.484  1.00  0.00     0.072 C 
HETATM   19  C14 UNL     1      29.142   6.430  48.268  1.00  0.00     0.008 C 
BRANCH  19  20
HETATM   20  C15 UNL     1      30.044   7.502  47.810  1.00  0.00     0.299 C 
BRANCH  20  21
HETATM   21  N3  UNL     1      30.740   8.071  48.936  1.00  0.00     0.083 N 
HETATM   22  C16 UNL     1      30.187   9.373  49.237  1.00  0.00     0.309 C 
HETATM   23  C17 UNL     1      32.160   8.162  48.705  1.00  0.00     0.309 C 
ENDBRANCH  20  21
ENDBRANCH  19  20
ENDBRANCH  12  18
TORSDOF 5
ENDMDL
MODEL 7
REMARK VINA RESULT:      -6.1      5.362      9.018
REMARK  5 active torsions:
REMARK  status: ('A' for Active; 'I' for Inactive)
REMARK    1  A    between atoms: C2_2  and  O1_3 
REMARK    2  A    between atoms: O1_3  and  C3_4 
REMARK       I    between atoms: N2_14  and  C12_15 
REMARK    3  A    between atoms: C12_15  and  C13_17 
REMARK    4  A    between atoms: C14_18  and  C15_19 
REMARK    5  A    between atoms: C15_19  and  N3_20 
ROOT
HETATM    1  C3  UNL     1      24.231   4.994  51.193  1.00  0.00     0.094 C 
HETATM    2  C4  UNL     1      23.505   4.189  52.080  1.00  0.00     0.043 C 
HETATM    3  C5  UNL     1      23.729   2.914  52.752  1.00  0.00     0.162 C 
HETATM    4  N1  UNL     1      23.096   1.681  52.141  1.00  0.00    -0.287 NA
HETATM    5  C6  UNL     1      23.390   1.880  50.866  1.00  0.00     0.123 C 
HETATM    6  C7  UNL     1      24.740   2.375  51.338  1.00  0.00    -0.012 C 
HETATM    7  C8  UNL     1      25.117   2.395  52.607  1.00  0.00    -0.044 C 
HETATM    8  C9  UNL     1      25.914   2.237  53.824  1.00  0.00     0.047 C 
HETATM    9  C10 UNL     1      25.384   3.109  50.137  1.00  0.00     0.045 C 
HETATM   10  C11 UNL     1      25.373   4.525  50.301  1.00  0.00     0.069 C 
HETATM   11  N2  UNL     1      26.256   5.388  49.724  1.00  0.00    -0.321 N 
HETATM   12  C12 UNL     1      27.347   5.117  48.898  1.00  0.00     0.245 C 
HETATM   13  O2  UNL     1      27.598   3.927  48.613  1.00  0.00    -0.268 OA
HETATM   14  H13 UNL     1      26.017   6.348  49.974  1.00  0.00     0.169 HD
ENDROOT
BRANCH   1  15
HETATM   15  O1  UNL     1      23.954   6.361  51.047  1.00  0.00    -0.349 OA
BRANCH  15  16
HETATM   16  C2  UNL     1      22.995   6.900  50.191  1.00  0.00     0.171 C 
HETATM   17  C1  UNL     1      21.653   7.112  50.900  1.00  0.00     0.034 C 
ENDBRANCH  15  16
ENDBRANCH   1  15
BRANCH  12  18
HETATM   18  C13 UNL     1      28.146   6.225  48.404  1.00  0.00     0.072 C 
HETATM   19  C14 UNL     1      27.673   7.455  48.433  1.00  0.00     0.008 C 
BRANCH  19  20
HETATM   20  C15 UNL     1      28.364   8.672  47.969  1.00  0.00     0.299 C 
BRANCH  20  21
HETATM   21  N3  UNL     1      28.773   9.465  49.100  1.00  0.00     0.083 N 
HETATM   22  C16 UNL     1      28.334  10.831  48.916  1.00  0.00     0.309 C 
HETATM   23  C17 UNL     1      30.197   9.413  49.312  1.00  0.00     0.309 C 
ENDBRANCH  20  21
ENDBRANCH  19  20
ENDBRANCH  12  18
TORSDOF 5
ENDMDL
MODEL 8
REMARK VINA RESULT:      -6.0      8.456     10.471
REMARK  5 active torsions:
REMARK  status: ('A' for Active; 'I' for Inactive)
REMARK    1  A    between atoms: C2_2  and  O1_3 
REMARK    2  A    between atoms: O1_3  and  C3_4 
REMARK       I    between atoms: N2_14  and  C12_15 
REMARK    3  A    between atoms: C12_15  and  C13_17 
REMARK    4  A    between atoms: C14_18  and  C15_19 
REMARK    5  A    between atoms: C15_19  and  N3_20 
ROOT
HETATM    1  C3  UNL     1      30.984   8.046  48.671  1.00  0.00     0.094 C 
HETATM    2  C4  UNL     1      32.285   8.214  48.177  1.00  0.00     0.043 C 
HETATM    3  C5  UNL     1      33.101   7.574  47.152  1.00  0.00     0.162 C 
HETATM    4  N1  UNL     1      34.108   6.537  47.608  1.00  0.00    -0.287 NA
HETATM    5  C6  UNL     1      33.363   5.853  48.461  1.00  0.00     0.123 C 
HETATM    6  C7  UNL     1      32.229   6.009  47.471  1.00  0.00    -0.012 C 
HETATM    7  C8  UNL     1      32.349   6.613  46.299  1.00  0.00    -0.044 C 
HETATM    8  C9  UNL     1      32.252   6.906  44.869  1.00  0.00     0.047 C 
HETATM    9  C10 UNL     1      30.930   5.637  48.228  1.00  0.00     0.045 C 
HETATM   10  C11 UNL     1      30.143   6.784  48.540  1.00  0.00     0.069 C 
HETATM   11  N2  UNL     1      28.792   6.779  48.725  1.00  0.00    -0.321 N 
HETATM   12  C12 UNL     1      27.889   5.720  48.633  1.00  0.00     0.245 C 
HETATM   13  O2  UNL     1      28.328   4.586  48.342  1.00  0.00    -0.268 OA
HETATM   14  H13 UNL     1      28.471   7.718  48.965  1.00  0.00     0.169 HD
ENDROOT
BRANCH   1  15
HETATM   15  O1  UNL     1      30.320   9.073  49.356  1.00  0.00    -0.349 OA
BRANCH  15  16
HETATM   16  C2  UNL     1      29.815  10.234  48.771  1.00  0.00     0.171 C 
HETATM   17  C1  UNL     1      30.670  11.460  49.110  1.00  0.00     0.034 C 
ENDBRANCH  15  16
ENDBRANCH   1  15
BRANCH  12  18
HETATM   18  C13 UNL     1      26.480   5.973  48.880  1.00  0.00     0.072 C 
HETATM   19  C14 UNL     1      25.732   5.066  49.475  1.00  0.00     0.008 C 
BRANCH  19  20
HETATM   20  C15 UNL     1      24.297   5.181  49.790  1.00  0.00     0.299 C 
BRANCH  20  21
HETATM   21  N3  UNL     1      24.117   5.973  50.980  1.00  0.00     0.083 N 
HETATM   22  C16 UNL     1      23.472   5.174  51.999  1.00  0.00     0.309 C 
HETATM   23  C17 UNL     1      23.364   7.174  50.723  1.00  0.00     0.309 C 
ENDBRANCH  20  21
ENDBRANCH  19  20
ENDBRANCH  12  18
TORSDOF 5
ENDMDL
MODEL 9
REMARK VINA RESULT:      -5.9      4.079      6.162
REMARK  5 active torsions:
REMARK  status: ('A' for Active; 'I' for Inactive)
REMARK    1  A    between atoms: C2_2  and  O1_3 
REMARK    2  A    between atoms: O1_3  and  C3_4 
REMARK       I    between atoms: N2_14  and  C12_15 
REMARK    3  A    between atoms: C12_15  and  C13_17 
REMARK    4  A    between atoms: C14_18  and  C15_19 
REMARK    5  A    between atoms: C15_19  and  N3_20 
ROOT
HETATM    1  C3  UNL     1      25.428   2.609  50.992  1.00  0.00     0.094 C 
HETATM    2  C4  UNL     1      26.082   1.467  51.475  1.00  0.00     0.043 C 
HETATM    3  C5  UNL     1      25.820   0.479  52.515  1.00  0.00     0.162 C 
HETATM    4  N1  UNL     1      26.537   0.652  53.839  1.00  0.00    -0.287 NA
HETATM    5  C6  UNL     1      26.364   1.950  54.025  1.00  0.00     0.123 C 
HETATM    6  C7  UNL     1      24.964   1.761  53.482  1.00  0.00    -0.012 C 
HETATM    7  C8  UNL     1      24.464   0.590  53.121  1.00  0.00    -0.044 C 
HETATM    8  C9  UNL     1      23.557  -0.548  52.966  1.00  0.00     0.047 C 
HETATM    9  C10 UNL     1      24.424   3.174  53.153  1.00  0.00     0.045 C 
HETATM   10  C11 UNL     1      24.389   3.423  51.750  1.00  0.00     0.069 C 
HETATM   11  N2  UNL     1      23.548   4.299  51.131  1.00  0.00    -0.321 N 
HETATM   12  C12 UNL     1      22.548   5.104  51.678  1.00  0.00     0.245 C 
HETATM   13  O2  UNL     1      22.352   5.055  52.911  1.00  0.00    -0.268 OA
HETATM   14  H13 UNL     1      23.740   4.316  50.129  1.00  0.00     0.169 HD
ENDROOT
BRANCH   1  15
HETATM   15  O1  UNL     1      25.688   3.116  49.711  1.00  0.00    -0.349 OA
BRANCH  15  16
HETATM   16  C2  UNL     1      26.778   3.916  49.369  1.00  0.00     0.171 C 
HETATM   17  C1  UNL     1      26.347   5.344  49.015  1.00  0.00     0.034 C 
ENDBRANCH  15  16
ENDBRANCH   1  15
BRANCH  12  18
HETATM   18  C13 UNL     1      21.778   5.964  50.797  1.00  0.00     0.072 C 
HETATM   19  C14 UNL     1      22.161   7.205  50.572  1.00  0.00     0.008 C 
BRANCH  19  20
HETATM   20  C15 UNL     1      21.485   8.190  49.708  1.00  0.00     0.299 C 
BRANCH  20  21
HETATM   21  N3  UNL     1      22.418   8.721  48.747  1.00  0.00     0.083 N 
HETATM   22  C16 UNL     1      22.275   8.013  47.494  1.00  0.00     0.309 C 
HETATM   23  C17 UNL     1      23.778   8.653  49.217  1.00  0.00     0.309 C 
ENDBRANCH  20  21
ENDBRANCH  19  20
ENDBRANCH  12  18
TORSDOF 5
ENDMDL
