MODEL 1
REMARK VINA RESULT:      -9.3      0.000      0.000
REMARK  5 active torsions:
REMARK  status: ('A' for Active; 'I' for Inactive)
REMARK    1  A    between atoms: C3_4  and  C4_5 
REMARK    2  A    between atoms: C4_5  and  C5_6 
REMARK    3  A    between atoms: C5_6  and  C7_8 
REMARK    4  A    between atoms: C7_8  and  N1_9 
REMARK    5  A    between atoms: C13_18  and  C14_19 
ROOT
HETATM    1  N1  UNL     1      25.272   3.044  51.890  1.00  0.00    -0.384 N 
HETATM    2  C8  UNL     1      26.450   2.399  52.272  1.00  0.00     0.113 C 
HETATM    3  C9  UNL     1      26.946   1.201  52.299  1.00  0.00     0.058 C 
HETATM    4  C10 UNL     1      26.549  -0.211  51.915  1.00  0.00     0.139 C 
HETATM    5  C11 UNL     1      25.686  -0.462  53.125  1.00  0.00     0.107 C 
HETATM    6  N2  UNL     1      26.368  -0.594  54.167  1.00  0.00    -0.229 NA
HETATM    7  C12 UNL     1      27.677   0.097  54.228  1.00  0.00     0.235 C 
HETATM    8  N3  UNL     1      28.099   0.864  53.141  1.00  0.00    -0.245 NA
HETATM    9  N4  UNL     1      24.306  -0.549  53.320  1.00  0.00    -0.369 N 
HETATM   10  C13 UNL     1      23.325   0.441  53.730  1.00  0.00     0.117 C 
HETATM   11  C20 UNL     1      23.344   1.662  52.760  1.00  0.00     0.050 C 
HETATM   12  C21 UNL     1      24.531   2.515  53.026  1.00  0.00     0.125 C 
HETATM   13  H13 UNL     1      24.309  -1.565  53.057  1.00  0.00     0.161 HD
ENDROOT
BRANCH   1  14
HETATM   14  C7  UNL     1      24.934   3.973  50.849  1.00  0.00     0.156 C 
BRANCH  14  15
HETATM   15  C5  UNL     1      25.173   3.550  49.477  1.00  0.00    -0.065 C 
HETATM   16  C6  UNL     1      24.013   2.924  49.477  1.00  0.00     0.040 C 
BRANCH  15  17
HETATM   17  C4  UNL     1      26.477   4.108  49.152  1.00  0.00    -0.006 C 
BRANCH  17  18
HETATM   18  C3  UNL     1      27.644   4.690  48.829  1.00  0.00     0.091 A 
HETATM   19  C2  UNL     1      27.554   6.063  48.407  1.00  0.00     0.043 A 
HETATM   20  C1  UNL     1      28.405   6.901  48.001  1.00  0.00     0.025 C 
HETATM   21 BR1  UNL     1      29.454   5.702  48.158  1.00  0.00    -0.145 Br
ENDBRANCH  17  18
ENDBRANCH  15  17
ENDBRANCH  14  15
ENDBRANCH   1  14
BRANCH  10  22
HETATM   22  C14 UNL     1      21.959  -0.127  53.645  1.00  0.00    -0.035 A 
HETATM   23  C15 UNL     1      20.924   0.391  52.938  1.00  0.00     0.012 A 
HETATM   24  C16 UNL     1      19.628  -0.039  52.780  1.00  0.00     0.043 A 
HETATM   25  C17 UNL     1      19.416  -1.215  53.501  1.00  0.00     0.116 A 
HETATM   26  F1  UNL     1      18.194  -1.803  53.476  1.00  0.00    -0.206 F 
HETATM   27  C18 UNL     1      20.360  -1.873  54.270  1.00  0.00     0.043 A 
HETATM   28  C19 UNL     1      21.635  -1.307  54.328  1.00  0.00     0.012 A 
ENDBRANCH  10  22
TORSDOF 5
ENDMDL
MODEL 2
REMARK VINA RESULT:      -9.0      2.127      3.213
REMARK  5 active torsions:
REMARK  status: ('A' for Active; 'I' for Inactive)
REMARK    1  A    between atoms: C3_4  and  C4_5 
REMARK    2  A    between atoms: C4_5  and  C5_6 
REMARK    3  A    between atoms: C5_6  and  C7_8 
REMARK    4  A    between atoms: C7_8  and  N1_9 
REMARK    5  A    between atoms: C13_18  and  C14_19 
ROOT
HETATM    1  N1  UNL     1      26.095   2.173  51.151  1.00  0.00    -0.384 N 
HETATM    2  C8  UNL     1      27.130   1.655  51.932  1.00  0.00     0.113 C 
HETATM    3  C9  UNL     1      27.468   0.537  52.494  1.00  0.00     0.058 C 
HETATM    4  C10 UNL     1      26.949  -0.882  52.623  1.00  0.00     0.139 C 
HETATM    5  C11 UNL     1      25.924  -0.575  53.684  1.00  0.00     0.107 C 
HETATM    6  N2  UNL     1      26.454  -0.327  54.790  1.00  0.00    -0.229 NA
HETATM    7  C12 UNL     1      27.822   0.243  54.789  1.00  0.00     0.235 C 
HETATM    8  N3  UNL     1      28.462   0.485  53.572  1.00  0.00    -0.245 NA
HETATM    9  N4  UNL     1      24.530  -0.485  53.676  1.00  0.00    -0.369 N 
HETATM   10  C13 UNL     1      23.636   0.648  53.515  1.00  0.00     0.117 C 
HETATM   11  C20 UNL     1      23.921   1.380  52.167  1.00  0.00     0.050 C 
HETATM   12  C21 UNL     1      25.164   2.188  52.270  1.00  0.00     0.125 C 
HETATM   13  H13 UNL     1      24.439  -1.520  53.826  1.00  0.00     0.161 HD
ENDROOT
BRANCH   1  14
HETATM   14  C7  UNL     1      26.000   2.632  49.794  1.00  0.00     0.156 C 
BRANCH  14  15
HETATM   15  C5  UNL     1      25.291   3.882  49.563  1.00  0.00    -0.065 C 
HETATM   16  C6  UNL     1      26.424   4.541  49.712  1.00  0.00     0.040 C 
BRANCH  15  17
HETATM   17  C4  UNL     1      23.909   3.478  49.362  1.00  0.00    -0.006 C 
BRANCH  17  18
HETATM   18  C3  UNL     1      22.616   3.180  49.149  1.00  0.00     0.091 A 
HETATM   19  C2  UNL     1      22.308   1.776  49.084  1.00  0.00     0.043 A 
HETATM   20  C1  UNL     1      21.245   1.133  48.866  1.00  0.00     0.025 C 
HETATM   21 BR1  UNL     1      20.575   2.575  48.681  1.00  0.00    -0.145 Br
ENDBRANCH  17  18
ENDBRANCH  15  17
ENDBRANCH  14  15
ENDBRANCH   1  14
BRANCH  10  22
HETATM   22  C14 UNL     1      22.230   0.185  53.439  1.00  0.00    -0.035 A 
HETATM   23  C15 UNL     1      21.250   0.737  52.681  1.00  0.00     0.012 A 
HETATM   24  C16 UNL     1      19.927   0.401  52.525  1.00  0.00     0.043 A 
HETATM   25  C17 UNL     1      19.612  -0.707  53.314  1.00  0.00     0.116 A 
HETATM   26  F1  UNL     1      18.347  -1.198  53.301  1.00  0.00    -0.206 F 
HETATM   27  C18 UNL     1      20.489  -1.386  54.141  1.00  0.00     0.043 A 
HETATM   28  C19 UNL     1      21.804  -0.919  54.188  1.00  0.00     0.012 A 
ENDBRANCH  10  22
TORSDOF 5
ENDMDL
MODEL 3
REMARK VINA RESULT:      -8.8      3.419      6.602
REMARK  5 active torsions:
REMARK  status: ('A' for Active; 'I' for Inactive)
REMARK    1  A    between atoms: C3_4  and  C4_5 
REMARK    2  A    between atoms: C4_5  and  C5_6 
REMARK    3  A    between atoms: C5_6  and  C7_8 
REMARK    4  A    between atoms: C7_8  and  N1_9 
REMARK    5  A    between atoms: C13_18  and  C14_19 
ROOT
HETATM    1  N1  UNL     1      24.174   0.442  53.139  1.00  0.00    -0.384 N 
HETATM    2  C8  UNL     1      25.332   0.011  53.790  1.00  0.00     0.113 C 
HETATM    3  C9  UNL     1      26.414   0.513  54.299  1.00  0.00     0.058 C 
HETATM    4  C10 UNL     1      27.058   1.870  54.508  1.00  0.00     0.139 C 
HETATM    5  C11 UNL     1      27.567   2.017  53.097  1.00  0.00     0.107 C 
HETATM    6  N2  UNL     1      28.522   1.243  52.860  1.00  0.00    -0.229 NA
HETATM    7  C12 UNL     1      28.588  -0.026  53.623  1.00  0.00     0.235 C 
HETATM    8  N3  UNL     1      27.596  -0.313  54.563  1.00  0.00    -0.245 NA
HETATM    9  N4  UNL     1      27.178   2.807  52.012  1.00  0.00    -0.369 N 
HETATM   10  C13 UNL     1      26.295   2.540  50.890  1.00  0.00     0.117 C 
HETATM   11  C20 UNL     1      24.877   2.133  51.398  1.00  0.00     0.050 C 
HETATM   12  C21 UNL     1      24.892   0.737  51.907  1.00  0.00     0.125 C 
HETATM   13  H13 UNL     1      27.766   3.606  52.354  1.00  0.00     0.161 HD
ENDROOT
BRANCH   1  14
HETATM   14  C7  UNL     1      22.783   0.475  53.492  1.00  0.00     0.156 C 
BRANCH  14  15
HETATM   15  C5  UNL     1      21.891  -0.421  52.769  1.00  0.00    -0.065 C 
HETATM   16  C6  UNL     1      21.936  -1.266  53.781  1.00  0.00     0.040 C 
BRANCH  15  17
HETATM   17  C4  UNL     1      21.642   0.262  51.510  1.00  0.00    -0.006 C 
BRANCH  17  18
HETATM   18  C3  UNL     1      21.456   0.837  50.310  1.00  0.00     0.091 A 
HETATM   19  C2  UNL     1      21.530   2.275  50.294  1.00  0.00     0.043 A 
HETATM   20  C1  UNL     1      21.375   3.139  49.389  1.00  0.00     0.025 C 
HETATM   21 BR1  UNL     1      21.046   1.889  48.445  1.00  0.00    -0.145 Br
ENDBRANCH  17  18
ENDBRANCH  15  17
ENDBRANCH  14  15
ENDBRANCH   1  14
BRANCH  10  22
HETATM   22  C14 UNL     1      26.103   3.769  50.086  1.00  0.00    -0.035 A 
HETATM   23  C15 UNL     1      24.952   4.477  49.975  1.00  0.00     0.012 A 
HETATM   24  C16 UNL     1      24.653   5.619  49.271  1.00  0.00     0.043 A 
HETATM   25  C17 UNL     1      25.777   6.068  48.577  1.00  0.00     0.116 A 
HETATM   26  F1  UNL     1      25.689   7.189  47.817  1.00  0.00    -0.206 F 
HETATM   27  C18 UNL     1      27.023   5.468  48.581  1.00  0.00     0.043 A 
HETATM   28  C19 UNL     1      27.165   4.310  49.349  1.00  0.00     0.012 A 
ENDBRANCH  10  22
TORSDOF 5
ENDMDL
MODEL 4
REMARK VINA RESULT:      -8.6      3.854      7.584
REMARK  5 active torsions:
REMARK  status: ('A' for Active; 'I' for Inactive)
REMARK    1  A    between atoms: C3_4  and  C4_5 
REMARK    2  A    between atoms: C4_5  and  C5_6 
REMARK    3  A    between atoms: C5_6  and  C7_8 
REMARK    4  A    between atoms: C7_8  and  N1_9 
REMARK    5  A    between atoms: C13_18  and  C14_19 
ROOT
HETATM    1  N1  UNL     1      21.593   0.638  52.591  1.00  0.00    -0.384 N 
HETATM    2  C8  UNL     1      20.325   1.151  52.313  1.00  0.00     0.113 C 
HETATM    3  C9  UNL     1      19.673   1.666  51.317  1.00  0.00     0.058 C 
HETATM    4  C10 UNL     1      19.895   2.002  49.855  1.00  0.00     0.139 C 
HETATM    5  C11 UNL     1      20.665   3.273  50.104  1.00  0.00     0.107 C 
HETATM    6  N2  UNL     1      19.928   4.190  50.534  1.00  0.00    -0.229 NA
HETATM    7  C12 UNL     1      18.720   3.804  51.301  1.00  0.00     0.235 C 
HETATM    8  N3  UNL     1      18.451   2.452  51.519  1.00  0.00    -0.245 NA
HETATM    9  N4  UNL     1      22.012   3.622  49.982  1.00  0.00    -0.369 N 
HETATM   10  C13 UNL     1      23.097   3.636  50.947  1.00  0.00     0.117 C 
HETATM   11  C20 UNL     1      23.282   2.223  51.581  1.00  0.00     0.050 C 
HETATM   12  C21 UNL     1      22.208   1.957  52.573  1.00  0.00     0.125 C 
HETATM   13  H13 UNL     1      21.886   3.846  48.964  1.00  0.00     0.161 HD
ENDROOT
BRANCH   1  14
HETATM   14  C7  UNL     1      22.095  -0.671  52.899  1.00  0.00     0.156 C 
BRANCH  14  15
HETATM   15  C5  UNL     1      22.690  -0.863  54.214  1.00  0.00    -0.065 C 
HETATM   16  C6  UNL     1      21.502  -1.175  54.695  1.00  0.00     0.040 C 
BRANCH  15  17
HETATM   17  C4  UNL     1      24.100  -0.564  54.017  1.00  0.00    -0.006 C 
BRANCH  17  18
HETATM   18  C3  UNL     1      25.419  -0.349  53.885  1.00  0.00     0.091 A 
HETATM   19  C2  UNL     1      25.872  -0.090  52.544  1.00  0.00     0.043 A 
HETATM   20  C1  UNL     1      27.011   0.112  52.039  1.00  0.00     0.025 C 
HETATM   21 BR1  UNL     1      27.556  -0.112  53.527  1.00  0.00    -0.145 Br
ENDBRANCH  17  18
ENDBRANCH  15  17
ENDBRANCH  14  15
ENDBRANCH   1  14
BRANCH  10  22
HETATM   22  C14 UNL     1      24.379   3.951  50.273  1.00  0.00    -0.035 A 
HETATM   23  C15 UNL     1      24.680   5.111  49.638  1.00  0.00     0.012 A 
HETATM   24  C16 UNL     1      25.819   5.518  48.985  1.00  0.00     0.043 A 
HETATM   25  C17 UNL     1      26.786   4.512  49.024  1.00  0.00     0.116 A 
HETATM   26  F1  UNL     1      27.989   4.719  48.433  1.00  0.00    -0.206 F 
HETATM   27  C18 UNL     1      26.642   3.276  49.628  1.00  0.00     0.043 A 
HETATM   28  C19 UNL     1      25.420   3.014  50.251  1.00  0.00     0.012 A 
ENDBRANCH  10  22
TORSDOF 5
ENDMDL
MODEL 5
REMARK VINA RESULT:      -8.5      3.085      5.309
REMARK  5 active torsions:
REMARK  status: ('A' for Active; 'I' for Inactive)
REMARK    1  A    between atoms: C3_4  and  C4_5 
REMARK    2  A    between atoms: C4_5  and  C5_6 
REMARK    3  A    between atoms: C5_6  and  C7_8 
REMARK    4  A    between atoms: C7_8  and  N1_9 
REMARK    5  A    between atoms: C13_18  and  C14_19 
ROOT
HETATM    1  N1  UNL     1      23.799   3.512  49.370  1.00  0.00    -0.384 N 
HETATM    2  C8  UNL     1      22.784   4.470  49.326  1.00  0.00     0.113 C 
HETATM    3  C9  UNL     1      22.034   5.141  50.144  1.00  0.00     0.058 C 
HETATM    4  C10 UNL     1      21.826   5.299  51.637  1.00  0.00     0.139 C 
HETATM    5  C11 UNL     1      21.017   4.039  51.814  1.00  0.00     0.107 C 
HETATM    6  N2  UNL     1      19.872   4.145  51.319  1.00  0.00    -0.229 NA
HETATM    7  C12 UNL     1      19.695   5.075  50.178  1.00  0.00     0.235 C 
HETATM    8  N3  UNL     1      20.795   5.788  49.699  1.00  0.00    -0.245 NA
HETATM    9  N4  UNL     1      21.290   2.793  52.382  1.00  0.00    -0.369 N 
HETATM   10  C13 UNL     1      21.752   1.546  51.798  1.00  0.00     0.117 C 
HETATM   11  C20 UNL     1      23.106   1.761  51.054  1.00  0.00     0.050 C 
HETATM   12  C21 UNL     1      22.879   2.453  49.758  1.00  0.00     0.125 C 
HETATM   13  H13 UNL     1      21.031   3.145  53.336  1.00  0.00     0.161 HD
ENDROOT
BRANCH   1  14
HETATM   14  C7  UNL     1      25.197   3.523  49.043  1.00  0.00     0.156 C 
BRANCH  14  15
HETATM   15  C5  UNL     1      26.115   4.014  50.061  1.00  0.00    -0.065 C 
HETATM   16  C6  UNL     1      26.071   5.211  49.509  1.00  0.00     0.040 C 
BRANCH  15  17
HETATM   17  C4  UNL     1      26.391   2.848  50.886  1.00  0.00    -0.006 C 
BRANCH  17  18
HETATM   18  C3  UNL     1      26.657   1.729  51.580  1.00  0.00     0.091 A 
HETATM   19  C2  UNL     1      26.709   1.886  53.010  1.00  0.00     0.043 A 
HETATM   20  C1  UNL     1      26.964   1.094  53.958  1.00  0.00     0.025 C 
HETATM   21 BR1  UNL     1      27.206   0.011  52.805  1.00  0.00    -0.145 Br
ENDBRANCH  17  18
ENDBRANCH  15  17
ENDBRANCH  14  15
ENDBRANCH   1  14
BRANCH  10  22
HETATM   22  C14 UNL     1      22.025   0.552  52.863  1.00  0.00    -0.035 A 
HETATM   23  C15 UNL     1      21.094  -0.135  53.569  1.00  0.00     0.012 A 
HETATM   24  C16 UNL     1      21.221  -1.072  54.567  1.00  0.00     0.043 A 
HETATM   25  C17 UNL     1      22.568  -1.304  54.846  1.00  0.00     0.116 A 
HETATM   26  F1  UNL     1      22.907  -2.200  55.805  1.00  0.00    -0.206 F 
HETATM   27  C18 UNL     1      23.640  -0.691  54.221  1.00  0.00     0.043 A 
HETATM   28  C19 UNL     1      23.343   0.241  53.224  1.00  0.00     0.012 A 
ENDBRANCH  10  22
TORSDOF 5
ENDMDL
MODEL 6
REMARK VINA RESULT:      -8.5      3.966      7.160
REMARK  5 active torsions:
REMARK  status: ('A' for Active; 'I' for Inactive)
REMARK    1  A    between atoms: C3_4  and  C4_5 
REMARK    2  A    between atoms: C4_5  and  C5_6 
REMARK    3  A    between atoms: C5_6  and  C7_8 
REMARK    4  A    between atoms: C7_8  and  N1_9 
REMARK    5  A    between atoms: C13_18  and  C14_19 
ROOT
HETATM    1  N1  UNL     1      21.804   3.182  50.755  1.00  0.00    -0.384 N 
HETATM    2  C8  UNL     1      22.070   4.447  50.228  1.00  0.00     0.113 C 
HETATM    3  C9  UNL     1      22.981   5.042  49.521  1.00  0.00     0.058 C 
HETATM    4  C10 UNL     1      24.289   4.712  48.830  1.00  0.00     0.139 C 
HETATM    5  C11 UNL     1      25.134   4.744  50.077  1.00  0.00     0.107 C 
HETATM    6  N2  UNL     1      25.286   5.909  50.511  1.00  0.00    -0.229 NA
HETATM    7  C12 UNL     1      24.221   6.898  50.221  1.00  0.00     0.235 C 
HETATM    8  N3  UNL     1      23.100   6.503  49.490  1.00  0.00    -0.245 NA
HETATM    9  N4  UNL     1      25.747   3.754  50.849  1.00  0.00    -0.369 N 
HETATM   10  C13 UNL     1      25.309   3.049  52.041  1.00  0.00     0.117 C 
HETATM   11  C20 UNL     1      23.951   2.328  51.779  1.00  0.00     0.050 C 
HETATM   12  C21 UNL     1      22.836   3.311  51.773  1.00  0.00     0.125 C 
HETATM   13  H13 UNL     1      26.591   3.757  50.225  1.00  0.00     0.161 HD
ENDROOT
BRANCH   1  14
HETATM   14  C7  UNL     1      20.815   2.176  50.487  1.00  0.00     0.156 C 
BRANCH  14  15
HETATM   15  C5  UNL     1      21.295   0.841  50.161  1.00  0.00    -0.065 C 
HETATM   16  C6  UNL     1      21.351   1.182  48.889  1.00  0.00     0.040 C 
BRANCH  15  17
HETATM   17  C4  UNL     1      21.338   0.153  51.442  1.00  0.00    -0.006 C 
BRANCH  17  18
HETATM   18  C3  UNL     1      21.321  -0.432  52.651  1.00  0.00     0.091 A 
HETATM   19  C2  UNL     1      22.590  -0.497  53.326  1.00  0.00     0.043 A 
HETATM   20  C1  UNL     1      22.962  -0.993  54.424  1.00  0.00     0.025 C 
HETATM   21 BR1  UNL     1      21.441  -1.472  54.563  1.00  0.00    -0.145 Br
ENDBRANCH  17  18
ENDBRANCH  15  17
ENDBRANCH  14  15
ENDBRANCH   1  14
BRANCH  10  22
HETATM   22  C14 UNL     1      26.276   1.982  52.390  1.00  0.00    -0.035 A 
HETATM   23  C15 UNL     1      27.483   2.163  52.980  1.00  0.00     0.012 A 
HETATM   24  C16 UNL     1      28.456   1.266  53.351  1.00  0.00     0.043 A 
HETATM   25  C17 UNL     1      28.061  -0.035  53.034  1.00  0.00     0.116 A 
HETATM   26  F1  UNL     1      28.887  -1.072  53.321  1.00  0.00    -0.206 F 
HETATM   27  C18 UNL     1      26.868  -0.394  52.432  1.00  0.00     0.043 A 
HETATM   28  C19 UNL     1      25.983   0.639  52.116  1.00  0.00     0.012 A 
ENDBRANCH  10  22
TORSDOF 5
ENDMDL
MODEL 7
REMARK VINA RESULT:      -8.4      3.796      6.965
REMARK  5 active torsions:
REMARK  status: ('A' for Active; 'I' for Inactive)
REMARK    1  A    between atoms: C3_4  and  C4_5 
REMARK    2  A    between atoms: C4_5  and  C5_6 
REMARK    3  A    between atoms: C5_6  and  C7_8 
REMARK    4  A    between atoms: C7_8  and  N1_9 
REMARK    5  A    between atoms: C13_18  and  C14_19 
ROOT
HETATM    1  N1  UNL     1      22.839   2.047  51.108  1.00  0.00    -0.384 N 
HETATM    2  C8  UNL     1      23.527   1.186  51.965  1.00  0.00     0.113 C 
HETATM    3  C9  UNL     1      24.511   1.223  52.808  1.00  0.00     0.058 C 
HETATM    4  C10 UNL     1      25.491   2.229  53.379  1.00  0.00     0.139 C 
HETATM    5  C11 UNL     1      26.415   2.238  52.188  1.00  0.00     0.107 C 
HETATM    6  N2  UNL     1      27.068   1.174  52.095  1.00  0.00    -0.229 NA
HETATM    7  C12 UNL     1      26.461  -0.060  52.648  1.00  0.00     0.235 C 
HETATM    8  N3  UNL     1      25.200   0.004  53.242  1.00  0.00    -0.245 NA
HETATM    9  N4  UNL     1      26.665   3.163  51.172  1.00  0.00    -0.369 N 
HETATM   10  C13 UNL     1      26.120   3.296  49.832  1.00  0.00     0.117 C 
HETATM   11  C20 UNL     1      24.567   3.427  49.885  1.00  0.00     0.050 C 
HETATM   12  C21 UNL     1      23.946   2.106  50.164  1.00  0.00     0.125 C 
HETATM   13  H13 UNL     1      27.362   3.669  51.772  1.00  0.00     0.161 HD
ENDROOT
BRANCH   1  14
HETATM   14  C7  UNL     1      21.507   2.583  51.087  1.00  0.00     0.156 C 
BRANCH  14  15
HETATM   15  C5  UNL     1      21.134   3.481  52.171  1.00  0.00    -0.065 C 
HETATM   16  C6  UNL     1      20.410   2.517  52.707  1.00  0.00     0.040 C 
BRANCH  15  17
HETATM   17  C4  UNL     1      21.808   4.729  51.850  1.00  0.00    -0.006 C 
BRANCH  17  18
HETATM   18  C3  UNL     1      22.390   5.883  51.483  1.00  0.00     0.091 A 
HETATM   19  C2  UNL     1      21.629   6.698  50.573  1.00  0.00     0.043 A 
HETATM   20  C1  UNL     1      21.860   7.795  49.995  1.00  0.00     0.025 C 
HETATM   21 BR1  UNL     1      23.286   7.717  50.718  1.00  0.00    -0.145 Br
ENDBRANCH  17  18
ENDBRANCH  15  17
ENDBRANCH  14  15
ENDBRANCH   1  14
BRANCH  10  22
HETATM   22  C14 UNL     1      26.614   4.543  49.200  1.00  0.00    -0.035 A 
HETATM   23  C15 UNL     1      27.866   4.753  48.725  1.00  0.00     0.012 A 
HETATM   24  C16 UNL     1      28.436   5.850  48.124  1.00  0.00     0.043 A 
HETATM   25  C17 UNL     1      27.505   6.884  48.020  1.00  0.00     0.116 A 
HETATM   26  F1  UNL     1      27.873   8.059  47.452  1.00  0.00    -0.206 F 
HETATM   27  C18 UNL     1      26.191   6.835  48.451  1.00  0.00     0.043 A 
HETATM   28  C19 UNL     1      25.763   5.645  49.043  1.00  0.00     0.012 A 
ENDBRANCH  10  22
TORSDOF 5
ENDMDL
MODEL 8
REMARK VINA RESULT:      -8.3      4.140      7.910
REMARK  5 active torsions:
REMARK  status: ('A' for Active; 'I' for Inactive)
REMARK    1  A    between atoms: C3_4  and  C4_5 
REMARK    2  A    between atoms: C4_5  and  C5_6 
REMARK    3  A    between atoms: C5_6  and  C7_8 
REMARK    4  A    between atoms: C7_8  and  N1_9 
REMARK    5  A    between atoms: C13_18  and  C14_19 
ROOT
HETATM    1  N1  UNL     1      22.952   2.738  51.924  1.00  0.00    -0.384 N 
HETATM    2  C8  UNL     1      23.650   1.698  52.541  1.00  0.00     0.113 C 
HETATM    3  C9  UNL     1      24.800   1.487  53.101  1.00  0.00     0.058 C 
HETATM    4  C10 UNL     1      26.067   2.251  53.436  1.00  0.00     0.139 C 
HETATM    5  C11 UNL     1      26.651   2.198  52.048  1.00  0.00     0.107 C 
HETATM    6  N2  UNL     1      27.042   1.047  51.748  1.00  0.00    -0.229 NA
HETATM    7  C12 UNL     1      26.364  -0.103  52.393  1.00  0.00     0.235 C 
HETATM    8  N3  UNL     1      25.326   0.132  53.296  1.00  0.00    -0.245 NA
HETATM    9  N4  UNL     1      26.816   3.147  51.038  1.00  0.00    -0.369 N 
HETATM   10  C13 UNL     1      25.994   3.489  49.890  1.00  0.00     0.117 C 
HETATM   11  C20 UNL     1      24.558   3.889  50.349  1.00  0.00     0.050 C 
HETATM   12  C21 UNL     1      23.781   2.681  50.729  1.00  0.00     0.125 C 
HETATM   13  H13 UNL     1      27.725   3.467  51.454  1.00  0.00     0.161 HD
ENDROOT
BRANCH   1  14
HETATM   14  C7  UNL     1      21.786   3.502  52.270  1.00  0.00     0.156 C 
BRANCH  14  15
HETATM   15  C5  UNL     1      20.495   2.962  51.869  1.00  0.00    -0.065 C 
HETATM   16  C6  UNL     1      20.271   4.051  51.158  1.00  0.00     0.040 C 
BRANCH  15  17
HETATM   17  C4  UNL     1      20.419   1.675  52.543  1.00  0.00    -0.006 C 
BRANCH  17  18
HETATM   18  C3  UNL     1      20.314   0.457  53.099  1.00  0.00     0.091 A 
HETATM   19  C2  UNL     1      21.253   0.175  54.153  1.00  0.00     0.043 A 
HETATM   20  C1  UNL     1      21.478  -0.844  54.861  1.00  0.00     0.025 C 
HETATM   21 BR1  UNL     1      20.325  -1.533  53.990  1.00  0.00    -0.145 Br
ENDBRANCH  17  18
ENDBRANCH  15  17
ENDBRANCH  14  15
ENDBRANCH   1  14
BRANCH  10  22
HETATM   22  C14 UNL     1      26.547   4.678  49.199  1.00  0.00    -0.035 A 
HETATM   23  C15 UNL     1      27.819   4.818  48.751  1.00  0.00     0.012 A 
HETATM   24  C16 UNL     1      28.443   5.857  48.102  1.00  0.00     0.043 A 
HETATM   25  C17 UNL     1      27.551   6.912  47.907  1.00  0.00     0.116 A 
HETATM   26  F1  UNL     1      27.975   8.038  47.281  1.00  0.00    -0.206 F 
HETATM   27  C18 UNL     1      26.225   6.933  48.301  1.00  0.00     0.043 A 
HETATM   28  C19 UNL     1      25.740   5.796  48.950  1.00  0.00     0.012 A 
ENDBRANCH  10  22
TORSDOF 5
ENDMDL
MODEL 9
REMARK VINA RESULT:      -8.0      6.303      9.372
REMARK  5 active torsions:
REMARK  status: ('A' for Active; 'I' for Inactive)
REMARK    1  A    between atoms: C3_4  and  C4_5 
REMARK    2  A    between atoms: C4_5  and  C5_6 
REMARK    3  A    between atoms: C5_6  and  C7_8 
REMARK    4  A    between atoms: C7_8  and  N1_9 
REMARK    5  A    between atoms: C13_18  and  C14_19 
ROOT
HETATM    1  N1  UNL     1      32.371   5.350  47.622  1.00  0.00    -0.384 N 
HETATM    2  C8  UNL     1      32.755   6.690  47.700  1.00  0.00     0.113 C 
HETATM    3  C9  UNL     1      32.529   7.733  48.437  1.00  0.00     0.058 C 
HETATM    4  C10 UNL     1      31.726   8.113  49.665  1.00  0.00     0.139 C 
HETATM    5  C11 UNL     1      30.404   8.241  48.952  1.00  0.00     0.107 C 
HETATM    6  N2  UNL     1      30.364   9.254  48.217  1.00  0.00    -0.229 NA
HETATM    7  C12 UNL     1      31.644   9.756  47.661  1.00  0.00     0.235 C 
HETATM    8  N3  UNL     1      32.831   9.089  47.967  1.00  0.00    -0.245 NA
HETATM    9  N4  UNL     1      29.248   7.458  48.922  1.00  0.00    -0.369 N 
HETATM   10  C13 UNL     1      28.811   6.414  48.011  1.00  0.00     0.117 C 
HETATM   11  C20 UNL     1      29.866   5.268  47.950  1.00  0.00     0.050 C 
HETATM   12  C21 UNL     1      31.039   5.687  47.139  1.00  0.00     0.125 C 
HETATM   13  H13 UNL     1      28.878   7.931  49.783  1.00  0.00     0.161 HD
ENDROOT
BRANCH   1  14
HETATM   14  C7  UNL     1      33.052   4.102  47.821  1.00  0.00     0.156 C 
BRANCH  14  15
HETATM   15  C5  UNL     1      33.134   3.200  46.681  1.00  0.00    -0.065 C 
HETATM   16  C6  UNL     1      32.656   2.225  47.431  1.00  0.00     0.040 C 
BRANCH  15  17
HETATM   17  C4  UNL     1      33.677   4.022  45.611  1.00  0.00    -0.006 C 
BRANCH  17  18
HETATM   18  C3  UNL     1      34.134   4.738  44.571  1.00  0.00     0.091 A 
HETATM   19  C2  UNL     1      33.128   5.417  43.797  1.00  0.00     0.043 A 
HETATM   20  C1  UNL     1      33.171   6.129  42.757  1.00  0.00     0.025 C 
HETATM   21 BR1  UNL     1      34.742   5.828  42.783  1.00  0.00    -0.145 Br
ENDBRANCH  17  18
ENDBRANCH  15  17
ENDBRANCH  14  15
ENDBRANCH   1  14
BRANCH  10  22
HETATM   22  C14 UNL     1      27.561   5.792  48.508  1.00  0.00    -0.035 A 
HETATM   23  C15 UNL     1      26.360   6.409  48.634  1.00  0.00     0.012 A 
HETATM   24  C16 UNL     1      25.143   5.945  49.074  1.00  0.00     0.043 A 
HETATM   25  C17 UNL     1      25.239   4.600  49.434  1.00  0.00     0.116 A 
HETATM   26  F1  UNL     1      24.141   3.952  49.896  1.00  0.00    -0.206 F 
HETATM   27  C18 UNL     1      26.383   3.824  49.367  1.00  0.00     0.043 A 
HETATM   28  C19 UNL     1      27.542   4.446  48.896  1.00  0.00     0.012 A 
ENDBRANCH  10  22
TORSDOF 5
ENDMDL
