MODEL 1
REMARK VINA RESULT:      -8.9      0.000      0.000
REMARK  5 active torsions:
REMARK  status: ('A' for Active; 'I' for Inactive)
REMARK    1  A    between atoms: O1_2  and  C2_3 
REMARK    2  A    between atoms: C4_5  and  N1_6 
REMARK    3  A    between atoms: N1_6  and  C5_7 
REMARK    4  A    between atoms: C8_11  and  N3_12 
REMARK    5  A    between atoms: N3_12  and  C9_13 
ROOT
HETATM    1  C5  UNL     1      27.358   2.107  52.572  1.00  0.00     0.728 A 
HETATM    2  N2  UNL     1      28.643   2.285  52.951  1.00  0.00    -0.075 NA
HETATM    3  C6  UNL     1      29.212   1.546  53.919  1.00  0.00     0.140 A 
HETATM    4  C7  UNL     1      28.381   0.599  54.486  1.00  0.00     0.071 A 
HETATM    5  C8  UNL     1      27.073   0.376  54.141  1.00  0.00     0.148 A 
HETATM    6  N5  UNL     1      26.605   1.167  53.167  1.00  0.00    -0.045 NA
ENDROOT
BRANCH   5   7
HETATM    7  N3  UNL     1      26.200  -0.577  54.708  1.00  0.00    -0.339 N 
HETATM    8  H8  UNL     1      26.613  -1.343  55.296  1.00  0.00     0.167 HD
BRANCH   7   9
HETATM    9  C9  UNL     1      24.805  -0.736  54.652  1.00  0.00     0.052 A 
HETATM   10  C10 UNL     1      24.027  -1.428  55.555  1.00  0.00     0.146 A 
HETATM   11  N4  UNL     1      22.709  -1.614  55.504  1.00  0.00    -0.258 NA
HETATM   12  C11 UNL     1      22.000  -1.095  54.485  1.00  0.00     0.066 A 
HETATM   13  C12 UNL     1      20.633  -1.291  54.426  1.00  0.00     0.032 A 
HETATM   14  C16 UNL     1      22.680  -0.382  53.524  1.00  0.00    -0.005 A 
HETATM   15  C13 UNL     1      19.889  -0.765  53.379  1.00  0.00     0.002 A 
HETATM   16  C14 UNL     1      20.552  -0.045  52.402  1.00  0.00     0.001 A 
HETATM   17  C15 UNL     1      21.924   0.130  52.494  1.00  0.00     0.014 A 
HETATM   18  C17 UNL     1      24.033  -0.212  53.610  1.00  0.00     0.044 A 
ENDBRANCH   7   9
ENDBRANCH   5   7
BRANCH   1  19
HETATM   19  N1  UNL     1      26.945   2.968  51.545  1.00  0.00    -0.188 N 
HETATM   20  H5  UNL     1      27.898   3.266  51.215  1.00  0.00     0.184 HD
BRANCH  19  21
HETATM   21  C4  UNL     1      25.845   3.521  50.865  1.00  0.00     0.050 C 
HETATM   22  C3  UNL     1      24.461   3.221  51.167  1.00  0.00     0.064 C 
HETATM   23  C2  UNL     1      23.378   3.840  50.710  1.00  0.00     0.071 C 
HETATM   24  C20 UNL     1      23.370   5.000  49.768  1.00  0.00     0.232 C 
HETATM   25  O2  UNL     1      24.231   4.696  48.734  1.00  0.00    -0.381 OA
HETATM   26  C19 UNL     1      25.508   5.182  48.939  1.00  0.00     0.197 C 
HETATM   27  C18 UNL     1      26.273   4.356  49.916  1.00  0.00     0.029 C 
BRANCH  23  28
HETATM   28  O1  UNL     1      22.193   3.341  51.165  1.00  0.00    -0.358 OA
HETATM   29  C1  UNL     1      20.951   3.378  50.522  1.00  0.00     0.209 C 
ENDBRANCH  23  28
ENDBRANCH  19  21
ENDBRANCH   1  19
TORSDOF 5
ENDMDL
MODEL 2
REMARK VINA RESULT:      -8.8      2.947      5.885
REMARK  5 active torsions:
REMARK  status: ('A' for Active; 'I' for Inactive)
REMARK    1  A    between atoms: O1_2  and  C2_3 
REMARK    2  A    between atoms: C4_5  and  N1_6 
REMARK    3  A    between atoms: N1_6  and  C5_7 
REMARK    4  A    between atoms: C8_11  and  N3_12 
REMARK    5  A    between atoms: N3_12  and  C9_13 
ROOT
HETATM    1  C5  UNL     1      23.711   3.475  49.734  1.00  0.00     0.728 A 
HETATM    2  N2  UNL     1      22.675   2.915  49.072  1.00  0.00    -0.075 NA
HETATM    3  C6  UNL     1      22.026   1.835  49.542  1.00  0.00     0.140 A 
HETATM    4  C7  UNL     1      22.502   1.353  50.745  1.00  0.00     0.071 A 
HETATM    5  C8  UNL     1      23.548   1.881  51.458  1.00  0.00     0.148 A 
HETATM    6  N5  UNL     1      24.124   2.954  50.902  1.00  0.00    -0.045 NA
ENDROOT
BRANCH   5   7
HETATM    7  N3  UNL     1      24.060   1.405  52.683  1.00  0.00    -0.339 N 
HETATM    8  H8  UNL     1      23.394   1.269  53.484  1.00  0.00     0.167 HD
BRANCH   7   9
HETATM    9  C9  UNL     1      25.356   1.051  53.096  1.00  0.00     0.052 A 
HETATM   10  C10 UNL     1      26.218   1.832  53.835  1.00  0.00     0.146 A 
HETATM   11  N4  UNL     1      27.459   1.526  54.211  1.00  0.00    -0.258 NA
HETATM   12  C11 UNL     1      27.989   0.339  53.864  1.00  0.00     0.066 A 
HETATM   13  C12 UNL     1      29.278   0.021  54.248  1.00  0.00     0.032 A 
HETATM   14  C16 UNL     1      27.211  -0.522  53.123  1.00  0.00    -0.005 A 
HETATM   15  C13 UNL     1      29.839  -1.198  53.893  1.00  0.00     0.002 A 
HETATM   16  C14 UNL     1      29.076  -2.078  53.148  1.00  0.00     0.001 A 
HETATM   17  C15 UNL     1      27.787  -1.725  52.781  1.00  0.00     0.014 A 
HETATM   18  C17 UNL     1      25.942  -0.173  52.756  1.00  0.00     0.044 A 
ENDBRANCH   7   9
ENDBRANCH   5   7
BRANCH   1  19
HETATM   19  N1  UNL     1      24.256   4.596  49.092  1.00  0.00    -0.188 N 
HETATM   20  H5  UNL     1      23.439   4.814  48.466  1.00  0.00     0.184 HD
BRANCH  19  21
HETATM   21  C4  UNL     1      25.372   5.446  48.985  1.00  0.00     0.050 C 
HETATM   22  C3  UNL     1      26.735   4.990  48.818  1.00  0.00     0.064 C 
HETATM   23  C2  UNL     1      27.804   5.719  48.518  1.00  0.00     0.071 C 
HETATM   24  C20 UNL     1      27.815   7.195  48.288  1.00  0.00     0.232 C 
HETATM   25  O2  UNL     1      27.100   7.776  49.314  1.00  0.00    -0.381 OA
HETATM   26  C19 UNL     1      25.771   7.980  48.995  1.00  0.00     0.197 C 
HETATM   27  C18 UNL     1      24.978   6.719  49.059  1.00  0.00     0.029 C 
BRANCH  23  28
HETATM   28  O1  UNL     1      28.971   5.020  48.421  1.00  0.00    -0.358 OA
HETATM   29  C1  UNL     1      30.220   5.500  48.011  1.00  0.00     0.209 C 
ENDBRANCH  23  28
ENDBRANCH  19  21
ENDBRANCH   1  19
TORSDOF 5
ENDMDL
MODEL 3
REMARK VINA RESULT:      -8.7      4.750      9.576
REMARK  5 active torsions:
REMARK  status: ('A' for Active; 'I' for Inactive)
REMARK    1  A    between atoms: O1_2  and  C2_3 
REMARK    2  A    between atoms: C4_5  and  N1_6 
REMARK    3  A    between atoms: N1_6  and  C5_7 
REMARK    4  A    between atoms: C8_11  and  N3_12 
REMARK    5  A    between atoms: N3_12  and  C9_13 
ROOT
HETATM    1  C5  UNL     1      26.597   3.898  49.826  1.00  0.00     0.728 A 
HETATM    2  N2  UNL     1      25.504   4.671  50.002  1.00  0.00    -0.075 NA
HETATM    3  C6  UNL     1      25.408   5.904  49.474  1.00  0.00     0.140 A 
HETATM    4  C7  UNL     1      26.509   6.308  48.746  1.00  0.00     0.071 A 
HETATM    5  C8  UNL     1      27.643   5.566  48.536  1.00  0.00     0.148 A 
HETATM    6  N5  UNL     1      27.636   4.353  49.105  1.00  0.00    -0.045 NA
ENDROOT
BRANCH   5   7
HETATM    7  N3  UNL     1      28.785   5.955  47.805  1.00  0.00    -0.339 N 
HETATM    8  H8  UNL     1      28.647   6.394  46.860  1.00  0.00     0.167 HD
BRANCH   7   9
HETATM    9  C9  UNL     1      30.161   5.878  48.082  1.00  0.00     0.052 A 
HETATM   10  C10 UNL     1      30.903   6.799  48.788  1.00  0.00     0.146 A 
HETATM   11  N4  UNL     1      32.212   6.758  49.035  1.00  0.00    -0.258 NA
HETATM   12  C11 UNL     1      32.947   5.730  48.575  1.00  0.00     0.066 A 
HETATM   13  C12 UNL     1      34.305   5.687  48.825  1.00  0.00     0.032 A 
HETATM   14  C16 UNL     1      32.303   4.749  47.855  1.00  0.00    -0.005 A 
HETATM   15  C13 UNL     1      35.077   4.635  48.352  1.00  0.00     0.002 A 
HETATM   16  C14 UNL     1      34.451   3.638  47.626  1.00  0.00     0.001 A 
HETATM   17  C15 UNL     1      33.087   3.715  47.394  1.00  0.00     0.014 A 
HETATM   18  C17 UNL     1      30.959   4.826  47.620  1.00  0.00     0.044 A 
ENDBRANCH   7   9
ENDBRANCH   5   7
BRANCH   1  19
HETATM   19  N1  UNL     1      26.511   2.642  50.446  1.00  0.00    -0.188 N 
HETATM   20  H5  UNL     1      26.365   2.064  49.579  1.00  0.00     0.184 HD
BRANCH  19  21
HETATM   21  C4  UNL     1      26.543   1.945  51.667  1.00  0.00     0.050 C 
HETATM   22  C3  UNL     1      25.567   0.954  52.070  1.00  0.00     0.064 C 
HETATM   23  C2  UNL     1      25.634   0.123  53.103  1.00  0.00     0.071 C 
HETATM   24  C20 UNL     1      26.758   0.041  54.084  1.00  0.00     0.232 C 
HETATM   25  O2  UNL     1      27.058   1.329  54.474  1.00  0.00    -0.381 OA
HETATM   26  C19 UNL     1      28.073   1.894  53.725  1.00  0.00     0.197 C 
HETATM   27  C18 UNL     1      27.602   2.333  52.381  1.00  0.00     0.029 C 
BRANCH  23  28
HETATM   28  O1  UNL     1      24.563  -0.709  53.244  1.00  0.00    -0.358 OA
HETATM   29  C1  UNL     1      23.213  -0.353  53.337  1.00  0.00     0.209 C 
ENDBRANCH  23  28
ENDBRANCH  19  21
ENDBRANCH   1  19
TORSDOF 5
ENDMDL
MODEL 4
REMARK VINA RESULT:      -8.5      3.303      6.060
REMARK  5 active torsions:
REMARK  status: ('A' for Active; 'I' for Inactive)
REMARK    1  A    between atoms: O1_2  and  C2_3 
REMARK    2  A    between atoms: C4_5  and  N1_6 
REMARK    3  A    between atoms: N1_6  and  C5_7 
REMARK    4  A    between atoms: C8_11  and  N3_12 
REMARK    5  A    between atoms: N3_12  and  C9_13 
ROOT
HETATM    1  C5  UNL     1      24.799   4.664  50.367  1.00  0.00     0.728 A 
HETATM    2  N2  UNL     1      23.788   5.544  50.536  1.00  0.00    -0.075 NA
HETATM    3  C6  UNL     1      22.919   5.446  51.557  1.00  0.00     0.140 A 
HETATM    4  C7  UNL     1      23.145   4.383  52.408  1.00  0.00     0.071 A 
HETATM    5  C8  UNL     1      24.153   3.461  52.284  1.00  0.00     0.148 A 
HETATM    6  N5  UNL     1      24.962   3.650  51.233  1.00  0.00    -0.045 NA
ENDROOT
BRANCH   5   7
HETATM    7  N3  UNL     1      24.402   2.362  53.132  1.00  0.00    -0.339 N 
HETATM    8  H8  UNL     1      23.768   2.214  53.957  1.00  0.00     0.167 HD
BRANCH   7   9
HETATM    9  C9  UNL     1      25.381   1.353  53.115  1.00  0.00     0.052 A 
HETATM   10  C10 UNL     1      25.164   0.010  52.900  1.00  0.00     0.146 A 
HETATM   11  N4  UNL     1      26.073  -0.964  52.909  1.00  0.00    -0.258 NA
HETATM   12  C11 UNL     1      27.364  -0.669  53.145  1.00  0.00     0.066 A 
HETATM   13  C12 UNL     1      28.310  -1.678  53.160  1.00  0.00     0.032 A 
HETATM   14  C16 UNL     1      27.694   0.648  53.371  1.00  0.00    -0.005 A 
HETATM   15  C13 UNL     1      29.645  -1.389  53.407  1.00  0.00     0.002 A 
HETATM   16  C14 UNL     1      29.999  -0.073  53.637  1.00  0.00     0.001 A 
HETATM   17  C15 UNL     1      29.023   0.912  53.615  1.00  0.00     0.014 A 
HETATM   18  C17 UNL     1      26.733   1.619  53.356  1.00  0.00     0.044 A 
ENDBRANCH   7   9
ENDBRANCH   5   7
BRANCH   1  19
HETATM   19  N1  UNL     1      25.604   4.933  49.250  1.00  0.00    -0.188 N 
HETATM   20  H5  UNL     1      25.139   4.273  48.576  1.00  0.00     0.184 HD
BRANCH  19  21
HETATM   21  C4  UNL     1      26.687   5.678  48.751  1.00  0.00     0.050 C 
HETATM   22  C3  UNL     1      28.044   5.182  48.650  1.00  0.00     0.064 C 
HETATM   23  C2  UNL     1      29.069   5.745  48.019  1.00  0.00     0.071 C 
HETATM   24  C20 UNL     1      29.026   7.035  47.267  1.00  0.00     0.232 C 
HETATM   25  O2  UNL     1      28.381   7.956  48.066  1.00  0.00    -0.381 OA
HETATM   26  C19 UNL     1      27.027   8.038  47.803  1.00  0.00     0.197 C 
HETATM   27  C18 UNL     1      26.271   6.892  48.387  1.00  0.00     0.029 C 
BRANCH  23  28
HETATM   28  O1  UNL     1      30.241   5.051  48.089  1.00  0.00    -0.358 OA
HETATM   29  C1  UNL     1      31.501   5.543  48.445  1.00  0.00     0.209 C 
ENDBRANCH  23  28
ENDBRANCH  19  21
ENDBRANCH   1  19
TORSDOF 5
ENDMDL
MODEL 5
REMARK VINA RESULT:      -8.5      3.240      8.615
REMARK  5 active torsions:
REMARK  status: ('A' for Active; 'I' for Inactive)
REMARK    1  A    between atoms: O1_2  and  C2_3 
REMARK    2  A    between atoms: C4_5  and  N1_6 
REMARK    3  A    between atoms: N1_6  and  C5_7 
REMARK    4  A    between atoms: C8_11  and  N3_12 
REMARK    5  A    between atoms: N3_12  and  C9_13 
ROOT
HETATM    1  C5  UNL     1      22.172   1.373  50.473  1.00  0.00     0.728 A 
HETATM    2  N2  UNL     1      21.661   1.062  49.262  1.00  0.00    -0.075 NA
HETATM    3  C6  UNL     1      21.928   1.791  48.165  1.00  0.00     0.140 A 
HETATM    4  C7  UNL     1      22.760   2.872  48.378  1.00  0.00     0.071 A 
HETATM    5  C8  UNL     1      23.306   3.233  49.582  1.00  0.00     0.148 A 
HETATM    6  N5  UNL     1      22.977   2.441  50.611  1.00  0.00    -0.045 NA
ENDROOT
BRANCH   5   7
HETATM    7  N3  UNL     1      24.152   4.335  49.831  1.00  0.00    -0.339 N 
HETATM    8  H8  UNL     1      23.812   5.089  50.479  1.00  0.00     0.167 HD
BRANCH   7   9
HETATM    9  C9  UNL     1      25.436   4.669  49.368  1.00  0.00     0.052 A 
HETATM   10  C10 UNL     1      26.561   3.878  49.444  1.00  0.00     0.146 A 
HETATM   11  N4  UNL     1      27.792   4.188  49.037  1.00  0.00    -0.258 NA
HETATM   12  C11 UNL     1      28.028   5.389  48.480  1.00  0.00     0.066 A 
HETATM   13  C12 UNL     1      29.304   5.716  48.062  1.00  0.00     0.032 A 
HETATM   14  C16 UNL     1      26.970   6.261  48.354  1.00  0.00    -0.005 A 
HETATM   15  C13 UNL     1      29.564   6.954  47.490  1.00  0.00     0.002 A 
HETATM   16  C14 UNL     1      28.516   7.845  47.354  1.00  0.00     0.001 A 
HETATM   17  C15 UNL     1      27.249   7.483  47.785  1.00  0.00     0.014 A 
HETATM   18  C17 UNL     1      25.722   5.908  48.784  1.00  0.00     0.044 A 
ENDBRANCH   7   9
ENDBRANCH   5   7
BRANCH   1  19
HETATM   19  N1  UNL     1      21.786   0.494  51.496  1.00  0.00    -0.188 N 
HETATM   20  H5  UNL     1      20.798   0.327  51.176  1.00  0.00     0.184 HD
BRANCH  19  21
HETATM   21  C4  UNL     1      22.188  -0.176  52.666  1.00  0.00     0.050 C 
HETATM   22  C3  UNL     1      23.566  -0.369  53.066  1.00  0.00     0.064 C 
HETATM   23  C2  UNL     1      24.017  -0.811  54.234  1.00  0.00     0.071 C 
HETATM   24  C20 UNL     1      23.172  -1.209  55.401  1.00  0.00     0.232 C 
HETATM   25  O2  UNL     1      22.171  -2.028  54.923  1.00  0.00    -0.381 OA
HETATM   26  C19 UNL     1      21.010  -1.340  54.625  1.00  0.00     0.197 C 
HETATM   27  C18 UNL     1      21.114  -0.594  53.338  1.00  0.00     0.029 C 
BRANCH  23  28
HETATM   28  O1  UNL     1      25.375  -0.894  54.335  1.00  0.00    -0.358 OA
HETATM   29  C1  UNL     1      26.298  -1.053  53.295  1.00  0.00     0.209 C 
ENDBRANCH  23  28
ENDBRANCH  19  21
ENDBRANCH   1  19
TORSDOF 5
ENDMDL
MODEL 6
REMARK VINA RESULT:      -8.5      3.512      5.911
REMARK  5 active torsions:
REMARK  status: ('A' for Active; 'I' for Inactive)
REMARK    1  A    between atoms: O1_2  and  C2_3 
REMARK    2  A    between atoms: C4_5  and  N1_6 
REMARK    3  A    between atoms: N1_6  and  C5_7 
REMARK    4  A    between atoms: C8_11  and  N3_12 
REMARK    5  A    between atoms: N3_12  and  C9_13 
ROOT
HETATM    1  C5  UNL     1      24.734   4.777  50.359  1.00  0.00     0.728 A 
HETATM    2  N2  UNL     1      23.677   5.585  50.592  1.00  0.00    -0.075 NA
HETATM    3  C6  UNL     1      22.801   5.350  51.585  1.00  0.00     0.140 A 
HETATM    4  C7  UNL     1      23.072   4.224  52.338  1.00  0.00     0.071 A 
HETATM    5  C8  UNL     1      24.127   3.370  52.146  1.00  0.00     0.148 A 
HETATM    6  N5  UNL     1      24.938   3.696  51.131  1.00  0.00    -0.045 NA
ENDROOT
BRANCH   5   7
HETATM    7  N3  UNL     1      24.422   2.211  52.894  1.00  0.00    -0.339 N 
HETATM    8  H8  UNL     1      23.633   1.716  53.380  1.00  0.00     0.167 HD
BRANCH   7   9
HETATM    9  C9  UNL     1      25.624   1.527  53.149  1.00  0.00     0.052 A 
HETATM   10  C10 UNL     1      26.755   2.056  53.731  1.00  0.00     0.146 A 
HETATM   11  N4  UNL     1      27.911   1.433  53.955  1.00  0.00    -0.258 NA
HETATM   12  C11 UNL     1      28.055   0.144  53.599  1.00  0.00     0.066 A 
HETATM   13  C12 UNL     1      29.255  -0.504  53.825  1.00  0.00     0.032 A 
HETATM   14  C16 UNL     1      26.983  -0.485  53.008  1.00  0.00    -0.005 A 
HETATM   15  C13 UNL     1      29.419  -1.832  53.458  1.00  0.00     0.002 A 
HETATM   16  C14 UNL     1      28.355  -2.484  52.863  1.00  0.00     0.001 A 
HETATM   17  C15 UNL     1      27.167  -1.802  52.651  1.00  0.00     0.014 A 
HETATM   18  C17 UNL     1      25.812   0.187  52.794  1.00  0.00     0.044 A 
ENDBRANCH   7   9
ENDBRANCH   5   7
BRANCH   1  19
HETATM   19  N1  UNL     1      25.537   5.187  49.285  1.00  0.00    -0.188 N 
HETATM   20  H5  UNL     1      25.035   4.666  48.522  1.00  0.00     0.184 HD
BRANCH  19  21
HETATM   21  C4  UNL     1      26.648   5.956  48.893  1.00  0.00     0.050 C 
HETATM   22  C3  UNL     1      26.647   7.400  48.785  1.00  0.00     0.064 C 
HETATM   23  C2  UNL     1      27.691   8.202  48.613  1.00  0.00     0.071 C 
HETATM   24  C20 UNL     1      29.115   7.764  48.493  1.00  0.00     0.232 C 
HETATM   25  O2  UNL     1      29.150   6.719  47.595  1.00  0.00    -0.381 OA
HETATM   26  C19 UNL     1      29.074   5.482  48.207  1.00  0.00     0.197 C 
HETATM   27  C18 UNL     1      27.686   5.156  48.644  1.00  0.00     0.029 C 
BRANCH  23  28
HETATM   28  O1  UNL     1      27.394   9.531  48.546  1.00  0.00    -0.358 OA
HETATM   29  C1  UNL     1      26.131  10.126  48.624  1.00  0.00     0.209 C 
ENDBRANCH  23  28
ENDBRANCH  19  21
ENDBRANCH   1  19
TORSDOF 5
ENDMDL
MODEL 7
REMARK VINA RESULT:      -8.5      2.632      5.240
REMARK  5 active torsions:
REMARK  status: ('A' for Active; 'I' for Inactive)
REMARK    1  A    between atoms: O1_2  and  C2_3 
REMARK    2  A    between atoms: C4_5  and  N1_6 
REMARK    3  A    between atoms: N1_6  and  C5_7 
REMARK    4  A    between atoms: C8_11  and  N3_12 
REMARK    5  A    between atoms: N3_12  and  C9_13 
ROOT
HETATM    1  C5  UNL     1      26.141   3.412  50.851  1.00  0.00     0.728 A 
HETATM    2  N2  UNL     1      26.561   4.265  49.892  1.00  0.00    -0.075 NA
HETATM    3  C6  UNL     1      25.702   4.927  49.097  1.00  0.00     0.140 A 
HETATM    4  C7  UNL     1      24.369   4.664  49.343  1.00  0.00     0.071 A 
HETATM    5  C8  UNL     1      23.887   3.810  50.301  1.00  0.00     0.148 A 
HETATM    6  N5  UNL     1      24.827   3.202  51.037  1.00  0.00    -0.045 NA
ENDROOT
BRANCH   5   7
HETATM    7  N3  UNL     1      22.533   3.516  50.568  1.00  0.00    -0.339 N 
HETATM    8  H8  UNL     1      21.795   4.040  50.036  1.00  0.00     0.167 HD
BRANCH   7   9
HETATM    9  C9  UNL     1      21.915   2.616  51.453  1.00  0.00     0.052 A 
HETATM   10  C10 UNL     1      20.779   2.854  52.196  1.00  0.00     0.146 A 
HETATM   11  N4  UNL     1      20.195   2.025  53.060  1.00  0.00    -0.258 NA
HETATM   12  C11 UNL     1      20.721   0.805  53.276  1.00  0.00     0.066 A 
HETATM   13  C12 UNL     1      20.121  -0.055  54.176  1.00  0.00     0.032 A 
HETATM   14  C16 UNL     1      21.859   0.462  52.582  1.00  0.00    -0.005 A 
HETATM   15  C13 UNL     1      20.654  -1.314  54.412  1.00  0.00     0.002 A 
HETATM   16  C14 UNL     1      21.798  -1.680  53.725  1.00  0.00     0.001 A 
HETATM   17  C15 UNL     1      22.373  -0.791  52.831  1.00  0.00     0.014 A 
HETATM   18  C17 UNL     1      22.430   1.340  51.704  1.00  0.00     0.044 A 
ENDBRANCH   7   9
ENDBRANCH   5   7
BRANCH   1  19
HETATM   19  N1  UNL     1      27.182   2.821  51.581  1.00  0.00    -0.188 N 
HETATM   20  H5  UNL     1      27.984   3.176  51.000  1.00  0.00     0.184 HD
BRANCH  19  21
HETATM   21  C4  UNL     1      27.516   2.016  52.685  1.00  0.00     0.050 C 
HETATM   22  C3  UNL     1      26.737   0.881  53.136  1.00  0.00     0.064 C 
HETATM   23  C2  UNL     1      27.082  -0.034  54.034  1.00  0.00     0.071 C 
HETATM   24  C20 UNL     1      28.376  -0.078  54.781  1.00  0.00     0.232 C 
HETATM   25  O2  UNL     1      28.617   1.191  55.261  1.00  0.00    -0.381 OA
HETATM   26  C19 UNL     1      29.410   1.943  54.415  1.00  0.00     0.197 C 
HETATM   27  C18 UNL     1      28.649   2.454  53.238  1.00  0.00     0.029 C 
BRANCH  23  28
HETATM   28  O1  UNL     1      26.145  -0.997  54.266  1.00  0.00    -0.358 OA
HETATM   29  C1  UNL     1      25.129  -0.984  55.228  1.00  0.00     0.209 C 
ENDBRANCH  23  28
ENDBRANCH  19  21
ENDBRANCH   1  19
TORSDOF 5
ENDMDL
MODEL 8
REMARK VINA RESULT:      -8.2      3.545      8.957
REMARK  5 active torsions:
REMARK  status: ('A' for Active; 'I' for Inactive)
REMARK    1  A    between atoms: O1_2  and  C2_3 
REMARK    2  A    between atoms: C4_5  and  N1_6 
REMARK    3  A    between atoms: N1_6  and  C5_7 
REMARK    4  A    between atoms: C8_11  and  N3_12 
REMARK    5  A    between atoms: N3_12  and  C9_13 
ROOT
HETATM    1  C5  UNL     1      23.681   4.489  52.001  1.00  0.00     0.728 A 
HETATM    2  N2  UNL     1      22.471   5.018  52.287  1.00  0.00    -0.075 NA
HETATM    3  C6  UNL     1      21.835   5.846  51.439  1.00  0.00     0.140 A 
HETATM    4  C7  UNL     1      22.516   6.106  50.267  1.00  0.00     0.071 A 
HETATM    5  C8  UNL     1      23.743   5.598  49.926  1.00  0.00     0.148 A 
HETATM    6  N5  UNL     1      24.289   4.785  50.840  1.00  0.00    -0.045 NA
ENDROOT
BRANCH   5   7
HETATM    7  N3  UNL     1      24.464   5.853  48.741  1.00  0.00    -0.339 N 
HETATM    8  H8  UNL     1      24.015   5.612  47.822  1.00  0.00     0.167 HD
BRANCH   7   9
HETATM    9  C9  UNL     1      25.740   6.393  48.504  1.00  0.00     0.052 A 
HETATM   10  C10 UNL     1      26.025   7.706  48.198  1.00  0.00     0.146 A 
HETATM   11  N4  UNL     1      27.223   8.230  47.943  1.00  0.00    -0.258 NA
HETATM   12  C11 UNL     1      28.315   7.446  47.971  1.00  0.00     0.066 A 
HETATM   13  C12 UNL     1      29.559   7.986  47.701  1.00  0.00     0.032 A 
HETATM   14  C16 UNL     1      28.144   6.113  48.268  1.00  0.00    -0.005 A 
HETATM   15  C13 UNL     1      30.694   7.187  47.722  1.00  0.00     0.002 A 
HETATM   16  C14 UNL     1      30.545   5.845  48.018  1.00  0.00     0.001 A 
HETATM   17  C15 UNL     1      29.283   5.339  48.283  1.00  0.00     0.014 A 
HETATM   18  C17 UNL     1      26.899   5.611  48.524  1.00  0.00     0.044 A 
ENDBRANCH   7   9
ENDBRANCH   5   7
BRANCH   1  19
HETATM   19  N1  UNL     1      24.182   3.645  53.003  1.00  0.00    -0.188 N 
HETATM   20  H5  UNL     1      24.116   4.321  53.807  1.00  0.00     0.184 HD
BRANCH  19  21
HETATM   21  C4  UNL     1      24.687   2.366  53.300  1.00  0.00     0.050 C 
HETATM   22  C3  UNL     1      26.012   2.110  53.824  1.00  0.00     0.064 C 
HETATM   23  C2  UNL     1      26.487   0.968  54.307  1.00  0.00     0.071 C 
HETATM   24  C20 UNL     1      25.730  -0.316  54.409  1.00  0.00     0.232 C 
HETATM   25  O2  UNL     1      25.104  -0.522  53.198  1.00  0.00    -0.381 OA
HETATM   26  C19 UNL     1      23.809  -0.041  53.175  1.00  0.00     0.197 C 
HETATM   27  C18 UNL     1      23.763   1.442  53.030  1.00  0.00     0.029 C 
BRANCH  23  28
HETATM   28  O1  UNL     1      27.781   1.016  54.736  1.00  0.00    -0.358 OA
HETATM   29  C1  UNL     1      28.747   0.009  54.641  1.00  0.00     0.209 C 
ENDBRANCH  23  28
ENDBRANCH  19  21
ENDBRANCH   1  19
TORSDOF 5
ENDMDL
MODEL 9
REMARK VINA RESULT:      -8.1      3.339      8.781
REMARK  5 active torsions:
REMARK  status: ('A' for Active; 'I' for Inactive)
REMARK    1  A    between atoms: O1_2  and  C2_3 
REMARK    2  A    between atoms: C4_5  and  N1_6 
REMARK    3  A    between atoms: N1_6  and  C5_7 
REMARK    4  A    between atoms: C8_11  and  N3_12 
REMARK    5  A    between atoms: N3_12  and  C9_13 
ROOT
HETATM    1  C5  UNL     1      23.549   2.075  50.731  1.00  0.00     0.728 A 
HETATM    2  N2  UNL     1      22.451   1.810  49.991  1.00  0.00    -0.075 NA
HETATM    3  C6  UNL     1      22.023   2.640  49.024  1.00  0.00     0.140 A 
HETATM    4  C7  UNL     1      22.793   3.774  48.854  1.00  0.00     0.071 A 
HETATM    5  C8  UNL     1      23.915   4.092  49.575  1.00  0.00     0.148 A 
HETATM    6  N5  UNL     1      24.254   3.198  50.513  1.00  0.00    -0.045 NA
ENDROOT
BRANCH   5   7
HETATM    7  N3  UNL     1      24.715   5.245  49.429  1.00  0.00    -0.339 N 
HETATM    8  H8  UNL     1      24.303   6.175  49.691  1.00  0.00     0.167 HD
BRANCH   7   9
HETATM    9  C9  UNL     1      26.032   5.434  48.976  1.00  0.00     0.052 A 
HETATM   10  C10 UNL     1      27.062   4.522  49.059  1.00  0.00     0.146 A 
HETATM   11  N4  UNL     1      28.322   4.693  48.662  1.00  0.00    -0.258 NA
HETATM   12  C11 UNL     1      28.696   5.862  48.110  1.00  0.00     0.066 A 
HETATM   13  C12 UNL     1      30.003   6.045  47.702  1.00  0.00     0.032 A 
HETATM   14  C16 UNL     1      27.742   6.846  47.978  1.00  0.00    -0.005 A 
HETATM   15  C13 UNL     1      30.404   7.247  47.136  1.00  0.00     0.002 A 
HETATM   16  C14 UNL     1      29.463   8.250  46.993  1.00  0.00     0.001 A 
HETATM   17  C15 UNL     1      28.161   8.031  47.414  1.00  0.00     0.014 A 
HETATM   18  C17 UNL     1      26.459   6.634  48.397  1.00  0.00     0.044 A 
ENDBRANCH   7   9
ENDBRANCH   5   7
BRANCH   1  19
HETATM   19  N1  UNL     1      23.841   1.090  51.687  1.00  0.00    -0.188 N 
HETATM   20  H5  UNL     1      23.084   0.409  51.427  1.00  0.00     0.184 HD
BRANCH  19  21
HETATM   21  C4  UNL     1      24.683   0.716  52.750  1.00  0.00     0.050 C 
HETATM   22  C3  UNL     1      25.970   1.320  53.027  1.00  0.00     0.064 C 
HETATM   23  C2  UNL     1      26.724   1.161  54.108  1.00  0.00     0.071 C 
HETATM   24  C20 UNL     1      26.389   0.306  55.287  1.00  0.00     0.232 C 
HETATM   25  O2  UNL     1      25.969  -0.915  54.803  1.00  0.00    -0.381 OA
HETATM   26  C19 UNL     1      24.596  -0.992  54.662  1.00  0.00     0.197 C 
HETATM   27  C18 UNL     1      24.113  -0.264  53.454  1.00  0.00     0.029 C 
BRANCH  23  28
HETATM   28  O1  UNL     1      27.897   1.857  54.100  1.00  0.00    -0.358 OA
HETATM   29  C1  UNL     1      29.196   1.337  54.140  1.00  0.00     0.209 C 
ENDBRANCH  23  28
ENDBRANCH  19  21
ENDBRANCH   1  19
TORSDOF 5
ENDMDL
