MODEL 1
REMARK VINA RESULT:      -9.4      0.000      0.000
REMARK  2 active torsions:
REMARK  status: ('A' for Active; 'I' for Inactive)
REMARK    1  A    between atoms: C5_9  and  C6_10 
REMARK    2  A    between atoms: C16_23  and  N4_24 
ROOT
HETATM    1  O1  UNL     1      26.536   2.457  54.334  1.00  0.00    -0.296 OA
HETATM    2  C1  UNL     1      25.659   1.804  53.737  1.00  0.00     0.151 C 
HETATM    3  C2  UNL     1      24.756   2.780  53.069  1.00  0.00     0.088 C 
HETATM    4  O2  UNL     1      23.768   2.216  52.263  1.00  0.00     0.000 OA
HETATM    5  C3  UNL     1      22.674   2.897  51.744  1.00  0.00     0.137 A 
HETATM    6  N1  UNL     1      22.818   1.671  51.673  1.00  0.00    -0.253 N 
HETATM    7  C4  UNL     1      22.090   0.608  51.144  1.00  0.00     0.233 C 
HETATM    8  N2  UNL     1      21.104  -0.026  51.481  1.00  0.00    -0.241 NA
HETATM    9  C5  UNL     1      20.154  -0.144  52.449  1.00  0.00     0.068 C 
HETATM   10  C12 UNL     1      20.102  -0.347  53.792  1.00  0.00     0.034 C 
HETATM   11  C13 UNL     1      21.168  -0.532  54.744  1.00  0.00     0.019 C 
HETATM   12  C14 UNL     1      22.474  -0.622  54.958  1.00  0.00     0.083 C 
HETATM   13  N3  UNL     1      23.639  -0.562  54.141  1.00  0.00    -0.396 N 
HETATM   14  C15 UNL     1      24.849  -0.556  53.396  1.00  0.00     0.151 C 
HETATM   15  C16 UNL     1      25.904   0.357  53.953  1.00  0.00     0.167 C 
HETATM   16  H11 UNL     1      23.001   0.042  53.631  1.00  0.00     0.158 HD
ENDROOT
BRANCH   9  17
HETATM   17  C6  UNL     1      18.817  -0.060  51.813  1.00  0.00    -0.006 A 
HETATM   18  C7  UNL     1      18.455   0.713  50.742  1.00  0.00     0.017 A 
HETATM   19  C8  UNL     1      17.252   0.833  50.082  1.00  0.00     0.045 A 
HETATM   20  C9  UNL     1      16.241   0.023  50.604  1.00  0.00     0.138 A 
HETATM   21  F1  UNL     1      15.005   0.022  50.075  1.00  0.00    -0.204 F 
HETATM   22  C10 UNL     1      16.480  -0.784  51.659  1.00  0.00     0.073 A 
HETATM   23 CL1  UNL     1      15.213  -1.823  52.333  1.00  0.00    -0.081 Cl
HETATM   24  C11 UNL     1      17.723  -0.826  52.245  1.00  0.00     0.040 A 
ENDBRANCH   9  17
BRANCH  15  25
HETATM   25  N4  UNL     1      27.230  -0.023  53.759  1.00  0.00    -0.396 N 
HETATM   26  C17 UNL     1      27.540  -0.794  52.611  1.00  0.00     0.144 C 
HETATM   27  C18 UNL     1      28.593  -1.817  53.083  1.00  0.00     0.187 C 
HETATM   28  O3  UNL     1      29.751  -1.185  53.469  1.00  0.00    -0.388 OA
HETATM   29  C19 UNL     1      29.622   0.024  54.084  1.00  0.00     0.187 C 
HETATM   30  C20 UNL     1      28.233   0.233  54.691  1.00  0.00     0.144 C 
ENDBRANCH  15  25
TORSDOF 2
ENDMDL
MODEL 2
REMARK VINA RESULT:      -9.2      4.795      9.223
REMARK  2 active torsions:
REMARK  status: ('A' for Active; 'I' for Inactive)
REMARK    1  A    between atoms: C5_9  and  C6_10 
REMARK    2  A    between atoms: C16_23  and  N4_24 
ROOT
HETATM    1  O1  UNL     1      18.582   1.621  49.226  1.00  0.00    -0.296 OA
HETATM    2  C1  UNL     1      19.481   1.845  50.058  1.00  0.00     0.151 C 
HETATM    3  C2  UNL     1      20.740   2.079  49.302  1.00  0.00     0.088 C 
HETATM    4  O2  UNL     1      21.838   2.449  50.079  1.00  0.00     0.000 OA
HETATM    5  C3  UNL     1      23.155   2.480  49.639  1.00  0.00     0.137 A 
HETATM    6  N1  UNL     1      22.820   2.634  50.819  1.00  0.00    -0.253 N 
HETATM    7  C4  UNL     1      23.480   2.865  52.024  1.00  0.00     0.233 C 
HETATM    8  N2  UNL     1      24.117   2.186  52.812  1.00  0.00    -0.241 NA
HETATM    9  C5  UNL     1      24.575   0.927  53.055  1.00  0.00     0.068 C 
HETATM   10  C12 UNL     1      24.060  -0.324  53.195  1.00  0.00     0.034 C 
HETATM   11  C13 UNL     1      22.694  -0.777  53.132  1.00  0.00     0.019 C 
HETATM   12  C14 UNL     1      21.417  -0.460  52.968  1.00  0.00     0.083 C 
HETATM   13  N3  UNL     1      20.696   0.745  52.734  1.00  0.00    -0.396 N 
HETATM   14  C15 UNL     1      19.895   1.904  52.541  1.00  0.00     0.151 C 
HETATM   15  C16 UNL     1      18.901   1.779  51.423  1.00  0.00     0.167 C 
HETATM   16  H11 UNL     1      21.584   0.949  52.286  1.00  0.00     0.158 HD
ENDROOT
BRANCH   9  17
HETATM   17  C6  UNL     1      26.043   0.986  53.252  1.00  0.00    -0.006 A 
HETATM   18  C7  UNL     1      26.801   2.098  53.509  1.00  0.00     0.017 A 
HETATM   19  C8  UNL     1      28.154   2.236  53.726  1.00  0.00     0.045 A 
HETATM   20  C9  UNL     1      28.858   1.031  53.671  1.00  0.00     0.138 A 
HETATM   21  F1  UNL     1      30.189   0.992  53.859  1.00  0.00    -0.204 F 
HETATM   22  C10 UNL     1      28.218  -0.131  53.426  1.00  0.00     0.073 A 
HETATM   23 CL1  UNL     1      29.092  -1.671  53.358  1.00  0.00    -0.081 Cl
HETATM   24  C11 UNL     1      26.859  -0.156  53.223  1.00  0.00     0.040 A 
ENDBRANCH   9  17
BRANCH  15  25
HETATM   25  N4  UNL     1      17.709   2.487  51.559  1.00  0.00    -0.396 N 
HETATM   26  C17 UNL     1      16.501   1.748  51.635  1.00  0.00     0.144 C 
HETATM   27  C18 UNL     1      15.475   2.566  50.827  1.00  0.00     0.187 C 
HETATM   28  O3  UNL     1      15.241   3.783  51.421  1.00  0.00    -0.388 OA
HETATM   29  C19 UNL     1      16.298   4.390  52.029  1.00  0.00     0.187 C 
HETATM   30  C20 UNL     1      17.647   3.877  51.518  1.00  0.00     0.144 C 
ENDBRANCH  15  25
TORSDOF 2
ENDMDL
MODEL 3
REMARK VINA RESULT:      -8.9      4.115      6.213
REMARK  2 active torsions:
REMARK  status: ('A' for Active; 'I' for Inactive)
REMARK    1  A    between atoms: C5_9  and  C6_10 
REMARK    2  A    between atoms: C16_23  and  N4_24 
ROOT
HETATM    1  O1  UNL     1      27.527   4.521  48.925  1.00  0.00    -0.296 OA
HETATM    2  C1  UNL     1      26.423   4.358  49.476  1.00  0.00     0.151 C 
HETATM    3  C2  UNL     1      26.566   3.226  50.432  1.00  0.00     0.088 C 
HETATM    4  O2  UNL     1      25.443   2.969  51.218  1.00  0.00     0.000 OA
HETATM    5  C3  UNL     1      25.252   1.831  51.992  1.00  0.00     0.137 A 
HETATM    6  N1  UNL     1      24.378   2.683  51.793  1.00  0.00    -0.253 N 
HETATM    7  C4  UNL     1      23.051   2.863  52.178  1.00  0.00     0.233 C 
HETATM    8  N2  UNL     1      21.975   2.399  51.838  1.00  0.00    -0.241 NA
HETATM    9  C5  UNL     1      21.380   1.518  50.987  1.00  0.00     0.068 C 
HETATM   10  C12 UNL     1      21.308   1.303  49.646  1.00  0.00     0.034 C 
HETATM   11  C13 UNL     1      21.907   2.031  48.557  1.00  0.00     0.019 C 
HETATM   12  C14 UNL     1      22.664   3.051  48.175  1.00  0.00     0.083 C 
HETATM   13  N3  UNL     1      23.361   4.099  48.842  1.00  0.00    -0.396 N 
HETATM   14  C15 UNL     1      24.050   5.198  49.422  1.00  0.00     0.151 C 
HETATM   15  C16 UNL     1      25.463   5.355  48.941  1.00  0.00     0.167 C 
HETATM   16  H11 UNL     1      23.392   3.359  49.537  1.00  0.00     0.158 HD
ENDROOT
BRANCH   9  17
HETATM   17  C6  UNL     1      20.562   0.570  51.781  1.00  0.00    -0.006 A 
HETATM   18  C7  UNL     1      20.946  -0.123  52.898  1.00  0.00     0.017 A 
HETATM   19  C8  UNL     1      20.248  -0.998  53.701  1.00  0.00     0.045 A 
HETATM   20  C9  UNL     1      18.928  -1.203  53.295  1.00  0.00     0.138 A 
HETATM   21  F1  UNL     1      18.111  -2.030  53.969  1.00  0.00    -0.204 F 
HETATM   22  C10 UNL     1      18.436  -0.572  52.207  1.00  0.00     0.073 A 
HETATM   23 CL1  UNL     1      16.763  -0.816  51.678  1.00  0.00    -0.081 Cl
HETATM   24  C11 UNL     1      19.223   0.284  51.474  1.00  0.00     0.040 A 
ENDBRANCH   9  17
BRANCH  15  25
HETATM   25  N4  UNL     1      25.972   6.651  48.894  1.00  0.00    -0.396 N 
HETATM   26  C17 UNL     1      26.029   7.388  50.105  1.00  0.00     0.144 C 
HETATM   27  C18 UNL     1      25.645   8.831  49.720  1.00  0.00     0.187 C 
HETATM   28  O3  UNL     1      26.578   9.375  48.871  1.00  0.00    -0.388 OA
HETATM   29  C19 UNL     1      27.157   8.539  47.965  1.00  0.00     0.187 C 
HETATM   30  C20 UNL     1      26.323   7.283  47.704  1.00  0.00     0.144 C 
ENDBRANCH  15  25
TORSDOF 2
ENDMDL
MODEL 4
REMARK VINA RESULT:      -8.5      5.332      7.293
REMARK  2 active torsions:
REMARK  status: ('A' for Active; 'I' for Inactive)
REMARK    1  A    between atoms: C5_9  and  C6_10 
REMARK    2  A    between atoms: C16_23  and  N4_24 
ROOT
HETATM    1  O1  UNL     1      26.518   8.371  50.235  1.00  0.00    -0.296 OA
HETATM    2  C1  UNL     1      25.902   7.298  50.091  1.00  0.00     0.151 C 
HETATM    3  C2  UNL     1      24.807   7.277  51.098  1.00  0.00     0.088 C 
HETATM    4  O2  UNL     1      23.944   6.184  51.011  1.00  0.00     0.000 OA
HETATM    5  C3  UNL     1      23.013   5.821  51.976  1.00  0.00     0.137 A 
HETATM    6  N1  UNL     1      23.289   5.126  50.990  1.00  0.00    -0.253 N 
HETATM    7  C4  UNL     1      22.876   3.895  50.487  1.00  0.00     0.233 C 
HETATM    8  N2  UNL     1      23.101   2.726  50.754  1.00  0.00    -0.241 NA
HETATM    9  C5  UNL     1      23.796   1.905  51.589  1.00  0.00     0.068 C 
HETATM   10  C12 UNL     1      25.090   1.695  51.951  1.00  0.00     0.034 C 
HETATM   11  C13 UNL     1      26.294   2.350  51.509  1.00  0.00     0.019 C 
HETATM   12  C14 UNL     1      26.846   3.270  50.727  1.00  0.00     0.083 C 
HETATM   13  N3  UNL     1      26.361   4.211  49.775  1.00  0.00    -0.396 N 
HETATM   14  C15 UNL     1      25.968   5.149  48.782  1.00  0.00     0.151 C 
HETATM   15  C16 UNL     1      26.527   6.526  48.989  1.00  0.00     0.167 C 
HETATM   16  H11 UNL     1      25.572   4.140  50.411  1.00  0.00     0.158 HD
ENDROOT
BRANCH   9  17
HETATM   17  C6  UNL     1      22.844   0.970  52.234  1.00  0.00    -0.006 A 
HETATM   18  C7  UNL     1      21.571   0.669  51.827  1.00  0.00     0.017 A 
HETATM   19  C8  UNL     1      20.637  -0.196  52.352  1.00  0.00     0.045 A 
HETATM   20  C9  UNL     1      21.077  -0.875  53.490  1.00  0.00     0.138 A 
HETATM   21  F1  UNL     1      20.285  -1.756  54.126  1.00  0.00    -0.204 F 
HETATM   22  C10 UNL     1      22.314  -0.662  53.985  1.00  0.00     0.073 A 
HETATM   23 CL1  UNL     1      22.892  -1.517  55.426  1.00  0.00    -0.081 Cl
HETATM   24  C11 UNL     1      23.170   0.228  53.381  1.00  0.00     0.040 A 
ENDBRANCH   9  17
BRANCH  15  25
HETATM   25  N4  UNL     1      26.775   7.283  47.846  1.00  0.00    -0.396 N 
HETATM   26  C17 UNL     1      28.121   7.439  47.429  1.00  0.00     0.144 C 
HETATM   27  C18 UNL     1      28.227   8.896  46.935  1.00  0.00     0.187 C 
HETATM   28  O3  UNL     1      27.436   9.096  45.829  1.00  0.00    -0.388 OA
HETATM   29  C19 UNL     1      26.252   8.424  45.782  1.00  0.00     0.187 C 
HETATM   30  C20 UNL     1      25.775   7.972  47.164  1.00  0.00     0.144 C 
ENDBRANCH  15  25
TORSDOF 2
ENDMDL
MODEL 5
REMARK VINA RESULT:      -8.4      6.253      9.079
REMARK  2 active torsions:
REMARK  status: ('A' for Active; 'I' for Inactive)
REMARK    1  A    between atoms: C5_9  and  C6_10 
REMARK    2  A    between atoms: C16_23  and  N4_24 
ROOT
HETATM    1  O1  UNL     1      21.507   0.225  50.538  1.00  0.00    -0.296 OA
HETATM    2  C1  UNL     1      22.114   1.291  50.755  1.00  0.00     0.151 C 
HETATM    3  C2  UNL     1      21.628   2.289  49.766  1.00  0.00     0.088 C 
HETATM    4  O2  UNL     1      22.130   3.580  49.931  1.00  0.00     0.000 OA
HETATM    5  C3  UNL     1      22.019   4.606  49.001  1.00  0.00     0.137 A 
HETATM    6  N1  UNL     1      22.710   4.676  50.024  1.00  0.00    -0.253 N 
HETATM    7  C4  UNL     1      23.540   5.631  50.608  1.00  0.00     0.233 C 
HETATM    8  N2  UNL     1      24.674   6.036  50.412  1.00  0.00    -0.241 NA
HETATM    9  C5  UNL     1      25.771   5.885  49.621  1.00  0.00     0.068 C 
HETATM   10  C12 UNL     1      26.622   4.888  49.256  1.00  0.00     0.034 C 
HETATM   11  C13 UNL     1      26.644   3.500  49.642  1.00  0.00     0.019 C 
HETATM   12  C14 UNL     1      26.093   2.529  50.358  1.00  0.00     0.083 C 
HETATM   13  N3  UNL     1      24.992   2.435  51.256  1.00  0.00    -0.396 N 
HETATM   14  C15 UNL     1      23.939   2.260  52.194  1.00  0.00     0.151 C 
HETATM   15  C16 UNL     1      23.043   1.093  51.896  1.00  0.00     0.167 C 
HETATM   16  H11 UNL     1      24.685   3.177  50.635  1.00  0.00     0.158 HD
ENDROOT
BRANCH   9  17
HETATM   17  C6  UNL     1      26.128   7.204  49.046  1.00  0.00    -0.006 A 
HETATM   18  C7  UNL     1      26.006   8.430  49.645  1.00  0.00     0.017 A 
HETATM   19  C8  UNL     1      26.331   9.690  49.194  1.00  0.00     0.045 A 
HETATM   20  C9  UNL     1      26.875   9.704  47.908  1.00  0.00     0.138 A 
HETATM   21  F1  UNL     1      27.244  10.854  47.319  1.00  0.00    -0.204 F 
HETATM   22  C10 UNL     1      27.045   8.556  47.219  1.00  0.00     0.073 A 
HETATM   23 CL1  UNL     1      27.739   8.552  45.588  1.00  0.00    -0.081 Cl
HETATM   24  C11 UNL     1      26.685   7.347  47.765  1.00  0.00     0.040 A 
ENDBRANCH   9  17
BRANCH  15  25
HETATM   25  N4  UNL     1      22.461   0.451  52.987  1.00  0.00    -0.396 N 
HETATM   26  C17 UNL     1      23.126  -0.679  53.526  1.00  0.00     0.144 C 
HETATM   27  C18 UNL     1      22.005  -1.670  53.897  1.00  0.00     0.187 C 
HETATM   28  O3  UNL     1      21.209  -1.158  54.892  1.00  0.00    -0.388 OA
HETATM   29  C19 UNL     1      20.980   0.185  54.875  1.00  0.00     0.187 C 
HETATM   30  C20 UNL     1      21.215   0.806  53.496  1.00  0.00     0.144 C 
ENDBRANCH  15  25
TORSDOF 2
ENDMDL
MODEL 6
REMARK VINA RESULT:      -8.3      8.985     12.398
REMARK  2 active torsions:
REMARK  status: ('A' for Active; 'I' for Inactive)
REMARK    1  A    between atoms: C5_9  and  C6_10 
REMARK    2  A    between atoms: C16_23  and  N4_24 
ROOT
HETATM    1  O1  UNL     1      22.552   5.081  47.749  1.00  0.00    -0.296 OA
HETATM    2  C1  UNL     1      23.525   5.670  48.256  1.00  0.00     0.151 C 
HETATM    3  C2  UNL     1      23.790   6.880  47.434  1.00  0.00     0.088 C 
HETATM    4  O2  UNL     1      24.791   7.721  47.922  1.00  0.00     0.000 OA
HETATM    5  C3  UNL     1      25.378   8.762  47.214  1.00  0.00     0.137 A 
HETATM    6  N1  UNL     1      25.782   8.363  48.312  1.00  0.00    -0.253 N 
HETATM    7  C4  UNL     1      26.815   8.705  49.182  1.00  0.00     0.233 C 
HETATM    8  N2  UNL     1      28.019   8.509  49.224  1.00  0.00    -0.241 NA
HETATM    9  C5  UNL     1      29.058   7.918  48.572  1.00  0.00     0.068 C 
HETATM   10  C12 UNL     1      29.397   6.678  48.129  1.00  0.00     0.034 C 
HETATM   11  C13 UNL     1      28.681   5.431  48.225  1.00  0.00     0.019 C 
HETATM   12  C14 UNL     1      27.599   4.792  48.650  1.00  0.00     0.083 C 
HETATM   13  N3  UNL     1      26.419   5.161  49.356  1.00  0.00    -0.396 N 
HETATM   14  C15 UNL     1      25.233   5.432  50.091  1.00  0.00     0.151 C 
HETATM   15  C16 UNL     1      23.982   4.909  49.446  1.00  0.00     0.167 C 
HETATM   16  H11 UNL     1      26.638   6.021  48.863  1.00  0.00     0.158 HD
ENDROOT
BRANCH   9  17
HETATM   17  C6  UNL     1      30.106   8.938  48.328  1.00  0.00    -0.006 A 
HETATM   18  C7  UNL     1      31.278   8.774  47.639  1.00  0.00     0.017 A 
HETATM   19  C8  UNL     1      32.287   9.667  47.350  1.00  0.00     0.045 A 
HETATM   20  C9  UNL     1      32.062  10.951  47.851  1.00  0.00     0.138 A 
HETATM   21  F1  UNL     1      32.951  11.940  47.658  1.00  0.00    -0.204 F 
HETATM   22  C10 UNL     1      30.940  11.233  48.546  1.00  0.00     0.073 A 
HETATM   23 CL1  UNL     1      30.634  12.856  49.186  1.00  0.00    -0.081 Cl
HETATM   24  C11 UNL     1      29.994  10.263  48.779  1.00  0.00     0.040 A 
ENDBRANCH   9  17
BRANCH  15  25
HETATM   25  N4  UNL     1      22.948   4.526  50.297  1.00  0.00    -0.396 N 
HETATM   26  C17 UNL     1      22.340   5.527  51.097  1.00  0.00     0.144 C 
HETATM   27  C18 UNL     1      22.072   4.851  52.457  1.00  0.00     0.187 C 
HETATM   28  O3  UNL     1      21.162   3.830  52.325  1.00  0.00    -0.388 OA
HETATM   29  C19 UNL     1      21.210   3.099  51.177  1.00  0.00     0.187 C 
HETATM   30  C20 UNL     1      22.564   3.199  50.470  1.00  0.00     0.144 C 
ENDBRANCH  15  25
TORSDOF 2
ENDMDL
MODEL 7
REMARK VINA RESULT:      -8.3      6.470     10.475
REMARK  2 active torsions:
REMARK  status: ('A' for Active; 'I' for Inactive)
REMARK    1  A    between atoms: C5_9  and  C6_10 
REMARK    2  A    between atoms: C16_23  and  N4_24 
ROOT
HETATM    1  O1  UNL     1      20.038   2.850  53.026  1.00  0.00    -0.296 OA
HETATM    2  C1  UNL     1      20.757   3.239  52.086  1.00  0.00     0.151 C 
HETATM    3  C2  UNL     1      22.120   2.689  52.312  1.00  0.00     0.088 C 
HETATM    4  O2  UNL     1      23.038   2.942  51.292  1.00  0.00     0.000 OA
HETATM    5  C3  UNL     1      24.410   2.749  51.384  1.00  0.00     0.137 A 
HETATM    6  N1  UNL     1      23.857   3.312  50.432  1.00  0.00    -0.253 N 
HETATM    7  C4  UNL     1      24.273   3.902  49.241  1.00  0.00     0.233 C 
HETATM    8  N2  UNL     1      24.787   4.963  48.928  1.00  0.00    -0.241 NA
HETATM    9  C5  UNL     1      25.254   6.144  49.420  1.00  0.00     0.068 C 
HETATM   10  C12 UNL     1      24.784   7.186  50.157  1.00  0.00     0.034 C 
HETATM   11  C13 UNL     1      23.477   7.408  50.719  1.00  0.00     0.019 C 
HETATM   12  C14 UNL     1      22.237   6.965  50.879  1.00  0.00     0.083 C 
HETATM   13  N3  UNL     1      21.513   5.813  50.458  1.00  0.00    -0.396 N 
HETATM   14  C15 UNL     1      20.705   4.717  50.048  1.00  0.00     0.151 C 
HETATM   15  C16 UNL     1      19.941   4.071  51.167  1.00  0.00     0.167 C 
HETATM   16  H11 UNL     1      22.457   5.445  50.528  1.00  0.00     0.158 HD
ENDROOT
BRANCH   9  17
HETATM   17  C6  UNL     1      26.656   6.322  48.973  1.00  0.00    -0.006 A 
HETATM   18  C7  UNL     1      27.536   5.344  48.591  1.00  0.00     0.017 A 
HETATM   19  C8  UNL     1      28.837   5.425  48.145  1.00  0.00     0.045 A 
HETATM   20  C9  UNL     1      29.327   6.731  48.077  1.00  0.00     0.138 A 
HETATM   21  F1  UNL     1      30.581   6.984  47.664  1.00  0.00    -0.204 F 
HETATM   22  C10 UNL     1      28.551   7.778  48.428  1.00  0.00     0.073 A 
HETATM   23 CL1  UNL     1      29.154   9.442  48.344  1.00  0.00    -0.081 Cl
HETATM   24  C11 UNL     1      27.262   7.584  48.861  1.00  0.00     0.040 A 
ENDBRANCH   9  17
BRANCH  15  25
HETATM   25  N4  UNL     1      18.711   3.503  50.842  1.00  0.00    -0.396 N 
HETATM   26  C17 UNL     1      18.702   2.389  49.965  1.00  0.00     0.144 C 
HETATM   27  C18 UNL     1      17.470   2.594  49.061  1.00  0.00     0.187 C 
HETATM   28  O3  UNL     1      16.310   2.538  49.796  1.00  0.00    -0.388 OA
HETATM   29  C19 UNL     1      16.348   3.052  51.057  1.00  0.00     0.187 C 
HETATM   30  C20 UNL     1      17.496   4.044  51.255  1.00  0.00     0.144 C 
ENDBRANCH  15  25
TORSDOF 2
ENDMDL
MODEL 8
REMARK VINA RESULT:      -8.1      9.686     11.822
REMARK  2 active torsions:
REMARK  status: ('A' for Active; 'I' for Inactive)
REMARK    1  A    between atoms: C5_9  and  C6_10 
REMARK    2  A    between atoms: C16_23  and  N4_24 
ROOT
HETATM    1  O1  UNL     1      30.544  11.803  48.028  1.00  0.00    -0.296 OA
HETATM    2  C1  UNL     1      29.721  10.889  47.835  1.00  0.00     0.151 C 
HETATM    3  C2  UNL     1      28.936  10.725  49.088  1.00  0.00     0.088 C 
HETATM    4  O2  UNL     1      27.890   9.804  49.015  1.00  0.00     0.000 OA
HETATM    5  C3  UNL     1      27.187   9.306  50.105  1.00  0.00     0.137 A 
HETATM    6  N1  UNL     1      27.066   8.875  48.951  1.00  0.00    -0.253 N 
HETATM    7  C4  UNL     1      26.313   7.882  48.328  1.00  0.00     0.233 C 
HETATM    8  N2  UNL     1      26.375   6.667  48.245  1.00  0.00    -0.241 NA
HETATM    9  C5  UNL     1      27.093   5.576  48.630  1.00  0.00     0.068 C 
HETATM   10  C12 UNL     1      28.373   5.127  48.536  1.00  0.00     0.034 C 
HETATM   11  C13 UNL     1      29.525   5.731  47.918  1.00  0.00     0.019 C 
HETATM   12  C14 UNL     1      30.021   6.756  47.237  1.00  0.00     0.083 C 
HETATM   13  N3  UNL     1      29.494   7.969  46.709  1.00  0.00    -0.396 N 
HETATM   14  C15 UNL     1      29.044   9.179  46.114  1.00  0.00     0.151 C 
HETATM   15  C16 UNL     1      29.887  10.375  46.452  1.00  0.00     0.167 C 
HETATM   16  H11 UNL     1      28.897   7.822  47.517  1.00  0.00     0.158 HD
ENDROOT
BRANCH   9  17
HETATM   17  C6  UNL     1      26.180   4.619  49.300  1.00  0.00    -0.006 A 
HETATM   18  C7  UNL     1      24.811   4.606  49.251  1.00  0.00     0.017 A 
HETATM   19  C8  UNL     1      23.896   3.748  49.820  1.00  0.00     0.045 A 
HETATM   20  C9  UNL     1      24.478   2.723  50.570  1.00  0.00     0.138 A 
HETATM   21  F1  UNL     1      23.724   1.802  51.193  1.00  0.00    -0.204 F 
HETATM   22  C10 UNL     1      25.819   2.633  50.689  1.00  0.00     0.073 A 
HETATM   23 CL1  UNL     1      26.576   1.337  51.632  1.00  0.00    -0.081 Cl
HETATM   24  C11 UNL     1      26.643   3.546  50.077  1.00  0.00     0.040 A 
ENDBRANCH   9  17
BRANCH  15  25
HETATM   25  N4  UNL     1      29.971  11.378  45.489  1.00  0.00    -0.396 N 
HETATM   26  C17 UNL     1      31.207  11.554  44.817  1.00  0.00     0.144 C 
HETATM   27  C18 UNL     1      31.371  13.079  44.662  1.00  0.00     0.187 C 
HETATM   28  O3  UNL     1      30.392  13.595  43.847  1.00  0.00    -0.388 OA
HETATM   29  C19 UNL     1      29.157  13.026  43.924  1.00  0.00     0.187 C 
HETATM   30  C20 UNL     1      28.934  12.272  45.237  1.00  0.00     0.144 C 
ENDBRANCH  15  25
TORSDOF 2
ENDMDL
MODEL 9
REMARK VINA RESULT:      -8.1      5.180      9.517
REMARK  2 active torsions:
REMARK  status: ('A' for Active; 'I' for Inactive)
REMARK    1  A    between atoms: C5_9  and  C6_10 
REMARK    2  A    between atoms: C16_23  and  N4_24 
ROOT
HETATM    1  O1  UNL     1      17.265   4.020  50.764  1.00  0.00    -0.296 OA
HETATM    2  C1  UNL     1      18.443   3.628  50.665  1.00  0.00     0.151 C 
HETATM    3  C2  UNL     1      18.616   2.498  51.617  1.00  0.00     0.088 C 
HETATM    4  O2  UNL     1      19.858   1.864  51.564  1.00  0.00     0.000 OA
HETATM    5  C3  UNL     1      20.336   0.962  52.507  1.00  0.00     0.137 A 
HETATM    6  N1  UNL     1      21.021   1.423  51.585  1.00  0.00    -0.253 N 
HETATM    7  C4  UNL     1      22.336   1.281  51.149  1.00  0.00     0.233 C 
HETATM    8  N2  UNL     1      23.422   1.707  51.505  1.00  0.00    -0.241 NA
HETATM    9  C5  UNL     1      24.044   2.493  52.427  1.00  0.00     0.068 C 
HETATM   10  C12 UNL     1      23.980   3.779  52.864  1.00  0.00     0.034 C 
HETATM   11  C13 UNL     1      23.132   4.862  52.437  1.00  0.00     0.019 C 
HETATM   12  C14 UNL     1      22.170   5.276  51.621  1.00  0.00     0.083 C 
HETATM   13  N3  UNL     1      21.398   4.680  50.584  1.00  0.00    -0.396 N 
HETATM   14  C15 UNL     1      20.612   4.178  49.511  1.00  0.00     0.151 C 
HETATM   15  C16 UNL     1      19.143   4.453  49.649  1.00  0.00     0.167 C 
HETATM   16  H11 UNL     1      21.581   3.882  51.185  1.00  0.00     0.158 HD
ENDROOT
BRANCH   9  17
HETATM   17  C6  UNL     1      25.106   1.698  53.090  1.00  0.00    -0.006 A 
HETATM   18  C7  UNL     1      25.001   0.425  53.586  1.00  0.00     0.017 A 
HETATM   19  C8  UNL     1      25.935  -0.387  54.190  1.00  0.00     0.045 A 
HETATM   20  C9  UNL     1      27.197   0.200  54.310  1.00  0.00     0.138 A 
HETATM   21  F1  UNL     1      28.221  -0.458  54.879  1.00  0.00    -0.204 F 
HETATM   22  C10 UNL     1      27.421   1.451  53.856  1.00  0.00     0.073 A 
HETATM   23 CL1  UNL     1      29.015   2.212  53.995  1.00  0.00    -0.081 Cl
HETATM   24  C11 UNL     1      26.413   2.177  53.267  1.00  0.00     0.040 A 
ENDBRANCH   9  17
BRANCH  15  25
HETATM   25  N4  UNL     1      18.421   4.621  48.470  1.00  0.00    -0.396 N 
HETATM   26  C17 UNL     1      18.202   3.481  47.655  1.00  0.00     0.144 C 
HETATM   27  C18 UNL     1      18.343   3.986  46.206  1.00  0.00     0.187 C 
HETATM   28  O3  UNL     1      17.355   4.893  45.905  1.00  0.00    -0.388 OA
HETATM   29  C19 UNL     1      16.956   5.730  46.903  1.00  0.00     0.187 C 
HETATM   30  C20 UNL     1      18.002   5.867  48.012  1.00  0.00     0.144 C 
ENDBRANCH  15  25
TORSDOF 2
ENDMDL
