MODEL 1
REMARK VINA RESULT:      -9.2      0.000      0.000
REMARK  5 active torsions:
REMARK  status: ('A' for Active; 'I' for Inactive)
REMARK    1  A    between atoms: C1_2  and  C2_3 
REMARK       I    between atoms: C1_2  and  N1_11 
REMARK    2  A    between atoms: C2_3  and  O2_4 
REMARK    3  A    between atoms: O2_4  and  C3_5 
REMARK    4  A    between atoms: N1_11  and  C9_12 
REMARK    5  A    between atoms: N2_18  and  C15_19 
ROOT
HETATM    1  C9  UNL     1      22.707   1.386  51.208  1.00  0.00     0.037 A 
HETATM    2  C10 UNL     1      21.423   1.163  51.678  1.00  0.00     0.032 A 
HETATM    3  C11 UNL     1      21.193   0.493  52.877  1.00  0.00     0.036 A 
HETATM    4  C12 UNL     1      22.284   0.050  53.594  1.00  0.00     0.083 A 
HETATM    5  C13 UNL     1      23.536   0.304  53.077  1.00  0.00     0.066 A 
HETATM    6  C14 UNL     1      23.823   0.959  51.897  1.00  0.00     0.061 A 
HETATM    7  N2  UNL     1      24.618  -0.109  53.915  1.00  0.00    -0.340 N 
HETATM    8  C21 UNL     1      24.567  -1.067  54.999  1.00  0.00     0.176 C 
HETATM    9  C22 UNL     1      23.137  -1.214  55.402  1.00  0.00     0.110 C 
HETATM   10  N3  UNL     1      22.093  -0.718  54.778  1.00  0.00    -0.261 NA
ENDROOT
BRANCH   1  11
HETATM   11  N1  UNL     1      22.886   2.076  49.974  1.00  0.00    -0.325 N 
HETATM   12  C1  UNL     1      23.254   3.422  50.241  1.00  0.00     0.246 C 
HETATM   13  O1  UNL     1      23.379   3.854  51.435  1.00  0.00    -0.271 OA
HETATM   14  H8  UNL     1      22.819   1.857  48.962  1.00  0.00     0.169 HD
BRANCH  12  15
HETATM   15  C2  UNL     1      23.545   4.514  49.292  1.00  0.00     0.278 C 
BRANCH  15  16
HETATM   16  O2  UNL     1      24.431   5.486  49.811  1.00  0.00    -0.342 OA
BRANCH  16  17
HETATM   17  C3  UNL     1      25.680   5.713  49.252  1.00  0.00     0.069 A 
HETATM   18  C4  UNL     1      26.561   4.638  49.188  1.00  0.00     0.037 A 
HETATM   19  C5  UNL     1      27.815   4.788  48.647  1.00  0.00     0.003 A 
HETATM   20  C6  UNL     1      28.158   6.040  48.176  1.00  0.00     0.000 A 
HETATM   21  C7  UNL     1      27.270   7.115  48.242  1.00  0.00     0.003 A 
HETATM   22  C8  UNL     1      26.009   6.953  48.788  1.00  0.00     0.037 A 
ENDBRANCH  16  17
ENDBRANCH  15  16
ENDBRANCH  12  15
ENDBRANCH   1  11
BRANCH   7  23
HETATM   23  C15 UNL     1      25.931   0.430  53.808  1.00  0.00     0.036 A 
HETATM   24  C16 UNL     1      26.228   1.768  53.741  1.00  0.00     0.030 A 
HETATM   25  C17 UNL     1      27.498   2.284  53.618  1.00  0.00     0.004 A 
HETATM   26  C18 UNL     1      28.569   1.428  53.557  1.00  0.00     0.019 A 
HETATM   27  C19 UNL     1      28.364   0.073  53.619  1.00  0.00     0.013 A 
HETATM   28 BR1  UNL     1      29.832  -1.134  53.537  1.00  0.00    -0.051 Br
HETATM   29  C20 UNL     1      27.083  -0.362  53.739  1.00  0.00     0.048 A 
ENDBRANCH   7  23
TORSDOF 5
ENDMDL
MODEL 2
REMARK VINA RESULT:      -8.4      2.921      4.960
REMARK  5 active torsions:
REMARK  status: ('A' for Active; 'I' for Inactive)
REMARK    1  A    between atoms: C1_2  and  C2_3 
REMARK       I    between atoms: C1_2  and  N1_11 
REMARK    2  A    between atoms: C2_3  and  O2_4 
REMARK    3  A    between atoms: O2_4  and  C3_5 
REMARK    4  A    between atoms: N1_11  and  C9_12 
REMARK    5  A    between atoms: N2_18  and  C15_19 
ROOT
HETATM    1  C9  UNL     1      22.450  -0.446  53.087  1.00  0.00     0.037 A 
HETATM    2  C10 UNL     1      22.557  -1.095  54.308  1.00  0.00     0.032 A 
HETATM    3  C11 UNL     1      23.742  -1.079  55.038  1.00  0.00     0.036 A 
HETATM    4  C12 UNL     1      24.820  -0.396  54.515  1.00  0.00     0.083 A 
HETATM    5  C13 UNL     1      24.651   0.231  53.300  1.00  0.00     0.066 A 
HETATM    6  C14 UNL     1      23.505   0.247  52.533  1.00  0.00     0.061 A 
HETATM    7  N2  UNL     1      25.783   0.987  52.862  1.00  0.00    -0.340 N 
HETATM    8  C21 UNL     1      27.150   0.860  53.320  1.00  0.00     0.176 C 
HETATM    9  C22 UNL     1      27.119   0.145  54.631  1.00  0.00     0.110 C 
HETATM   10  N3  UNL     1      26.076  -0.430  55.185  1.00  0.00    -0.261 NA
ENDROOT
BRANCH   1  11
HETATM   11  N1  UNL     1      21.215  -0.495  52.380  1.00  0.00    -0.325 N 
HETATM   12  C1  UNL     1      20.638   0.804  52.356  1.00  0.00     0.246 C 
HETATM   13  O1  UNL     1      21.213   1.798  52.911  1.00  0.00    -0.271 OA
HETATM   14  H8  UNL     1      20.643  -1.211  51.893  1.00  0.00     0.169 HD
BRANCH  12  15
HETATM   15  C2  UNL     1      19.371   1.249  51.745  1.00  0.00     0.278 C 
BRANCH  15  16
HETATM   16  O2  UNL     1      19.380   1.191  50.333  1.00  0.00    -0.342 OA
BRANCH  16  17
HETATM   17  C3  UNL     1      20.315   1.881  49.575  1.00  0.00     0.069 A 
HETATM   18  C4  UNL     1      21.270   1.133  48.895  1.00  0.00     0.037 A 
HETATM   19  C5  UNL     1      22.228   1.747  48.125  1.00  0.00     0.003 A 
HETATM   20  C6  UNL     1      22.199   3.126  48.058  1.00  0.00     0.000 A 
HETATM   21  C7  UNL     1      21.238   3.873  48.742  1.00  0.00     0.003 A 
HETATM   22  C8  UNL     1      20.278   3.243  49.515  1.00  0.00     0.037 A 
ENDBRANCH  16  17
ENDBRANCH  15  16
ENDBRANCH  12  15
ENDBRANCH   1  11
BRANCH   7  23
HETATM   23  C15 UNL     1      25.690   2.039  51.907  1.00  0.00     0.036 A 
HETATM   24  C16 UNL     1      26.512   2.189  50.819  1.00  0.00     0.030 A 
HETATM   25  C17 UNL     1      26.429   3.218  49.910  1.00  0.00     0.004 A 
HETATM   26  C18 UNL     1      25.466   4.182  50.069  1.00  0.00     0.019 A 
HETATM   27  C19 UNL     1      24.598   4.110  51.130  1.00  0.00     0.013 A 
HETATM   28 BR1  UNL     1      23.253   5.432  51.372  1.00  0.00    -0.051 Br
HETATM   29  C20 UNL     1      24.741   3.066  51.987  1.00  0.00     0.048 A 
ENDBRANCH   7  23
TORSDOF 5
ENDMDL
MODEL 3
REMARK VINA RESULT:      -8.3      3.598      7.811
REMARK  5 active torsions:
REMARK  status: ('A' for Active; 'I' for Inactive)
REMARK    1  A    between atoms: C1_2  and  C2_3 
REMARK       I    between atoms: C1_2  and  N1_11 
REMARK    2  A    between atoms: C2_3  and  O2_4 
REMARK    3  A    between atoms: O2_4  and  C3_5 
REMARK    4  A    between atoms: N1_11  and  C9_12 
REMARK    5  A    between atoms: N2_18  and  C15_19 
ROOT
HETATM    1  C9  UNL     1      23.863  -0.593  53.564  1.00  0.00     0.037 A 
HETATM    2  C10 UNL     1      24.360  -1.020  54.786  1.00  0.00     0.032 A 
HETATM    3  C11 UNL     1      25.580  -0.561  55.276  1.00  0.00     0.036 A 
HETATM    4  C12 UNL     1      26.292   0.337  54.510  1.00  0.00     0.083 A 
HETATM    5  C13 UNL     1      25.745   0.726  53.306  1.00  0.00     0.066 A 
HETATM    6  C14 UNL     1      24.546   0.305  52.771  1.00  0.00     0.061 A 
HETATM    7  N2  UNL     1      26.499   1.721  52.608  1.00  0.00    -0.340 N 
HETATM    8  C21 UNL     1      27.891   2.064  52.807  1.00  0.00     0.176 C 
HETATM    9  C22 UNL     1      28.293   1.544  54.148  1.00  0.00     0.110 C 
HETATM   10  N3  UNL     1      27.584   0.762  54.930  1.00  0.00    -0.261 NA
ENDROOT
BRANCH   1  11
HETATM   11  N1  UNL     1      22.610  -1.095  53.109  1.00  0.00    -0.325 N 
HETATM   12  C1  UNL     1      21.619  -0.089  53.267  1.00  0.00     0.246 C 
HETATM   13  O1  UNL     1      21.903   1.056  53.752  1.00  0.00    -0.271 OA
HETATM   14  H8  UNL     1      22.244  -1.978  52.705  1.00  0.00     0.169 HD
BRANCH  12  15
HETATM   15  C2  UNL     1      20.181  -0.138  52.939  1.00  0.00     0.278 C 
BRANCH  15  16
HETATM   16  O2  UNL     1      19.478  -1.134  53.654  1.00  0.00    -0.342 OA
BRANCH  16  17
HETATM   17  C3  UNL     1      18.234  -1.591  53.245  1.00  0.00     0.069 A 
HETATM   18  C4  UNL     1      17.837  -2.852  53.678  1.00  0.00     0.037 A 
HETATM   19  C5  UNL     1      16.618  -3.371  53.314  1.00  0.00     0.003 A 
HETATM   20  C6  UNL     1      15.813  -2.592  52.506  1.00  0.00     0.000 A 
HETATM   21  C7  UNL     1      16.215  -1.327  52.075  1.00  0.00     0.003 A 
HETATM   22  C8  UNL     1      17.445  -0.814  52.448  1.00  0.00     0.037 A 
ENDBRANCH  16  17
ENDBRANCH  15  16
ENDBRANCH  12  15
ENDBRANCH   1  11
BRANCH   7  23
HETATM   23  C15 UNL     1      25.930   2.567  51.614  1.00  0.00     0.036 A 
HETATM   24  C16 UNL     1      26.470   2.796  50.374  1.00  0.00     0.030 A 
HETATM   25  C17 UNL     1      25.927   3.630  49.424  1.00  0.00     0.004 A 
HETATM   26  C18 UNL     1      24.760   4.296  49.701  1.00  0.00     0.019 A 
HETATM   27  C19 UNL     1      24.149   4.125  50.918  1.00  0.00     0.013 A 
HETATM   28 BR1  UNL     1      22.531   5.037  51.326  1.00  0.00    -0.051 Br
HETATM   29  C20 UNL     1      24.745   3.287  51.806  1.00  0.00     0.048 A 
ENDBRANCH   7  23
TORSDOF 5
ENDMDL
MODEL 4
REMARK VINA RESULT:      -8.3      3.603      8.226
REMARK  5 active torsions:
REMARK  status: ('A' for Active; 'I' for Inactive)
REMARK    1  A    between atoms: C1_2  and  C2_3 
REMARK       I    between atoms: C1_2  and  N1_11 
REMARK    2  A    between atoms: C2_3  and  O2_4 
REMARK    3  A    between atoms: O2_4  and  C3_5 
REMARK    4  A    between atoms: N1_11  and  C9_12 
REMARK    5  A    between atoms: N2_18  and  C15_19 
ROOT
HETATM    1  C9  UNL     1      24.232   7.230  50.984  1.00  0.00     0.037 A 
HETATM    2  C10 UNL     1      23.034   7.790  50.568  1.00  0.00     0.032 A 
HETATM    3  C11 UNL     1      22.960   8.586  49.428  1.00  0.00     0.036 A 
HETATM    4  C12 UNL     1      24.118   8.807  48.713  1.00  0.00     0.083 A 
HETATM    5  C13 UNL     1      25.277   8.221  49.174  1.00  0.00     0.066 A 
HETATM    6  C14 UNL     1      25.410   7.428  50.295  1.00  0.00     0.061 A 
HETATM    7  N2  UNL     1      26.417   8.425  48.336  1.00  0.00    -0.340 N 
HETATM    8  C21 UNL     1      26.588   9.447  47.325  1.00  0.00     0.176 C 
HETATM    9  C22 UNL     1      25.231   9.964  46.976  1.00  0.00     0.110 C 
HETATM   10  N3  UNL     1      24.105   9.687  47.593  1.00  0.00    -0.261 NA
ENDROOT
BRANCH   1  11
HETATM   11  N1  UNL     1      24.253   6.425  52.159  1.00  0.00    -0.325 N 
HETATM   12  C1  UNL     1      23.836   5.107  51.829  1.00  0.00     0.246 C 
HETATM   13  O1  UNL     1      23.512   4.789  50.637  1.00  0.00    -0.271 OA
HETATM   14  H8  UNL     1      24.485   6.547  53.163  1.00  0.00     0.169 HD
BRANCH  12  15
HETATM   15  C2  UNL     1      23.697   3.927  52.705  1.00  0.00     0.278 C 
BRANCH  15  16
HETATM   16  O2  UNL     1      23.615   2.708  51.994  1.00  0.00    -0.342 OA
BRANCH  16  17
HETATM   17  C3  UNL     1      24.501   1.665  52.220  1.00  0.00     0.069 A 
HETATM   18  C4  UNL     1      24.069   0.618  53.028  1.00  0.00     0.037 A 
HETATM   19  C5  UNL     1      24.891  -0.449  53.297  1.00  0.00     0.003 A 
HETATM   20  C6  UNL     1      26.153  -0.435  52.734  1.00  0.00     0.000 A 
HETATM   21  C7  UNL     1      26.582   0.618  51.924  1.00  0.00     0.003 A 
HETATM   22  C8  UNL     1      25.745   1.688  51.660  1.00  0.00     0.037 A 
ENDBRANCH  16  17
ENDBRANCH  15  16
ENDBRANCH  12  15
ENDBRANCH   1  11
BRANCH   7  23
HETATM   23  C15 UNL     1      27.562   7.579  48.366  1.00  0.00     0.036 A 
HETATM   24  C16 UNL     1      27.535   6.214  48.236  1.00  0.00     0.030 A 
HETATM   25  C17 UNL     1      28.643   5.399  48.285  1.00  0.00     0.004 A 
HETATM   26  C18 UNL     1      29.881   5.958  48.473  1.00  0.00     0.019 A 
HETATM   27  C19 UNL     1      30.003   7.318  48.611  1.00  0.00     0.013 A 
HETATM   28 BR1  UNL     1      31.708   8.117  48.873  1.00  0.00    -0.051 Br
HETATM   29  C20 UNL     1      28.864   8.058  48.553  1.00  0.00     0.048 A 
ENDBRANCH   7  23
TORSDOF 5
ENDMDL
MODEL 5
REMARK VINA RESULT:      -8.3      3.402      7.713
REMARK  5 active torsions:
REMARK  status: ('A' for Active; 'I' for Inactive)
REMARK    1  A    between atoms: C1_2  and  C2_3 
REMARK       I    between atoms: C1_2  and  N1_11 
REMARK    2  A    between atoms: C2_3  and  O2_4 
REMARK    3  A    between atoms: O2_4  and  C3_5 
REMARK    4  A    between atoms: N1_11  and  C9_12 
REMARK    5  A    between atoms: N2_18  and  C15_19 
ROOT
HETATM    1  C9  UNL     1      25.116   3.502  50.046  1.00  0.00     0.037 A 
HETATM    2  C10 UNL     1      23.810   3.367  49.599  1.00  0.00     0.032 A 
HETATM    3  C11 UNL     1      23.209   4.340  48.804  1.00  0.00     0.036 A 
HETATM    4  C12 UNL     1      23.949   5.453  48.468  1.00  0.00     0.083 A 
HETATM    5  C13 UNL     1      25.241   5.529  48.940  1.00  0.00     0.066 A 
HETATM    6  C14 UNL     1      25.886   4.601  49.730  1.00  0.00     0.061 A 
HETATM    7  N2  UNL     1      25.972   6.670  48.482  1.00  0.00    -0.340 N 
HETATM    8  C21 UNL     1      25.429   7.894  47.933  1.00  0.00     0.176 C 
HETATM    9  C22 UNL     1      24.029   7.609  47.499  1.00  0.00     0.110 C 
HETATM   10  N3  UNL     1      23.345   6.513  47.733  1.00  0.00    -0.261 NA
ENDROOT
BRANCH   1  11
HETATM   11  N1  UNL     1      25.682   2.478  50.859  1.00  0.00    -0.325 N 
HETATM   12  C1  UNL     1      25.203   2.620  52.189  1.00  0.00     0.246 C 
HETATM   13  O1  UNL     1      24.394   3.552  52.511  1.00  0.00    -0.271 OA
HETATM   14  H8  UNL     1      26.334   1.681  50.735  1.00  0.00     0.169 HD
BRANCH  12  15
HETATM   15  C2  UNL     1      25.505   1.801  53.380  1.00  0.00     0.278 C 
BRANCH  15  16
HETATM   16  O2  UNL     1      25.940   0.494  53.064  1.00  0.00    -0.342 OA
BRANCH  16  17
HETATM   17  C3  UNL     1      27.258   0.097  53.238  1.00  0.00     0.069 A 
HETATM   18  C4  UNL     1      28.176   1.067  53.629  1.00  0.00     0.037 A 
HETATM   19  C5  UNL     1      29.498   0.748  53.821  1.00  0.00     0.003 A 
HETATM   20  C6  UNL     1      29.871  -0.566  53.610  1.00  0.00     0.000 A 
HETATM   21  C7  UNL     1      28.946  -1.535  53.218  1.00  0.00     0.003 A 
HETATM   22  C8  UNL     1      27.616  -1.203  53.027  1.00  0.00     0.037 A 
ENDBRANCH  16  17
ENDBRANCH  15  16
ENDBRANCH  12  15
ENDBRANCH   1  11
BRANCH   7  23
HETATM   23  C15 UNL     1      27.395   6.724  48.468  1.00  0.00     0.036 A 
HETATM   24  C16 UNL     1      28.220   5.660  48.199  1.00  0.00     0.030 A 
HETATM   25  C17 UNL     1      29.595   5.714  48.206  1.00  0.00     0.004 A 
HETATM   26  C18 UNL     1      30.221   6.899  48.496  1.00  0.00     0.019 A 
HETATM   27  C19 UNL     1      29.474   8.016  48.775  1.00  0.00     0.013 A 
HETATM   28 BR1  UNL     1      30.318   9.671  49.179  1.00  0.00    -0.051 Br
HETATM   29  C20 UNL     1      28.121   7.887  48.750  1.00  0.00     0.048 A 
ENDBRANCH   7  23
TORSDOF 5
ENDMDL
MODEL 6
REMARK VINA RESULT:      -8.1      3.037      7.055
REMARK  5 active torsions:
REMARK  status: ('A' for Active; 'I' for Inactive)
REMARK    1  A    between atoms: C1_2  and  C2_3 
REMARK       I    between atoms: C1_2  and  N1_11 
REMARK    2  A    between atoms: C2_3  and  O2_4 
REMARK    3  A    between atoms: O2_4  and  C3_5 
REMARK    4  A    between atoms: N1_11  and  C9_12 
REMARK    5  A    between atoms: N2_18  and  C15_19 
ROOT
HETATM    1  C9  UNL     1      23.084   2.988  51.071  1.00  0.00     0.037 A 
HETATM    2  C10 UNL     1      21.758   3.333  51.277  1.00  0.00     0.032 A 
HETATM    3  C11 UNL     1      21.325   4.653  51.175  1.00  0.00     0.036 A 
HETATM    4  C12 UNL     1      22.257   5.620  50.862  1.00  0.00     0.083 A 
HETATM    5  C13 UNL     1      23.559   5.215  50.666  1.00  0.00     0.066 A 
HETATM    6  C14 UNL     1      24.044   3.927  50.755  1.00  0.00     0.061 A 
HETATM    7  N2  UNL     1      24.449   6.258  50.262  1.00  0.00    -0.340 N 
HETATM    8  C21 UNL     1      24.249   7.684  50.411  1.00  0.00     0.176 C 
HETATM    9  C22 UNL     1      22.790   7.912  50.630  1.00  0.00     0.110 C 
HETATM   10  N3  UNL     1      21.876   6.992  50.837  1.00  0.00    -0.261 NA
ENDROOT
BRANCH   1  11
HETATM   11  N1  UNL     1      23.474   1.622  51.188  1.00  0.00    -0.325 N 
HETATM   12  C1  UNL     1      24.068   1.415  52.462  1.00  0.00     0.246 C 
HETATM   13  O1  UNL     1      24.191   2.366  53.303  1.00  0.00    -0.271 OA
HETATM   14  H8  UNL     1      23.437   0.766  50.603  1.00  0.00     0.169 HD
BRANCH  12  15
HETATM   15  C2  UNL     1      24.623   0.175  53.040  1.00  0.00     0.278 C 
BRANCH  15  16
HETATM   16  O2  UNL     1      25.685   0.405  53.944  1.00  0.00    -0.342 OA
BRANCH  16  17
HETATM   17  C3  UNL     1      26.924  -0.198  53.789  1.00  0.00     0.069 A 
HETATM   18  C4  UNL     1      26.987  -1.346  53.005  1.00  0.00     0.037 A 
HETATM   19  C5  UNL     1      28.180  -1.998  52.806  1.00  0.00     0.003 A 
HETATM   20  C6  UNL     1      29.302  -1.467  53.413  1.00  0.00     0.000 A 
HETATM   21  C7  UNL     1      29.234  -0.315  54.198  1.00  0.00     0.003 A 
HETATM   22  C8  UNL     1      28.026   0.334  54.392  1.00  0.00     0.037 A 
ENDBRANCH  16  17
ENDBRANCH  15  16
ENDBRANCH  12  15
ENDBRANCH   1  11
BRANCH   7  23
HETATM   23  C15 UNL     1      25.681   6.011  49.593  1.00  0.00     0.036 A 
HETATM   24  C16 UNL     1      26.264   4.777  49.450  1.00  0.00     0.030 A 
HETATM   25  C17 UNL     1      27.464   4.545  48.818  1.00  0.00     0.004 A 
HETATM   26  C18 UNL     1      28.156   5.601  48.279  1.00  0.00     0.019 A 
HETATM   27  C19 UNL     1      27.646   6.871  48.374  1.00  0.00     0.013 A 
HETATM   28 BR1  UNL     1      28.584   8.350  47.635  1.00  0.00    -0.051 Br
HETATM   29  C20 UNL     1      26.456   7.022  49.013  1.00  0.00     0.048 A 
ENDBRANCH   7  23
TORSDOF 5
ENDMDL
MODEL 7
REMARK VINA RESULT:      -8.1      3.093      5.164
REMARK  5 active torsions:
REMARK  status: ('A' for Active; 'I' for Inactive)
REMARK    1  A    between atoms: C1_2  and  C2_3 
REMARK       I    between atoms: C1_2  and  N1_11 
REMARK    2  A    between atoms: C2_3  and  O2_4 
REMARK    3  A    between atoms: O2_4  and  C3_5 
REMARK    4  A    between atoms: N1_11  and  C9_12 
REMARK    5  A    between atoms: N2_18  and  C15_19 
ROOT
HETATM    1  C9  UNL     1      23.856   2.013  51.506  1.00  0.00     0.037 A 
HETATM    2  C10 UNL     1      24.959   1.483  52.156  1.00  0.00     0.032 A 
HETATM    3  C11 UNL     1      24.826   0.489  53.123  1.00  0.00     0.036 A 
HETATM    4  C12 UNL     1      23.557   0.040  53.422  1.00  0.00     0.083 A 
HETATM    5  C13 UNL     1      22.501   0.603  52.740  1.00  0.00     0.066 A 
HETATM    6  C14 UNL     1      22.572   1.588  51.778  1.00  0.00     0.061 A 
HETATM    7  N2  UNL     1      21.227   0.028  53.042  1.00  0.00    -0.340 N 
HETATM    8  C21 UNL     1      20.877  -0.760  54.205  1.00  0.00     0.176 C 
HETATM    9  C22 UNL     1      22.149  -1.261  54.807  1.00  0.00     0.110 C 
HETATM   10  N3  UNL     1      23.368  -0.910  54.467  1.00  0.00    -0.261 NA
ENDROOT
BRANCH   1  11
HETATM   11  N1  UNL     1      24.048   3.029  50.526  1.00  0.00    -0.325 N 
HETATM   12  C1  UNL     1      24.022   4.300  51.161  1.00  0.00     0.246 C 
HETATM   13  O1  UNL     1      23.846   4.414  52.419  1.00  0.00    -0.271 OA
HETATM   14  H8  UNL     1      24.198   3.081  49.500  1.00  0.00     0.169 HD
BRANCH  12  15
HETATM   15  C2  UNL     1      24.176   5.642  50.565  1.00  0.00     0.278 C 
BRANCH  15  16
HETATM   16  O2  UNL     1      24.564   5.610  49.206  1.00  0.00    -0.342 OA
BRANCH  16  17
HETATM   17  C3  UNL     1      25.868   5.863  48.809  1.00  0.00     0.069 A 
HETATM   18  C4  UNL     1      26.797   4.838  48.958  1.00  0.00     0.037 A 
HETATM   19  C5  UNL     1      28.107   5.015  48.586  1.00  0.00     0.003 A 
HETATM   20  C6  UNL     1      28.458   6.245  48.064  1.00  0.00     0.000 A 
HETATM   21  C7  UNL     1      27.522   7.271  47.916  1.00  0.00     0.003 A 
HETATM   22  C8  UNL     1      26.205   7.081  48.294  1.00  0.00     0.037 A 
ENDBRANCH  16  17
ENDBRANCH  15  16
ENDBRANCH  12  15
ENDBRANCH   1  11
BRANCH   7  23
HETATM   23  C15 UNL     1      20.105   0.129  52.172  1.00  0.00     0.036 A 
HETATM   24  C16 UNL     1      20.116   0.737  50.942  1.00  0.00     0.030 A 
HETATM   25  C17 UNL     1      19.023   0.848  50.113  1.00  0.00     0.004 A 
HETATM   26  C18 UNL     1      17.820   0.323  50.511  1.00  0.00     0.019 A 
HETATM   27  C19 UNL     1      17.718  -0.306  51.726  1.00  0.00     0.013 A 
HETATM   28 BR1  UNL     1      16.062  -1.043  52.300  1.00  0.00    -0.051 Br
HETATM   29  C20 UNL     1      18.839  -0.376  52.491  1.00  0.00     0.048 A 
ENDBRANCH   7  23
TORSDOF 5
ENDMDL
MODEL 8
REMARK VINA RESULT:      -8.0      2.864      6.255
REMARK  5 active torsions:
REMARK  status: ('A' for Active; 'I' for Inactive)
REMARK    1  A    between atoms: C1_2  and  C2_3 
REMARK       I    between atoms: C1_2  and  N1_11 
REMARK    2  A    between atoms: C2_3  and  O2_4 
REMARK    3  A    between atoms: O2_4  and  C3_5 
REMARK    4  A    between atoms: N1_11  and  C9_12 
REMARK    5  A    between atoms: N2_18  and  C15_19 
ROOT
HETATM    1  C9  UNL     1      22.645   0.994  52.428  1.00  0.00     0.037 A 
HETATM    2  C10 UNL     1      21.562   0.195  52.098  1.00  0.00     0.032 A 
HETATM    3  C11 UNL     1      20.908   0.324  50.876  1.00  0.00     0.036 A 
HETATM    4  C12 UNL     1      21.366   1.276  49.990  1.00  0.00     0.083 A 
HETATM    5  C13 UNL     1      22.448   2.038  50.373  1.00  0.00     0.066 A 
HETATM    6  C14 UNL     1      23.132   1.957  51.568  1.00  0.00     0.061 A 
HETATM    7  N2  UNL     1      22.918   2.944  49.372  1.00  0.00    -0.340 N 
HETATM    8  C21 UNL     1      22.194   3.418  48.212  1.00  0.00     0.176 C 
HETATM    9  C22 UNL     1      21.061   2.474  47.975  1.00  0.00     0.110 C 
HETATM   10  N3  UNL     1      20.672   1.502  48.768  1.00  0.00    -0.261 NA
ENDROOT
BRANCH   1  11
HETATM   11  N1  UNL     1      23.277   0.822  53.693  1.00  0.00    -0.325 N 
HETATM   12  C1  UNL     1      24.160  -0.289  53.626  1.00  0.00     0.246 C 
HETATM   13  O1  UNL     1      24.298  -0.968  52.555  1.00  0.00    -0.271 OA
HETATM   14  H8  UNL     1      23.261   1.283  54.622  1.00  0.00     0.169 HD
BRANCH  12  15
HETATM   15  C2  UNL     1      25.030  -0.853  54.678  1.00  0.00     0.278 C 
BRANCH  15  16
HETATM   16  O2  UNL     1      25.868   0.109  55.285  1.00  0.00    -0.342 OA
BRANCH  16  17
HETATM   17  C3  UNL     1      26.994   0.608  54.647  1.00  0.00     0.069 A 
HETATM   18  C4  UNL     1      26.837   1.744  53.860  1.00  0.00     0.037 A 
HETATM   19  C5  UNL     1      27.908   2.295  53.198  1.00  0.00     0.003 A 
HETATM   20  C6  UNL     1      29.134   1.677  53.348  1.00  0.00     0.000 A 
HETATM   21  C7  UNL     1      29.286   0.537  54.140  1.00  0.00     0.003 A 
HETATM   22  C8  UNL     1      28.201  -0.010  54.802  1.00  0.00     0.037 A 
ENDBRANCH  16  17
ENDBRANCH  15  16
ENDBRANCH  12  15
ENDBRANCH   1  11
BRANCH   7  23
HETATM   23  C15 UNL     1      24.236   3.482  49.371  1.00  0.00     0.036 A 
HETATM   24  C16 UNL     1      25.370   2.786  49.707  1.00  0.00     0.030 A 
HETATM   25  C17 UNL     1      26.640   3.316  49.722  1.00  0.00     0.004 A 
HETATM   26  C18 UNL     1      26.824   4.633  49.382  1.00  0.00     0.019 A 
HETATM   27  C19 UNL     1      25.744   5.404  49.031  1.00  0.00     0.013 A 
HETATM   28 BR1  UNL     1      25.973   7.231  48.554  1.00  0.00    -0.051 Br
HETATM   29  C20 UNL     1      24.522   4.812  49.039  1.00  0.00     0.048 A 
ENDBRANCH   7  23
TORSDOF 5
ENDMDL
MODEL 9
REMARK VINA RESULT:      -8.0      2.341      2.865
REMARK  5 active torsions:
REMARK  status: ('A' for Active; 'I' for Inactive)
REMARK    1  A    between atoms: C1_2  and  C2_3 
REMARK       I    between atoms: C1_2  and  N1_11 
REMARK    2  A    between atoms: C2_3  and  O2_4 
REMARK    3  A    between atoms: O2_4  and  C3_5 
REMARK    4  A    between atoms: N1_11  and  C9_12 
REMARK    5  A    between atoms: N2_18  and  C15_19 
ROOT
HETATM    1  C9  UNL     1      22.239   1.151  51.683  1.00  0.00     0.037 A 
HETATM    2  C10 UNL     1      21.033   0.799  52.269  1.00  0.00     0.032 A 
HETATM    3  C11 UNL     1      20.984   0.068  53.452  1.00  0.00     0.036 A 
HETATM    4  C12 UNL     1      22.176  -0.303  54.037  1.00  0.00     0.083 A 
HETATM    5  C13 UNL     1      23.342   0.079  53.410  1.00  0.00     0.066 A 
HETATM    6  C14 UNL     1      23.451   0.798  52.239  1.00  0.00     0.061 A 
HETATM    7  N2  UNL     1      24.535  -0.268  54.118  1.00  0.00    -0.340 N 
HETATM    8  C21 UNL     1      24.677  -1.265  55.157  1.00  0.00     0.176 C 
HETATM    9  C22 UNL     1      23.312  -1.552  55.692  1.00  0.00     0.110 C 
HETATM   10  N3  UNL     1      22.172  -1.127  55.198  1.00  0.00    -0.261 NA
ENDROOT
BRANCH   1  11
HETATM   11  N1  UNL     1      22.232   1.898  50.471  1.00  0.00    -0.325 N 
HETATM   12  C1  UNL     1      22.060   3.276  50.772  1.00  0.00     0.246 C 
HETATM   13  O1  UNL     1      21.938   3.685  51.975  1.00  0.00    -0.271 OA
HETATM   14  H8  UNL     1      22.317   1.704  49.455  1.00  0.00     0.169 HD
BRANCH  12  15
HETATM   15  C2  UNL     1      21.990   4.429  49.853  1.00  0.00     0.278 C 
BRANCH  15  16
HETATM   16  O2  UNL     1      22.895   4.339  48.772  1.00  0.00    -0.342 OA
BRANCH  16  17
HETATM   17  C3  UNL     1      22.499   4.561  47.462  1.00  0.00     0.069 A 
HETATM   18  C4  UNL     1      22.599   5.859  46.970  1.00  0.00     0.037 A 
HETATM   19  C5  UNL     1      22.225   6.154  45.682  1.00  0.00     0.003 A 
HETATM   20  C6  UNL     1      21.750   5.116  44.905  1.00  0.00     0.000 A 
HETATM   21  C7  UNL     1      21.651   3.815  45.403  1.00  0.00     0.003 A 
HETATM   22  C8  UNL     1      22.031   3.529  46.703  1.00  0.00     0.037 A 
ENDBRANCH  16  17
ENDBRANCH  15  16
ENDBRANCH  12  15
ENDBRANCH   1  11
BRANCH   7  23
HETATM   23  C15 UNL     1      25.781   0.388  53.905  1.00  0.00     0.036 A 
HETATM   24  C16 UNL     1      25.939   1.741  53.741  1.00  0.00     0.030 A 
HETATM   25  C17 UNL     1      27.144   2.368  53.517  1.00  0.00     0.004 A 
HETATM   26  C18 UNL     1      28.290   1.618  53.448  1.00  0.00     0.019 A 
HETATM   27  C19 UNL     1      28.226   0.256  53.604  1.00  0.00     0.013 A 
HETATM   28 BR1  UNL     1      29.801  -0.806  53.514  1.00  0.00    -0.051 Br
HETATM   29  C20 UNL     1      27.002  -0.292  53.821  1.00  0.00     0.048 A 
ENDBRANCH   7  23
TORSDOF 5
ENDMDL
