MODEL 1
REMARK VINA RESULT:      -8.2      0.000      0.000
REMARK  5 active torsions:
REMARK  status: ('A' for Active; 'I' for Inactive)
REMARK    1  A    between atoms: C2_2  and  S1_3 
REMARK    2  A    between atoms: S1_3  and  N1_6 
REMARK    3  A    between atoms: N1_6  and  C3_7 
REMARK    4  A    between atoms: C10_15  and  N3_16 
REMARK    5  A    between atoms: N3_16  and  C11_17 
ROOT
HETATM    1  C3  UNL     1      26.369   2.369  53.116  1.00  0.00     0.040 C 
HETATM    2  C4  UNL     1      27.093   2.519  51.919  1.00  0.00     0.011 C 
HETATM    3  C5  UNL     1      26.533   2.791  50.472  1.00  0.00     0.109 C 
HETATM    4  C6  UNL     1      25.071   3.068  50.745  1.00  0.00     0.127 C 
HETATM    5  N2  UNL     1      24.419   4.251  50.845  1.00  0.00    -0.270 NA
HETATM    6  C7  UNL     1      23.799   4.307  52.244  1.00  0.00     0.193 C 
HETATM    7  C8  UNL     1      24.038   2.807  52.668  1.00  0.00     0.010 C 
HETATM    8  C9  UNL     1      24.957   2.497  53.734  1.00  0.00     0.042 C 
HETATM    9  C10 UNL     1      23.333   1.768  51.775  1.00  0.00     0.138 C 
HETATM   10  N4  UNL     1      24.485   1.820  51.216  1.00  0.00    -0.215 NA
ENDROOT
BRANCH   9  11
HETATM   11  N3  UNL     1      22.203   0.961  51.475  1.00  0.00    -0.340 N 
HETATM   12  H11 UNL     1      21.960   1.241  50.473  1.00  0.00     0.167 HD
BRANCH  11  13
HETATM   13  C11 UNL     1      21.720   0.094  52.467  1.00  0.00     0.035 A 
HETATM   14  C12 UNL     1      22.507  -0.511  53.428  1.00  0.00     0.029 A 
HETATM   15  C13 UNL     1      21.907  -1.354  54.359  1.00  0.00     0.004 A 
HETATM   16  C14 UNL     1      20.546  -1.562  54.301  1.00  0.00     0.019 A 
HETATM   17  C15 UNL     1      19.737  -0.972  53.354  1.00  0.00     0.013 A 
HETATM   18 BR1  UNL     1      17.852  -1.273  53.286  1.00  0.00    -0.051 Br
HETATM   19  C16 UNL     1      20.344  -0.138  52.434  1.00  0.00     0.048 A 
ENDBRANCH  11  13
ENDBRANCH   9  11
BRANCH   1  20
HETATM   20  N1  UNL     1      27.329   1.937  54.101  1.00  0.00    -0.282 N 
HETATM   21  H4  UNL     1      27.945   2.577  54.681  1.00  0.00     0.179 HD
BRANCH  20  22
HETATM   22  S1  UNL     1      27.481   0.232  54.350  1.00  0.00     0.252 S 
HETATM   23  O1  UNL     1      26.486  -0.286  55.317  1.00  0.00    -0.201 OA
HETATM   24  O2  UNL     1      28.843  -0.015  54.971  1.00  0.00    -0.201 OA
BRANCH  22  25
HETATM   25  C2  UNL     1      27.401  -0.634  52.832  1.00  0.00     0.121 C 
HETATM   26  C1  UNL     1      26.258  -1.236  52.569  1.00  0.00     0.025 C 
ENDBRANCH  22  25
ENDBRANCH  20  22
ENDBRANCH   1  20
TORSDOF 5
ENDMDL
MODEL 2
REMARK VINA RESULT:      -7.9      1.430      1.920
REMARK  5 active torsions:
REMARK  status: ('A' for Active; 'I' for Inactive)
REMARK    1  A    between atoms: C2_2  and  S1_3 
REMARK    2  A    between atoms: S1_3  and  N1_6 
REMARK    3  A    between atoms: N1_6  and  C3_7 
REMARK    4  A    between atoms: C10_15  and  N3_16 
REMARK    5  A    between atoms: N3_16  and  C11_17 
ROOT
HETATM    1  C3  UNL     1      25.922   2.357  52.905  1.00  0.00     0.040 C 
HETATM    2  C4  UNL     1      26.811   2.419  51.816  1.00  0.00     0.011 C 
HETATM    3  C5  UNL     1      26.492   2.799  50.321  1.00  0.00     0.109 C 
HETATM    4  C6  UNL     1      25.063   3.286  50.415  1.00  0.00     0.127 C 
HETATM    5  N2  UNL     1      24.583   4.551  50.476  1.00  0.00    -0.270 NA
HETATM    6  C7  UNL     1      23.799   4.674  51.786  1.00  0.00     0.193 C 
HETATM    7  C8  UNL     1      23.759   3.146  52.180  1.00  0.00     0.010 C 
HETATM    8  C9  UNL     1      24.474   2.683  53.341  1.00  0.00     0.042 C 
HETATM    9  C10 UNL     1      23.033   2.241  51.166  1.00  0.00     0.138 C 
HETATM   10  N4  UNL     1      24.244   2.131  50.761  1.00  0.00    -0.215 NA
ENDROOT
BRANCH   9  11
HETATM   11  N3  UNL     1      21.847   1.619  50.693  1.00  0.00    -0.340 N 
HETATM   12  H11 UNL     1      21.792   1.937  49.675  1.00  0.00     0.167 HD
BRANCH  11  13
HETATM   13  C11 UNL     1      21.105   0.832  51.588  1.00  0.00     0.035 A 
HETATM   14  C12 UNL     1      19.740   0.635  51.510  1.00  0.00     0.029 A 
HETATM   15  C13 UNL     1      19.119  -0.170  52.461  1.00  0.00     0.004 A 
HETATM   16  C14 UNL     1      19.880  -0.750  53.453  1.00  0.00     0.019 A 
HETATM   17  C15 UNL     1      21.243  -0.571  53.555  1.00  0.00     0.013 A 
HETATM   18 BR1  UNL     1      22.282  -1.381  54.938  1.00  0.00    -0.051 Br
HETATM   19  C16 UNL     1      21.848   0.231  52.606  1.00  0.00     0.048 A 
ENDBRANCH  11  13
ENDBRANCH   9  11
BRANCH   1  20
HETATM   20  N1  UNL     1      26.670   1.767  53.987  1.00  0.00    -0.282 N 
HETATM   21  H4  UNL     1      27.182   2.306  54.744  1.00  0.00     0.179 HD
BRANCH  20  22
HETATM   22  S1  UNL     1      26.731   0.040  54.047  1.00  0.00     0.252 S 
HETATM   23  O1  UNL     1      25.745  -0.590  53.139  1.00  0.00    -0.201 OA
HETATM   24  O2  UNL     1      26.341  -0.378  55.452  1.00  0.00    -0.201 OA
BRANCH  22  25
HETATM   25  C2  UNL     1      28.350  -0.542  53.726  1.00  0.00     0.121 C 
HETATM   26  C1  UNL     1      29.302   0.370  53.720  1.00  0.00     0.025 C 
ENDBRANCH  22  25
ENDBRANCH  20  22
ENDBRANCH   1  20
TORSDOF 5
ENDMDL
MODEL 3
REMARK VINA RESULT:      -7.6      3.580      5.786
REMARK  5 active torsions:
REMARK  status: ('A' for Active; 'I' for Inactive)
REMARK    1  A    between atoms: C2_2  and  S1_3 
REMARK    2  A    between atoms: S1_3  and  N1_6 
REMARK    3  A    between atoms: N1_6  and  C3_7 
REMARK    4  A    between atoms: C10_15  and  N3_16 
REMARK    5  A    between atoms: N3_16  and  C11_17 
ROOT
HETATM    1  C3  UNL     1      25.519   0.896  52.250  1.00  0.00     0.040 C 
HETATM    2  C4  UNL     1      24.552   0.151  52.950  1.00  0.00     0.011 C 
HETATM    3  C5  UNL     1      23.040   0.514  53.199  1.00  0.00     0.109 C 
HETATM    4  C6  UNL     1      22.854   1.728  52.316  1.00  0.00     0.127 C 
HETATM    5  N2  UNL     1      22.314   1.822  51.078  1.00  0.00    -0.270 NA
HETATM    6  C7  UNL     1      23.397   2.390  50.155  1.00  0.00     0.193 C 
HETATM    7  C8  UNL     1      24.444   2.815  51.256  1.00  0.00     0.010 C 
HETATM    8  C9  UNL     1      25.711   2.136  51.344  1.00  0.00     0.042 C 
HETATM    9  C10 UNL     1      23.934   3.874  52.253  1.00  0.00     0.138 C 
HETATM   10  N4  UNL     1      23.664   2.795  52.890  1.00  0.00    -0.215 NA
ENDROOT
BRANCH   9  11
HETATM   11  N3  UNL     1      23.761   5.232  52.631  1.00  0.00    -0.340 N 
HETATM   12  H11 UNL     1      23.967   5.223  53.679  1.00  0.00     0.167 HD
BRANCH  11  13
HETATM   13  C11 UNL     1      23.387   6.157  51.644  1.00  0.00     0.035 A 
HETATM   14  C12 UNL     1      22.107   6.291  51.143  1.00  0.00     0.029 A 
HETATM   15  C13 UNL     1      21.862   7.249  50.162  1.00  0.00     0.004 A 
HETATM   16  C14 UNL     1      22.901   8.037  49.717  1.00  0.00     0.019 A 
HETATM   17  C15 UNL     1      24.188   7.924  50.198  1.00  0.00     0.013 A 
HETATM   18 BR1  UNL     1      25.618   9.024  49.569  1.00  0.00    -0.051 Br
HETATM   19  C16 UNL     1      24.419   6.970  51.172  1.00  0.00     0.048 A 
ENDBRANCH  11  13
ENDBRANCH   9  11
BRANCH   1  20
HETATM   20  N1  UNL     1      26.775   0.229  52.490  1.00  0.00    -0.282 N 
HETATM   21  H4  UNL     1      27.236  -0.466  51.834  1.00  0.00     0.179 HD
BRANCH  20  22
HETATM   22  S1  UNL     1      27.587   0.599  53.970  1.00  0.00     0.252 S 
HETATM   23  O1  UNL     1      27.176  -0.295  55.077  1.00  0.00    -0.201 OA
HETATM   24  O2  UNL     1      27.168   1.999  54.379  1.00  0.00    -0.201 OA
BRANCH  22  25
HETATM   25  C2  UNL     1      29.324   0.583  53.755  1.00  0.00     0.121 C 
HETATM   26  C1  UNL     1      29.865  -0.593  53.507  1.00  0.00     0.025 C 
ENDBRANCH  22  25
ENDBRANCH  20  22
ENDBRANCH   1  20
TORSDOF 5
ENDMDL
MODEL 4
REMARK VINA RESULT:      -7.5      3.988      6.719
REMARK  5 active torsions:
REMARK  status: ('A' for Active; 'I' for Inactive)
REMARK    1  A    between atoms: C2_2  and  S1_3 
REMARK    2  A    between atoms: S1_3  and  N1_6 
REMARK    3  A    between atoms: N1_6  and  C3_7 
REMARK    4  A    between atoms: C10_15  and  N3_16 
REMARK    5  A    between atoms: N3_16  and  C11_17 
ROOT
HETATM    1  C3  UNL     1      23.771  -0.151  53.162  1.00  0.00     0.040 C 
HETATM    2  C4  UNL     1      24.758  -0.716  53.990  1.00  0.00     0.011 C 
HETATM    3  C5  UNL     1      26.215  -0.183  54.268  1.00  0.00     0.109 C 
HETATM    4  C6  UNL     1      26.186   1.177  53.607  1.00  0.00     0.127 C 
HETATM    5  N2  UNL     1      26.006   2.402  54.157  1.00  0.00    -0.270 NA
HETATM    6  C7  UNL     1      24.766   3.014  53.498  1.00  0.00     0.193 C 
HETATM    7  C8  UNL     1      24.578   1.967  52.333  1.00  0.00     0.010 C 
HETATM    8  C9  UNL     1      23.427   1.101  52.322  1.00  0.00     0.042 C 
HETATM    9  C10 UNL     1      25.761   1.882  51.350  1.00  0.00     0.138 C 
HETATM   10  N4  UNL     1      26.067   0.949  52.173  1.00  0.00    -0.215 NA
ENDROOT
BRANCH   9  11
HETATM   11  N3  UNL     1      26.414   2.309  50.163  1.00  0.00    -0.340 N 
HETATM   12  H11 UNL     1      27.056   1.489  49.927  1.00  0.00     0.167 HD
BRANCH  11  13
HETATM   13  C11 UNL     1      26.100   3.577  49.649  1.00  0.00     0.035 A 
HETATM   14  C12 UNL     1      24.824   4.100  49.581  1.00  0.00     0.029 A 
HETATM   15  C13 UNL     1      24.643   5.373  49.048  1.00  0.00     0.004 A 
HETATM   16  C14 UNL     1      25.739   6.079  48.603  1.00  0.00     0.019 A 
HETATM   17  C15 UNL     1      27.024   5.582  48.658  1.00  0.00     0.013 A 
HETATM   18 BR1  UNL     1      28.533   6.573  48.035  1.00  0.00    -0.051 Br
HETATM   19  C16 UNL     1      27.191   4.317  49.189  1.00  0.00     0.048 A 
ENDBRANCH  11  13
ENDBRANCH   9  11
BRANCH   1  20
HETATM   20  N1  UNL     1      22.711  -1.126  53.098  1.00  0.00    -0.282 N 
HETATM   21  H4  UNL     1      22.742  -2.031  52.545  1.00  0.00     0.179 HD
BRANCH  20  22
HETATM   22  S1  UNL     1      21.276  -0.783  53.999  1.00  0.00     0.252 S 
HETATM   23  O1  UNL     1      21.523   0.160  55.114  1.00  0.00    -0.201 OA
HETATM   24  O2  UNL     1      20.819  -2.082  54.636  1.00  0.00    -0.201 OA
BRANCH  22  25
HETATM   25  C2  UNL     1      20.000  -0.204  52.950  1.00  0.00     0.121 C 
HETATM   26  C1  UNL     1      18.828  -0.792  53.085  1.00  0.00     0.025 C 
ENDBRANCH  22  25
ENDBRANCH  20  22
ENDBRANCH   1  20
TORSDOF 5
ENDMDL
MODEL 5
REMARK VINA RESULT:      -7.2      4.141      6.010
REMARK  5 active torsions:
REMARK  status: ('A' for Active; 'I' for Inactive)
REMARK    1  A    between atoms: C2_2  and  S1_3 
REMARK    2  A    between atoms: S1_3  and  N1_6 
REMARK    3  A    between atoms: N1_6  and  C3_7 
REMARK    4  A    between atoms: C10_15  and  N3_16 
REMARK    5  A    between atoms: N3_16  and  C11_17 
ROOT
HETATM    1  C3  UNL     1      22.597   3.764  50.713  1.00  0.00     0.040 C 
HETATM    2  C4  UNL     1      22.312   3.125  49.492  1.00  0.00     0.011 C 
HETATM    3  C5  UNL     1      22.047   1.594  49.236  1.00  0.00     0.109 C 
HETATM    4  C6  UNL     1      21.957   1.047  50.644  1.00  0.00     0.127 C 
HETATM    5  N2  UNL     1      20.865   0.756  51.390  1.00  0.00    -0.270 NA
HETATM    6  C7  UNL     1      20.942   1.617  52.655  1.00  0.00     0.193 C 
HETATM    7  C8  UNL     1      22.420   2.143  52.493  1.00  0.00     0.010 C 
HETATM    8  C9  UNL     1      22.663   3.541  52.243  1.00  0.00     0.042 C 
HETATM    9  C10 UNL     1      23.497   1.041  52.489  1.00  0.00     0.138 C 
HETATM   10  N4  UNL     1      23.285   1.172  51.232  1.00  0.00    -0.215 NA
ENDROOT
BRANCH   9  11
HETATM   11  N3  UNL     1      24.418   0.212  53.183  1.00  0.00    -0.340 N 
HETATM   12  H11 UNL     1      23.811  -0.601  53.520  1.00  0.00     0.167 HD
BRANCH  11  13
HETATM   13  C11 UNL     1      25.758   0.623  53.261  1.00  0.00     0.035 A 
HETATM   14  C12 UNL     1      26.168   1.940  53.332  1.00  0.00     0.029 A 
HETATM   15  C13 UNL     1      27.530   2.220  53.406  1.00  0.00     0.004 A 
HETATM   16  C14 UNL     1      28.432   1.178  53.407  1.00  0.00     0.019 A 
HETATM   17  C15 UNL     1      28.051  -0.145  53.336  1.00  0.00     0.013 A 
HETATM   18 BR1  UNL     1      29.315  -1.577  53.338  1.00  0.00    -0.051 Br
HETATM   19  C16 UNL     1      26.696  -0.410  53.263  1.00  0.00     0.048 A 
ENDBRANCH  11  13
ENDBRANCH   9  11
BRANCH   1  20
HETATM   20  N1  UNL     1      22.953   5.119  50.371  1.00  0.00    -0.282 N 
HETATM   21  H4  UNL     1      22.276   5.932  50.298  1.00  0.00     0.179 HD
BRANCH  20  22
HETATM   22  S1  UNL     1      24.624   5.432  50.055  1.00  0.00     0.252 S 
HETATM   23  O1  UNL     1      25.098   6.674  50.708  1.00  0.00    -0.201 OA
HETATM   24  O2  UNL     1      24.768   5.656  48.561  1.00  0.00    -0.201 OA
BRANCH  22  25
HETATM   25  C2  UNL     1      25.616   4.062  50.505  1.00  0.00     0.121 C 
HETATM   26  C1  UNL     1      26.252   3.459  49.521  1.00  0.00     0.025 C 
ENDBRANCH  22  25
ENDBRANCH  20  22
ENDBRANCH   1  20
TORSDOF 5
ENDMDL
MODEL 6
REMARK VINA RESULT:      -6.9      4.528      7.168
REMARK  5 active torsions:
REMARK  status: ('A' for Active; 'I' for Inactive)
REMARK    1  A    between atoms: C2_2  and  S1_3 
REMARK    2  A    between atoms: S1_3  and  N1_6 
REMARK    3  A    between atoms: N1_6  and  C3_7 
REMARK    4  A    between atoms: C10_15  and  N3_16 
REMARK    5  A    between atoms: N3_16  and  C11_17 
ROOT
HETATM    1  C3  UNL     1      25.233   2.891  52.265  1.00  0.00     0.040 C 
HETATM    2  C4  UNL     1      24.157   3.363  53.039  1.00  0.00     0.011 C 
HETATM    3  C5  UNL     1      22.972   4.298  52.587  1.00  0.00     0.109 C 
HETATM    4  C6  UNL     1      23.171   4.361  51.089  1.00  0.00     0.127 C 
HETATM    5  N2  UNL     1      22.545   3.673  50.104  1.00  0.00    -0.270 NA
HETATM    6  C7  UNL     1      23.624   2.894  49.344  1.00  0.00     0.193 C 
HETATM    7  C8  UNL     1      24.898   3.577  49.976  1.00  0.00     0.010 C 
HETATM    8  C9  UNL     1      25.780   2.815  50.820  1.00  0.00     0.042 C 
HETATM    9  C10 UNL     1      25.005   5.093  49.720  1.00  0.00     0.138 C 
HETATM   10  N4  UNL     1      24.414   5.084  50.858  1.00  0.00    -0.215 NA
ENDROOT
BRANCH   9  11
HETATM   11  N3  UNL     1      25.451   6.184  48.926  1.00  0.00    -0.340 N 
HETATM   12  H11 UNL     1      24.558   6.746  48.758  1.00  0.00     0.167 HD
BRANCH  11  13
HETATM   13  C11 UNL     1      26.810   6.244  48.580  1.00  0.00     0.035 A 
HETATM   14  C12 UNL     1      27.667   5.161  48.583  1.00  0.00     0.029 A 
HETATM   15  C13 UNL     1      28.997   5.351  48.219  1.00  0.00     0.004 A 
HETATM   16  C14 UNL     1      29.424   6.612  47.864  1.00  0.00     0.019 A 
HETATM   17  C15 UNL     1      28.592   7.711  47.852  1.00  0.00     0.013 A 
HETATM   18 BR1  UNL     1      29.201   9.452  47.358  1.00  0.00    -0.051 Br
HETATM   19  C16 UNL     1      27.273   7.510  48.216  1.00  0.00     0.048 A 
ENDBRANCH  11  13
ENDBRANCH   9  11
BRANCH   1  20
HETATM   20  N1  UNL     1      26.132   2.253  53.194  1.00  0.00    -0.282 N 
HETATM   21  H4  UNL     1      26.919   2.736  53.717  1.00  0.00     0.179 HD
BRANCH  20  22
HETATM   22  S1  UNL     1      25.901   0.563  53.472  1.00  0.00     0.252 S 
HETATM   23  O1  UNL     1      24.469   0.182  53.469  1.00  0.00    -0.201 OA
HETATM   24  O2  UNL     1      26.418   0.258  54.865  1.00  0.00    -0.201 OA
BRANCH  22  25
HETATM   25  C2  UNL     1      26.812  -0.393  52.323  1.00  0.00     0.121 C 
HETATM   26  C1  UNL     1      27.140  -1.609  52.712  1.00  0.00     0.025 C 
ENDBRANCH  22  25
ENDBRANCH  20  22
ENDBRANCH   1  20
TORSDOF 5
ENDMDL
MODEL 7
REMARK VINA RESULT:      -6.9      4.766      6.589
REMARK  5 active torsions:
REMARK  status: ('A' for Active; 'I' for Inactive)
REMARK    1  A    between atoms: C2_2  and  S1_3 
REMARK    2  A    between atoms: S1_3  and  N1_6 
REMARK    3  A    between atoms: N1_6  and  C3_7 
REMARK    4  A    between atoms: C10_15  and  N3_16 
REMARK    5  A    between atoms: N3_16  and  C11_17 
ROOT
HETATM    1  C3  UNL     1      21.525   3.351  51.706  1.00  0.00     0.040 C 
HETATM    2  C4  UNL     1      21.433   4.755  51.714  1.00  0.00     0.011 C 
HETATM    3  C5  UNL     1      22.524   5.803  51.276  1.00  0.00     0.109 C 
HETATM    4  C6  UNL     1      23.579   4.919  50.647  1.00  0.00     0.127 C 
HETATM    5  N2  UNL     1      23.812   4.647  49.340  1.00  0.00    -0.270 NA
HETATM    6  C7  UNL     1      23.672   3.132  49.164  1.00  0.00     0.193 C 
HETATM    7  C8  UNL     1      23.620   2.721  50.686  1.00  0.00     0.010 C 
HETATM    8  C9  UNL     1      22.411   2.171  51.242  1.00  0.00     0.042 C 
HETATM    9  C10 UNL     1      24.881   3.086  51.492  1.00  0.00     0.138 C 
HETATM   10  N4  UNL     1      24.148   4.113  51.718  1.00  0.00    -0.215 NA
ENDROOT
BRANCH   9  11
HETATM   11  N3  UNL     1      26.173   2.755  51.981  1.00  0.00    -0.340 N 
HETATM   12  H11 UNL     1      26.709   3.676  51.904  1.00  0.00     0.167 HD
BRANCH  11  13
HETATM   13  C11 UNL     1      26.413   1.434  52.392  1.00  0.00     0.035 A 
HETATM   14  C12 UNL     1      25.444   0.453  52.476  1.00  0.00     0.029 A 
HETATM   15  C13 UNL     1      25.808  -0.822  52.898  1.00  0.00     0.004 A 
HETATM   16  C14 UNL     1      27.124  -1.074  53.220  1.00  0.00     0.019 A 
HETATM   17  C15 UNL     1      28.112  -0.115  53.146  1.00  0.00     0.013 A 
HETATM   18 BR1  UNL     1      29.931  -0.481  53.597  1.00  0.00    -0.051 Br
HETATM   19  C16 UNL     1      27.737   1.148  52.726  1.00  0.00     0.048 A 
ENDBRANCH  11  13
ENDBRANCH   9  11
BRANCH   1  20
HETATM   20  N1  UNL     1      20.347   2.879  52.389  1.00  0.00    -0.282 N 
HETATM   21  H4  UNL     1      20.289   2.641  53.422  1.00  0.00     0.179 HD
BRANCH  20  22
HETATM   22  S1  UNL     1      18.915   2.687  51.439  1.00  0.00     0.252 S 
HETATM   23  O1  UNL     1      19.126   3.063  50.022  1.00  0.00    -0.201 OA
HETATM   24  O2  UNL     1      17.878   3.650  51.984  1.00  0.00    -0.201 OA
BRANCH  22  25
HETATM   25  C2  UNL     1      18.284   1.060  51.575  1.00  0.00     0.121 C 
HETATM   26  C1  UNL     1      19.164   0.120  51.858  1.00  0.00     0.025 C 
ENDBRANCH  22  25
ENDBRANCH  20  22
ENDBRANCH   1  20
TORSDOF 5
ENDMDL
MODEL 8
REMARK VINA RESULT:      -6.9      3.311      6.118
REMARK  5 active torsions:
REMARK  status: ('A' for Active; 'I' for Inactive)
REMARK    1  A    between atoms: C2_2  and  S1_3 
REMARK    2  A    between atoms: S1_3  and  N1_6 
REMARK    3  A    between atoms: N1_6  and  C3_7 
REMARK    4  A    between atoms: C10_15  and  N3_16 
REMARK    5  A    between atoms: N3_16  and  C11_17 
ROOT
HETATM    1  C3  UNL     1      24.126   0.781  53.253  1.00  0.00     0.040 C 
HETATM    2  C4  UNL     1      24.619  -0.535  53.184  1.00  0.00     0.011 C 
HETATM    3  C5  UNL     1      26.037  -1.017  52.696  1.00  0.00     0.109 C 
HETATM    4  C6  UNL     1      26.782   0.291  52.544  1.00  0.00     0.127 C 
HETATM    5  N2  UNL     1      27.658   0.889  53.386  1.00  0.00    -0.270 NA
HETATM    6  C7  UNL     1      27.075   2.260  53.744  1.00  0.00     0.193 C 
HETATM    7  C8  UNL     1      25.909   2.304  52.682  1.00  0.00     0.010 C 
HETATM    8  C9  UNL     1      24.536   2.266  53.117  1.00  0.00     0.042 C 
HETATM    9  C10 UNL     1      26.376   2.250  51.214  1.00  0.00     0.138 C 
HETATM   10  N4  UNL     1      26.157   1.008  51.441  1.00  0.00    -0.215 NA
ENDROOT
BRANCH   9  11
HETATM   11  N3  UNL     1      26.789   2.908  50.025  1.00  0.00    -0.340 N 
HETATM   12  H11 UNL     1      27.699   2.409  49.771  1.00  0.00     0.167 HD
BRANCH  11  13
HETATM   13  C11 UNL     1      25.992   3.953  49.530  1.00  0.00     0.035 A 
HETATM   14  C12 UNL     1      26.479   5.176  49.112  1.00  0.00     0.029 A 
HETATM   15  C13 UNL     1      25.585   6.132  48.640  1.00  0.00     0.004 A 
HETATM   16  C14 UNL     1      24.240   5.836  48.602  1.00  0.00     0.019 A 
HETATM   17  C15 UNL     1      23.726   4.624  49.013  1.00  0.00     0.013 A 
HETATM   18 BR1  UNL     1      21.858   4.230  48.954  1.00  0.00    -0.051 Br
HETATM   19  C16 UNL     1      24.624   3.682  49.479  1.00  0.00     0.048 A 
ENDBRANCH  11  13
ENDBRANCH   9  11
BRANCH   1  20
HETATM   20  N1  UNL     1      22.724   0.657  53.566  1.00  0.00    -0.282 N 
HETATM   21  H4  UNL     1      22.328   0.344  54.499  1.00  0.00     0.179 HD
BRANCH  20  22
HETATM   22  S1  UNL     1      21.604   1.052  52.309  1.00  0.00     0.252 S 
HETATM   23  O1  UNL     1      22.216   0.970  50.963  1.00  0.00    -0.201 OA
HETATM   24  O2  UNL     1      21.199   2.501  52.503  1.00  0.00    -0.201 OA
BRANCH  22  25
HETATM   25  C2  UNL     1      20.167   0.058  52.414  1.00  0.00     0.121 C 
HETATM   26  C1  UNL     1      19.994  -0.590  53.548  1.00  0.00     0.025 C 
ENDBRANCH  22  25
ENDBRANCH  20  22
ENDBRANCH   1  20
TORSDOF 5
ENDMDL
MODEL 9
REMARK VINA RESULT:      -6.8      4.979      6.456
REMARK  5 active torsions:
REMARK  status: ('A' for Active; 'I' for Inactive)
REMARK    1  A    between atoms: C2_2  and  S1_3 
REMARK    2  A    between atoms: S1_3  and  N1_6 
REMARK    3  A    between atoms: N1_6  and  C3_7 
REMARK    4  A    between atoms: C10_15  and  N3_16 
REMARK    5  A    between atoms: N3_16  and  C11_17 
ROOT
HETATM    1  C3  UNL     1      23.002   5.176  50.052  1.00  0.00     0.040 C 
HETATM    2  C4  UNL     1      23.076   4.336  48.925  1.00  0.00     0.011 C 
HETATM    3  C5  UNL     1      23.351   2.786  48.885  1.00  0.00     0.109 C 
HETATM    4  C6  UNL     1      23.289   2.414  50.350  1.00  0.00     0.127 C 
HETATM    5  N2  UNL     1      22.275   1.865  51.060  1.00  0.00    -0.270 NA
HETATM    6  C7  UNL     1      21.929   2.847  52.185  1.00  0.00     0.193 C 
HETATM    7  C8  UNL     1      23.165   3.816  52.040  1.00  0.00     0.010 C 
HETATM    8  C9  UNL     1      22.968   5.173  51.599  1.00  0.00     0.042 C 
HETATM    9  C10 UNL     1      24.534   3.148  52.270  1.00  0.00     0.138 C 
HETATM   10  N4  UNL     1      24.431   3.048  50.996  1.00  0.00    -0.215 NA
ENDROOT
BRANCH   9  11
HETATM   11  N3  UNL     1      25.592   2.766  53.138  1.00  0.00    -0.340 N 
HETATM   12  H11 UNL     1      25.841   3.678  53.637  1.00  0.00     0.167 HD
BRANCH  11  13
HETATM   13  C11 UNL     1      26.019   1.429  53.121  1.00  0.00     0.035 A 
HETATM   14  C12 UNL     1      25.181   0.343  52.956  1.00  0.00     0.029 A 
HETATM   15  C13 UNL     1      25.727  -0.937  52.958  1.00  0.00     0.004 A 
HETATM   16  C14 UNL     1      27.087  -1.089  53.124  1.00  0.00     0.019 A 
HETATM   17  C15 UNL     1      27.946  -0.024  53.291  1.00  0.00     0.013 A 
HETATM   18 BR1  UNL     1      29.828  -0.252  53.521  1.00  0.00    -0.051 Br
HETATM   19  C16 UNL     1      27.392   1.243  53.287  1.00  0.00     0.048 A 
ENDBRANCH  11  13
ENDBRANCH   9  11
BRANCH   1  20
HETATM   20  N1  UNL     1      22.936   6.520  49.534  1.00  0.00    -0.282 N 
HETATM   21  H4  UNL     1      22.048   7.087  49.408  1.00  0.00     0.179 HD
BRANCH  20  22
HETATM   22  S1  UNL     1      24.433   7.259  49.084  1.00  0.00     0.252 S 
HETATM   23  O1  UNL     1      24.488   8.691  49.459  1.00  0.00    -0.201 OA
HETATM   24  O2  UNL     1      24.523   7.214  47.571  1.00  0.00    -0.201 OA
BRANCH  22  25
HETATM   25  C2  UNL     1      25.792   6.378  49.746  1.00  0.00     0.121 C 
HETATM   26  C1  UNL     1      26.525   5.709  48.879  1.00  0.00     0.025 C 
ENDBRANCH  22  25
ENDBRANCH  20  22
ENDBRANCH   1  20
TORSDOF 5
ENDMDL
