MODEL 1
REMARK VINA RESULT:      -7.7      0.000      0.000
REMARK  10 active torsions:
REMARK  status: ('A' for Active; 'I' for Inactive)
REMARK    1  A    between atoms: C2_2  and  O1_3 
REMARK    2  A    between atoms: O1_3  and  C3_4 
REMARK    3  A    between atoms: C3_4  and  C4_5 
REMARK    4  A    between atoms: C4_5  and  C5_6 
REMARK    5  A    between atoms: C5_6  and  C6_7 
REMARK    6  A    between atoms: C6_7  and  O2_8 
REMARK    7  A    between atoms: O2_8  and  C7_9 
REMARK    8  A    between atoms: C7_9  and  C8_10 
REMARK    9  A    between atoms: C12_16  and  N3_17 
REMARK   10  A    between atoms: N3_17  and  C13_18 
ROOT
HETATM    1  C8  UNL     1      24.087  -0.178  53.610  1.00  0.00     0.078 C 
HETATM    2  C9  UNL     1      23.342   0.463  52.706  1.00  0.00     0.067 C 
HETATM    3  C10 UNL     1      21.913   0.271  52.492  1.00  0.00     0.074 A 
HETATM    4  N1  UNL     1      21.523   0.715  51.276  1.00  0.00    -0.241 NA
HETATM    5  C11 UNL     1      20.210   0.603  50.917  1.00  0.00     0.236 A 
HETATM    6  N2  UNL     1      19.307   0.066  51.738  1.00  0.00    -0.224 NA
HETATM    7  C12 UNL     1      19.631  -0.391  52.951  1.00  0.00     0.142 A 
HETATM    8  C19 UNL     1      20.942  -0.277  53.304  1.00  0.00     0.041 A 
HETATM    9  C20 UNL     1      21.204  -0.790  54.641  1.00  0.00     0.042 C 
HETATM   10  C21 UNL     1      22.384  -1.170  55.163  1.00  0.00     0.143 C 
HETATM   11  O3  UNL     1      23.641  -1.154  54.525  1.00  0.00    -0.325 OA
ENDROOT
BRANCH   7  12
HETATM   12  N3  UNL     1      18.637  -0.957  53.785  1.00  0.00    -0.340 N 
HETATM   13  H18 UNL     1      18.445  -0.978  54.803  1.00  0.00     0.167 HD
BRANCH  12  14
HETATM   14  C13 UNL     1      17.554  -1.737  53.300  1.00  0.00     0.035 A 
HETATM   15  C14 UNL     1      16.505  -1.373  52.481  1.00  0.00     0.032 A 
HETATM   16  C15 UNL     1      15.472  -2.177  52.064  1.00  0.00     0.046 A 
HETATM   17  C16 UNL     1      15.469  -3.483  52.502  1.00  0.00     0.138 A 
HETATM   18  F1  UNL     1      14.440  -4.251  52.075  1.00  0.00    -0.204 F 
HETATM   19  C17 UNL     1      16.492  -3.897  53.322  1.00  0.00     0.074 A 
HETATM   20 CL1  UNL     1      16.338  -5.597  53.791  1.00  0.00    -0.081 Cl
HETATM   21  C18 UNL     1      17.519  -3.070  53.726  1.00  0.00     0.056 A 
ENDBRANCH  12  14
ENDBRANCH   7  12
BRANCH   1  22
HETATM   22  C7  UNL     1      25.552   0.174  53.663  1.00  0.00     0.232 C 
BRANCH  22  23
HETATM   23  O2  UNL     1      25.854   0.971  52.597  1.00  0.00    -0.385 OA
BRANCH  23  24
HETATM   24  C6  UNL     1      26.406   2.209  52.889  1.00  0.00     0.168 C 
BRANCH  24  25
HETATM   25  C5  UNL     1      27.867   2.192  52.604  1.00  0.00     0.028 C 
BRANCH  25  26
HETATM   26  C4  UNL     1      28.748   2.418  53.817  1.00  0.00     0.028 C 
BRANCH  26  27
HETATM   27  C3  UNL     1      29.157   1.100  54.369  1.00  0.00     0.167 C 
BRANCH  27  28
HETATM   28  O1  UNL     1      29.952   0.353  53.508  1.00  0.00    -0.391 OA
BRANCH  28  29
HETATM   29  C2  UNL     1      29.948  -0.995  53.754  1.00  0.00     0.163 C 
HETATM   30  C1  UNL     1      28.764  -1.716  53.138  1.00  0.00     0.033 C 
ENDBRANCH  28  29
ENDBRANCH  27  28
ENDBRANCH  26  27
ENDBRANCH  25  26
ENDBRANCH  24  25
ENDBRANCH  23  24
ENDBRANCH  22  23
ENDBRANCH   1  22
TORSDOF 10
ENDMDL
MODEL 2
REMARK VINA RESULT:      -7.5      5.530     10.624
REMARK  10 active torsions:
REMARK  status: ('A' for Active; 'I' for Inactive)
REMARK    1  A    between atoms: C2_2  and  O1_3 
REMARK    2  A    between atoms: O1_3  and  C3_4 
REMARK    3  A    between atoms: C3_4  and  C4_5 
REMARK    4  A    between atoms: C4_5  and  C5_6 
REMARK    5  A    between atoms: C5_6  and  C6_7 
REMARK    6  A    between atoms: C6_7  and  O2_8 
REMARK    7  A    between atoms: O2_8  and  C7_9 
REMARK    8  A    between atoms: C7_9  and  C8_10 
REMARK    9  A    between atoms: C12_16  and  N3_17 
REMARK   10  A    between atoms: N3_17  and  C13_18 
ROOT
HETATM    1  C8  UNL     1      19.214  -0.187  52.328  1.00  0.00     0.078 C 
HETATM    2  C9  UNL     1      19.784  -0.484  53.498  1.00  0.00     0.067 C 
HETATM    3  C10 UNL     1      21.217  -0.548  53.753  1.00  0.00     0.074 A 
HETATM    4  N1  UNL     1      21.500  -1.264  54.865  1.00  0.00    -0.241 NA
HETATM    5  C11 UNL     1      22.802  -1.423  55.241  1.00  0.00     0.236 A 
HETATM    6  N2  UNL     1      23.800  -0.888  54.536  1.00  0.00    -0.224 NA
HETATM    7  C12 UNL     1      23.586  -0.172  53.429  1.00  0.00     0.142 A 
HETATM    8  C19 UNL     1      22.284  -0.016  53.058  1.00  0.00     0.041 A 
HETATM    9  C20 UNL     1      22.142   0.783  51.850  1.00  0.00     0.042 C 
HETATM   10  C21 UNL     1      21.090   0.835  51.013  1.00  0.00     0.143 C 
HETATM   11  O3  UNL     1      19.879   0.121  51.124  1.00  0.00    -0.325 OA
ENDROOT
BRANCH   7  12
HETATM   12  N3  UNL     1      24.680   0.371  52.712  1.00  0.00    -0.340 N 
HETATM   13  H18 UNL     1      24.798   1.066  51.953  1.00  0.00     0.167 HD
BRANCH  12  14
HETATM   14  C13 UNL     1      26.030  -0.009  52.930  1.00  0.00     0.035 A 
HETATM   15  C14 UNL     1      26.655  -1.216  52.690  1.00  0.00     0.032 A 
HETATM   16  C15 UNL     1      27.968  -1.525  52.945  1.00  0.00     0.046 A 
HETATM   17  C16 UNL     1      28.756  -0.539  53.498  1.00  0.00     0.138 A 
HETATM   18  F1  UNL     1      30.044  -0.872  53.738  1.00  0.00    -0.204 F 
HETATM   19  C17 UNL     1      28.182   0.682  53.758  1.00  0.00     0.074 A 
HETATM   20 CL1  UNL     1      29.328   1.832  54.465  1.00  0.00    -0.081 Cl
HETATM   21  C18 UNL     1      26.859   0.969  53.492  1.00  0.00     0.056 A 
ENDBRANCH  12  14
ENDBRANCH   7  12
BRANCH   1  22
HETATM   22  C7  UNL     1      17.706  -0.178  52.284  1.00  0.00     0.232 C 
BRANCH  22  23
HETATM   23  O2  UNL     1      17.301   0.379  51.105  1.00  0.00    -0.385 OA
BRANCH  23  24
HETATM   24  C6  UNL     1      15.951   0.672  50.993  1.00  0.00     0.168 C 
BRANCH  24  25
HETATM   25  C5  UNL     1      15.483   1.379  52.216  1.00  0.00     0.028 C 
BRANCH  25  26
HETATM   26  C4  UNL     1      14.152   0.893  52.755  1.00  0.00     0.028 C 
BRANCH  26  27
HETATM   27  C3  UNL     1      13.405   2.050  53.313  1.00  0.00     0.167 C 
BRANCH  27  28
HETATM   28  O1  UNL     1      13.794   3.276  52.786  1.00  0.00    -0.391 OA
BRANCH  28  29
HETATM   29  C2  UNL     1      12.955   4.317  53.086  1.00  0.00     0.163 C 
HETATM   30  C1  UNL     1      12.242   4.153  54.414  1.00  0.00     0.033 C 
ENDBRANCH  28  29
ENDBRANCH  27  28
ENDBRANCH  26  27
ENDBRANCH  25  26
ENDBRANCH  24  25
ENDBRANCH  23  24
ENDBRANCH  22  23
ENDBRANCH   1  22
TORSDOF 10
ENDMDL
MODEL 3
REMARK VINA RESULT:      -7.4      5.057     10.034
REMARK  10 active torsions:
REMARK  status: ('A' for Active; 'I' for Inactive)
REMARK    1  A    between atoms: C2_2  and  O1_3 
REMARK    2  A    between atoms: O1_3  and  C3_4 
REMARK    3  A    between atoms: C3_4  and  C4_5 
REMARK    4  A    between atoms: C4_5  and  C5_6 
REMARK    5  A    between atoms: C5_6  and  C6_7 
REMARK    6  A    between atoms: C6_7  and  O2_8 
REMARK    7  A    between atoms: O2_8  and  C7_9 
REMARK    8  A    between atoms: C7_9  and  C8_10 
REMARK    9  A    between atoms: C12_16  and  N3_17 
REMARK   10  A    between atoms: N3_17  and  C13_18 
ROOT
HETATM    1  C8  UNL     1      19.628  -0.159  52.491  1.00  0.00     0.078 C 
HETATM    2  C9  UNL     1      20.501   0.381  51.636  1.00  0.00     0.067 C 
HETATM    3  C10 UNL     1      21.921   0.590  51.891  1.00  0.00     0.074 A 
HETATM    4  N1  UNL     1      22.452   1.511  51.054  1.00  0.00    -0.241 NA
HETATM    5  C11 UNL     1      23.775   1.826  51.165  1.00  0.00     0.236 A 
HETATM    6  N2  UNL     1      24.554   1.247  52.080  1.00  0.00    -0.224 NA
HETATM    7  C12 UNL     1      24.089   0.332  52.935  1.00  0.00     0.142 A 
HETATM    8  C19 UNL     1      22.767   0.021  52.819  1.00  0.00     0.041 A 
HETATM    9  C20 UNL     1      22.348  -0.988  53.781  1.00  0.00     0.042 C 
HETATM   10  C21 UNL     1      21.098  -1.263  54.198  1.00  0.00     0.143 C 
HETATM   11  O3  UNL     1      19.907  -0.628  53.791  1.00  0.00    -0.325 OA
ENDROOT
BRANCH   7  12
HETATM   12  N3  UNL     1      24.954  -0.250  53.892  1.00  0.00    -0.340 N 
HETATM   13  H18 UNL     1      24.843  -0.696  54.820  1.00  0.00     0.167 HD
BRANCH  12  14
HETATM   14  C13 UNL     1      26.363  -0.332  53.732  1.00  0.00     0.035 A 
HETATM   15  C14 UNL     1      27.127  -1.329  53.161  1.00  0.00     0.032 A 
HETATM   16  C15 UNL     1      28.496  -1.356  53.057  1.00  0.00     0.046 A 
HETATM   17  C16 UNL     1      29.192  -0.284  53.572  1.00  0.00     0.138 A 
HETATM   18  F1  UNL     1      30.538  -0.338  53.455  1.00  0.00    -0.204 F 
HETATM   19  C17 UNL     1      28.478   0.736  54.154  1.00  0.00     0.074 A 
HETATM   20 CL1  UNL     1      29.520   2.031  54.763  1.00  0.00    -0.081 Cl
HETATM   21  C18 UNL     1      27.102   0.740  54.246  1.00  0.00     0.056 A 
ENDBRANCH  12  14
ENDBRANCH   7  12
BRANCH   1  22
HETATM   22  C7  UNL     1      18.200  -0.283  52.022  1.00  0.00     0.232 C 
BRANCH  22  23
HETATM   23  O2  UNL     1      18.153  -0.046  50.678  1.00  0.00    -0.385 OA
BRANCH  23  24
HETATM   24  C6  UNL     1      16.935  -0.271  50.055  1.00  0.00     0.168 C 
BRANCH  24  25
HETATM   25  C5  UNL     1      15.887  -0.543  51.076  1.00  0.00     0.028 C 
BRANCH  25  26
HETATM   26  C4  UNL     1      14.762  -1.441  50.600  1.00  0.00     0.028 C 
BRANCH  26  27
HETATM   27  C3  UNL     1      14.521  -2.496  51.619  1.00  0.00     0.167 C 
BRANCH  27  28
HETATM   28  O1  UNL     1      15.651  -2.831  52.357  1.00  0.00    -0.391 OA
BRANCH  28  29
HETATM   29  C2  UNL     1      15.578  -4.044  52.990  1.00  0.00     0.163 C 
HETATM   30  C1  UNL     1      16.923  -4.555  53.469  1.00  0.00     0.033 C 
ENDBRANCH  28  29
ENDBRANCH  27  28
ENDBRANCH  26  27
ENDBRANCH  25  26
ENDBRANCH  24  25
ENDBRANCH  23  24
ENDBRANCH  22  23
ENDBRANCH   1  22
TORSDOF 10
ENDMDL
MODEL 4
REMARK VINA RESULT:      -7.4      7.290     10.941
REMARK  10 active torsions:
REMARK  status: ('A' for Active; 'I' for Inactive)
REMARK    1  A    between atoms: C2_2  and  O1_3 
REMARK    2  A    between atoms: O1_3  and  C3_4 
REMARK    3  A    between atoms: C3_4  and  C4_5 
REMARK    4  A    between atoms: C4_5  and  C5_6 
REMARK    5  A    between atoms: C5_6  and  C6_7 
REMARK    6  A    between atoms: C6_7  and  O2_8 
REMARK    7  A    between atoms: O2_8  and  C7_9 
REMARK    8  A    between atoms: C7_9  and  C8_10 
REMARK    9  A    between atoms: C12_16  and  N3_17 
REMARK   10  A    between atoms: N3_17  and  C13_18 
ROOT
HETATM    1  C8  UNL     1      24.522   3.160  51.855  1.00  0.00     0.078 C 
HETATM    2  C9  UNL     1      23.971   4.342  51.568  1.00  0.00     0.067 C 
HETATM    3  C10 UNL     1      24.572   5.379  50.739  1.00  0.00     0.074 A 
HETATM    4  N1  UNL     1      24.010   6.589  50.962  1.00  0.00    -0.241 NA
HETATM    5  C11 UNL     1      24.464   7.672  50.266  1.00  0.00     0.236 A 
HETATM    6  N2  UNL     1      25.449   7.562  49.372  1.00  0.00    -0.224 NA
HETATM    7  C12 UNL     1      26.043   6.395  49.108  1.00  0.00     0.142 A 
HETATM    8  C19 UNL     1      25.586   5.318  49.806  1.00  0.00     0.041 A 
HETATM    9  C20 UNL     1      26.282   4.090  49.450  1.00  0.00     0.042 C 
HETATM   10  C21 UNL     1      26.359   2.949  50.160  1.00  0.00     0.143 C 
HETATM   11  O3  UNL     1      25.777   2.689  51.417  1.00  0.00    -0.325 OA
ENDROOT
BRANCH   7  12
HETATM   12  N3  UNL     1      27.087   6.331  48.154  1.00  0.00    -0.340 N 
HETATM   13  H18 UNL     1      27.184   5.988  47.181  1.00  0.00     0.167 HD
BRANCH  12  14
HETATM   14  C13 UNL     1      28.409   6.786  48.401  1.00  0.00     0.035 A 
HETATM   15  C14 UNL     1      28.862   8.058  48.692  1.00  0.00     0.032 A 
HETATM   16  C15 UNL     1      30.165   8.436  48.901  1.00  0.00     0.046 A 
HETATM   17  C16 UNL     1      31.131   7.458  48.814  1.00  0.00     0.138 A 
HETATM   18  F1  UNL     1      32.405   7.861  49.024  1.00  0.00    -0.204 F 
HETATM   19  C17 UNL     1      30.734   6.175  48.525  1.00  0.00     0.074 A 
HETATM   20 CL1  UNL     1      32.095   5.045  48.450  1.00  0.00    -0.081 Cl
HETATM   21  C18 UNL     1      29.417   5.819  48.320  1.00  0.00     0.056 A 
ENDBRANCH  12  14
ENDBRANCH   7  12
BRANCH   1  22
HETATM   22  C7  UNL     1      23.725   2.230  52.736  1.00  0.00     0.232 C 
BRANCH  22  23
HETATM   23  O2  UNL     1      23.772   0.972  52.208  1.00  0.00    -0.385 OA
BRANCH  23  24
HETATM   24  C6  UNL     1      23.768  -0.077  53.114  1.00  0.00     0.168 C 
BRANCH  24  25
HETATM   25  C5  UNL     1      25.135  -0.274  53.669  1.00  0.00     0.028 C 
BRANCH  25  26
HETATM   26  C4  UNL     1      26.142  -0.830  52.681  1.00  0.00     0.028 C 
BRANCH  26  27
HETATM   27  C3  UNL     1      27.431  -0.109  52.848  1.00  0.00     0.167 C 
BRANCH  27  28
HETATM   28  O1  UNL     1      27.697   0.269  54.159  1.00  0.00    -0.391 OA
BRANCH  28  29
HETATM   29  C2  UNL     1      28.997   0.092  54.551  1.00  0.00     0.163 C 
HETATM   30  C1  UNL     1      29.767  -0.872  53.667  1.00  0.00     0.033 C 
ENDBRANCH  28  29
ENDBRANCH  27  28
ENDBRANCH  26  27
ENDBRANCH  25  26
ENDBRANCH  24  25
ENDBRANCH  23  24
ENDBRANCH  22  23
ENDBRANCH   1  22
TORSDOF 10
ENDMDL
MODEL 5
REMARK VINA RESULT:      -7.3      6.376      8.915
REMARK  10 active torsions:
REMARK  status: ('A' for Active; 'I' for Inactive)
REMARK    1  A    between atoms: C2_2  and  O1_3 
REMARK    2  A    between atoms: O1_3  and  C3_4 
REMARK    3  A    between atoms: C3_4  and  C4_5 
REMARK    4  A    between atoms: C4_5  and  C5_6 
REMARK    5  A    between atoms: C5_6  and  C6_7 
REMARK    6  A    between atoms: C6_7  and  O2_8 
REMARK    7  A    between atoms: O2_8  and  C7_9 
REMARK    8  A    between atoms: C7_9  and  C8_10 
REMARK    9  A    between atoms: C12_16  and  N3_17 
REMARK   10  A    between atoms: N3_17  and  C13_18 
ROOT
HETATM    1  C8  UNL     1      27.388   7.592  48.872  1.00  0.00     0.078 C 
HETATM    2  C9  UNL     1      26.414   7.681  49.780  1.00  0.00     0.067 C 
HETATM    3  C10 UNL     1      25.489   6.613  50.141  1.00  0.00     0.074 A 
HETATM    4  N1  UNL     1      24.379   7.093  50.748  1.00  0.00    -0.241 NA
HETATM    5  C11 UNL     1      23.409   6.220  51.146  1.00  0.00     0.236 A 
HETATM    6  N2  UNL     1      23.531   4.906  50.949  1.00  0.00    -0.224 NA
HETATM    7  C12 UNL     1      24.601   4.372  50.355  1.00  0.00     0.142 A 
HETATM    8  C19 UNL     1      25.568   5.248  49.960  1.00  0.00     0.041 A 
HETATM    9  C20 UNL     1      26.699   4.582  49.332  1.00  0.00     0.042 C 
HETATM   10  C21 UNL     1      27.627   5.119  48.520  1.00  0.00     0.143 C 
HETATM   11  O3  UNL     1      27.711   6.461  48.094  1.00  0.00    -0.325 OA
ENDROOT
BRANCH   7  12
HETATM   12  N3  UNL     1      24.682   2.972  50.165  1.00  0.00    -0.340 N 
HETATM   13  H18 UNL     1      24.683   2.332  49.349  1.00  0.00     0.167 HD
BRANCH  12  14
HETATM   14  C13 UNL     1      24.781   2.037  51.228  1.00  0.00     0.035 A 
HETATM   15  C14 UNL     1      23.785   1.483  52.008  1.00  0.00     0.032 A 
HETATM   16  C15 UNL     1      23.952   0.594  53.042  1.00  0.00     0.046 A 
HETATM   17  C16 UNL     1      25.239   0.207  53.343  1.00  0.00     0.138 A 
HETATM   18  F1  UNL     1      25.372  -0.669  54.365  1.00  0.00    -0.204 F 
HETATM   19  C17 UNL     1      26.268   0.730  52.598  1.00  0.00     0.074 A 
HETATM   20 CL1  UNL     1      27.852   0.132  53.114  1.00  0.00    -0.081 Cl
HETATM   21  C18 UNL     1      26.075   1.622  51.563  1.00  0.00     0.056 A 
ENDBRANCH  12  14
ENDBRANCH   7  12
BRANCH   1  22
HETATM   22  C7  UNL     1      28.233   8.821  48.653  1.00  0.00     0.232 C 
BRANCH  22  23
HETATM   23  O2  UNL     1      29.432   8.653  49.286  1.00  0.00    -0.385 OA
BRANCH  23  24
HETATM   24  C6  UNL     1      30.525   8.391  48.476  1.00  0.00     0.168 C 
BRANCH  24  25
HETATM   25  C5  UNL     1      31.507   7.545  49.208  1.00  0.00     0.028 C 
BRANCH  25  26
HETATM   26  C4  UNL     1      31.226   6.057  49.145  1.00  0.00     0.028 C 
BRANCH  26  27
HETATM   27  C3  UNL     1      32.352   5.381  48.447  1.00  0.00     0.167 C 
BRANCH  27  28
HETATM   28  O1  UNL     1      32.148   4.022  48.239  1.00  0.00    -0.391 OA
BRANCH  28  29
HETATM   29  C2  UNL     1      32.623   3.552  47.043  1.00  0.00     0.163 C 
HETATM   30  C1  UNL     1      32.812   2.046  47.020  1.00  0.00     0.033 C 
ENDBRANCH  28  29
ENDBRANCH  27  28
ENDBRANCH  26  27
ENDBRANCH  25  26
ENDBRANCH  24  25
ENDBRANCH  23  24
ENDBRANCH  22  23
ENDBRANCH   1  22
TORSDOF 10
ENDMDL
MODEL 6
REMARK VINA RESULT:      -7.3      6.321      9.297
REMARK  10 active torsions:
REMARK  status: ('A' for Active; 'I' for Inactive)
REMARK    1  A    between atoms: C2_2  and  O1_3 
REMARK    2  A    between atoms: O1_3  and  C3_4 
REMARK    3  A    between atoms: C3_4  and  C4_5 
REMARK    4  A    between atoms: C4_5  and  C5_6 
REMARK    5  A    between atoms: C5_6  and  C6_7 
REMARK    6  A    between atoms: C6_7  and  O2_8 
REMARK    7  A    between atoms: O2_8  and  C7_9 
REMARK    8  A    between atoms: C7_9  and  C8_10 
REMARK    9  A    between atoms: C12_16  and  N3_17 
REMARK   10  A    between atoms: N3_17  and  C13_18 
ROOT
HETATM    1  C8  UNL     1      22.421   1.256  51.978  1.00  0.00     0.078 C 
HETATM    2  C9  UNL     1      22.299   1.298  50.649  1.00  0.00     0.067 C 
HETATM    3  C10 UNL     1      22.632   2.436  49.801  1.00  0.00     0.074 A 
HETATM    4  N1  UNL     1      22.029   2.357  48.593  1.00  0.00    -0.241 NA
HETATM    5  C11 UNL     1      22.235   3.350  47.680  1.00  0.00     0.236 A 
HETATM    6  N2  UNL     1      23.016   4.396  47.954  1.00  0.00    -0.224 NA
HETATM    7  C12 UNL     1      23.639   4.531  49.128  1.00  0.00     0.142 A 
HETATM    8  C19 UNL     1      23.430   3.536  50.036  1.00  0.00     0.041 A 
HETATM    9  C20 UNL     1      24.151   3.759  51.280  1.00  0.00     0.042 C 
HETATM   10  C21 UNL     1      23.908   3.212  52.485  1.00  0.00     0.143 C 
HETATM   11  O3  UNL     1      22.891   2.292  52.812  1.00  0.00    -0.325 OA
ENDROOT
BRANCH   7  12
HETATM   12  N3  UNL     1      24.455   5.662  49.372  1.00  0.00    -0.340 N 
HETATM   13  H18 UNL     1      24.339   6.571  49.857  1.00  0.00     0.167 HD
BRANCH  12  14
HETATM   14  C13 UNL     1      25.793   5.781  48.914  1.00  0.00     0.035 A 
HETATM   15  C14 UNL     1      26.834   4.877  48.991  1.00  0.00     0.032 A 
HETATM   16  C15 UNL     1      28.118   5.064  48.543  1.00  0.00     0.046 A 
HETATM   17  C16 UNL     1      28.414   6.274  47.954  1.00  0.00     0.138 A 
HETATM   18  F1  UNL     1      29.687   6.429  47.523  1.00  0.00    -0.204 F 
HETATM   19  C17 UNL     1      27.414   7.211  47.854  1.00  0.00     0.074 A 
HETATM   20 CL1  UNL     1      27.960   8.704  47.075  1.00  0.00    -0.081 Cl
HETATM   21  C18 UNL     1      26.130   6.998  48.311  1.00  0.00     0.056 A 
ENDBRANCH  12  14
ENDBRANCH   7  12
BRANCH   1  22
HETATM   22  C7  UNL     1      22.018  -0.026  52.662  1.00  0.00     0.232 C 
BRANCH  22  23
HETATM   23  O2  UNL     1      23.131  -0.793  52.855  1.00  0.00    -0.385 OA
BRANCH  23  24
HETATM   24  C6  UNL     1      23.724  -0.714  54.105  1.00  0.00     0.168 C 
BRANCH  24  25
HETATM   25  C5  UNL     1      25.108  -0.181  53.977  1.00  0.00     0.028 C 
BRANCH  25  26
HETATM   26  C4  UNL     1      25.998  -0.959  53.028  1.00  0.00     0.028 C 
BRANCH  26  27
HETATM   27  C3  UNL     1      27.213  -0.154  52.735  1.00  0.00     0.167 C 
BRANCH  27  28
HETATM   28  O1  UNL     1      27.736   0.496  53.847  1.00  0.00    -0.391 OA
BRANCH  28  29
HETATM   29  C2  UNL     1      28.763  -0.168  54.464  1.00  0.00     0.163 C 
HETATM   30  C1  UNL     1      29.816  -0.680  53.498  1.00  0.00     0.033 C 
ENDBRANCH  28  29
ENDBRANCH  27  28
ENDBRANCH  26  27
ENDBRANCH  25  26
ENDBRANCH  24  25
ENDBRANCH  23  24
ENDBRANCH  22  23
ENDBRANCH   1  22
TORSDOF 10
ENDMDL
MODEL 7
REMARK VINA RESULT:      -7.3      5.475     10.373
REMARK  10 active torsions:
REMARK  status: ('A' for Active; 'I' for Inactive)
REMARK    1  A    between atoms: C2_2  and  O1_3 
REMARK    2  A    between atoms: O1_3  and  C3_4 
REMARK    3  A    between atoms: C3_4  and  C4_5 
REMARK    4  A    between atoms: C4_5  and  C5_6 
REMARK    5  A    between atoms: C5_6  and  C6_7 
REMARK    6  A    between atoms: C6_7  and  O2_8 
REMARK    7  A    between atoms: O2_8  and  C7_9 
REMARK    8  A    between atoms: C7_9  and  C8_10 
REMARK    9  A    between atoms: C12_16  and  N3_17 
REMARK   10  A    between atoms: N3_17  and  C13_18 
ROOT
HETATM    1  C8  UNL     1      19.333  -0.215  52.438  1.00  0.00     0.078 C 
HETATM    2  C9  UNL     1      20.202   0.270  51.549  1.00  0.00     0.067 C 
HETATM    3  C10 UNL     1      21.616   0.525  51.796  1.00  0.00     0.074 A 
HETATM    4  N1  UNL     1      22.138   1.385  50.891  1.00  0.00    -0.241 NA
HETATM    5  C11 UNL     1      23.454   1.732  50.985  1.00  0.00     0.236 A 
HETATM    6  N2  UNL     1      24.236   1.242  51.949  1.00  0.00    -0.224 NA
HETATM    7  C12 UNL     1      23.780   0.391  52.871  1.00  0.00     0.142 A 
HETATM    8  C19 UNL     1      22.465   0.047  52.772  1.00  0.00     0.041 A 
HETATM    9  C20 UNL     1      22.055  -0.889  53.809  1.00  0.00     0.042 C 
HETATM   10  C21 UNL     1      20.807  -1.152  54.239  1.00  0.00     0.143 C 
HETATM   11  O3  UNL     1      19.608  -0.574  53.773  1.00  0.00    -0.325 OA
ENDROOT
BRANCH   7  12
HETATM   12  N3  UNL     1      24.648  -0.097  53.878  1.00  0.00    -0.340 N 
HETATM   13  H18 UNL     1      24.551  -0.376  54.871  1.00  0.00     0.167 HD
BRANCH  12  14
HETATM   14  C13 UNL     1      26.036  -0.319  53.681  1.00  0.00     0.035 A 
HETATM   15  C14 UNL     1      26.682  -1.388  53.093  1.00  0.00     0.032 A 
HETATM   16  C15 UNL     1      28.038  -1.550  52.952  1.00  0.00     0.046 A 
HETATM   17  C16 UNL     1      28.851  -0.551  53.443  1.00  0.00     0.138 A 
HETATM   18  F1  UNL     1      30.181  -0.739  53.290  1.00  0.00    -0.204 F 
HETATM   19  C17 UNL     1      28.257   0.535  54.040  1.00  0.00     0.074 A 
HETATM   20 CL1  UNL     1      29.439   1.722  54.614  1.00  0.00    -0.081 Cl
HETATM   21  C18 UNL     1      26.891   0.675  54.169  1.00  0.00     0.056 A 
ENDBRANCH  12  14
ENDBRANCH   7  12
BRANCH   1  22
HETATM   22  C7  UNL     1      17.911  -0.403  51.972  1.00  0.00     0.232 C 
BRANCH  22  23
HETATM   23  O2  UNL     1      17.693   0.395  50.885  1.00  0.00    -0.385 OA
BRANCH  23  24
HETATM   24  C6  UNL     1      16.388   0.818  50.683  1.00  0.00     0.168 C 
BRANCH  24  25
HETATM   25  C5  UNL     1      16.193   2.165  51.284  1.00  0.00     0.028 C 
BRANCH  25  26
HETATM   26  C4  UNL     1      14.752   2.633  51.328  1.00  0.00     0.028 C 
BRANCH  26  27
HETATM   27  C3  UNL     1      14.446   3.125  52.698  1.00  0.00     0.167 C 
BRANCH  27  28
HETATM   28  O1  UNL     1      13.655   2.257  53.442  1.00  0.00    -0.391 OA
BRANCH  28  29
HETATM   29  C2  UNL     1      12.432   2.762  53.795  1.00  0.00     0.163 C 
HETATM   30  C1  UNL     1      12.499   4.174  54.347  1.00  0.00     0.033 C 
ENDBRANCH  28  29
ENDBRANCH  27  28
ENDBRANCH  26  27
ENDBRANCH  25  26
ENDBRANCH  24  25
ENDBRANCH  23  24
ENDBRANCH  22  23
ENDBRANCH   1  22
TORSDOF 10
ENDMDL
MODEL 8
REMARK VINA RESULT:      -7.1      4.874     10.107
REMARK  10 active torsions:
REMARK  status: ('A' for Active; 'I' for Inactive)
REMARK    1  A    between atoms: C2_2  and  O1_3 
REMARK    2  A    between atoms: O1_3  and  C3_4 
REMARK    3  A    between atoms: C3_4  and  C4_5 
REMARK    4  A    between atoms: C4_5  and  C5_6 
REMARK    5  A    between atoms: C5_6  and  C6_7 
REMARK    6  A    between atoms: C6_7  and  O2_8 
REMARK    7  A    between atoms: O2_8  and  C7_9 
REMARK    8  A    between atoms: C7_9  and  C8_10 
REMARK    9  A    between atoms: C12_16  and  N3_17 
REMARK   10  A    between atoms: N3_17  and  C13_18 
ROOT
HETATM    1  C8  UNL     1      19.340  -0.176  52.703  1.00  0.00     0.078 C 
HETATM    2  C9  UNL     1      19.982   0.104  51.566  1.00  0.00     0.067 C 
HETATM    3  C10 UNL     1      21.285   0.748  51.464  1.00  0.00     0.074 A 
HETATM    4  N1  UNL     1      21.490   1.276  50.236  1.00  0.00    -0.241 NA
HETATM    5  C11 UNL     1      22.665   1.921  49.976  1.00  0.00     0.236 A 
HETATM    6  N2  UNL     1      23.613   2.041  50.907  1.00  0.00    -0.224 NA
HETATM    7  C12 UNL     1      23.470   1.541  52.137  1.00  0.00     0.142 A 
HETATM    8  C19 UNL     1      22.296   0.898  52.391  1.00  0.00     0.041 A 
HETATM    9  C20 UNL     1      22.228   0.379  53.749  1.00  0.00     0.042 C 
HETATM   10  C21 UNL     1      21.132   0.031  54.447  1.00  0.00     0.143 C 
HETATM   11  O3  UNL     1      19.792   0.092  54.011  1.00  0.00    -0.325 OA
ENDROOT
BRANCH   7  12
HETATM   12  N3  UNL     1      24.504   1.698  53.092  1.00  0.00    -0.340 N 
HETATM   13  H18 UNL     1      24.680   2.321  53.901  1.00  0.00     0.167 HD
BRANCH  12  14
HETATM   14  C13 UNL     1      25.686   0.911  53.109  1.00  0.00     0.035 A 
HETATM   15  C14 UNL     1      25.891  -0.378  52.661  1.00  0.00     0.032 A 
HETATM   16  C15 UNL     1      27.062  -1.093  52.727  1.00  0.00     0.046 A 
HETATM   17  C16 UNL     1      28.152  -0.473  53.298  1.00  0.00     0.138 A 
HETATM   18  F1  UNL     1      29.290  -1.201  53.349  1.00  0.00    -0.204 F 
HETATM   19  C17 UNL     1      28.000   0.812  53.762  1.00  0.00     0.074 A 
HETATM   20 CL1  UNL     1      29.491   1.459  54.464  1.00  0.00    -0.081 Cl
HETATM   21  C18 UNL     1      26.813   1.509  53.684  1.00  0.00     0.056 A 
ENDBRANCH  12  14
ENDBRANCH   7  12
BRANCH   1  22
HETATM   22  C7  UNL     1      17.995  -0.848  52.581  1.00  0.00     0.232 C 
BRANCH  22  23
HETATM   23  O2  UNL     1      18.049  -2.061  53.207  1.00  0.00    -0.385 OA
BRANCH  23  24
HETATM   24  C6  UNL     1      16.883  -2.811  53.198  1.00  0.00     0.168 C 
BRANCH  24  25
HETATM   25  C5  UNL     1      17.158  -4.181  53.709  1.00  0.00     0.028 C 
BRANCH  25  26
HETATM   26  C4  UNL     1      15.921  -5.017  53.971  1.00  0.00     0.028 C 
BRANCH  26  27
HETATM   27  C3  UNL     1      14.841  -4.585  53.045  1.00  0.00     0.167 C 
BRANCH  27  28
HETATM   28  O1  UNL     1      14.841  -5.261  51.830  1.00  0.00    -0.391 OA
BRANCH  28  29
HETATM   29  C2  UNL     1      14.395  -4.521  50.766  1.00  0.00     0.163 C 
HETATM   30  C1  UNL     1      13.797  -3.187  51.169  1.00  0.00     0.033 C 
ENDBRANCH  28  29
ENDBRANCH  27  28
ENDBRANCH  26  27
ENDBRANCH  25  26
ENDBRANCH  24  25
ENDBRANCH  23  24
ENDBRANCH  22  23
ENDBRANCH   1  22
TORSDOF 10
ENDMDL
MODEL 9
REMARK VINA RESULT:      -7.0      5.149      7.013
REMARK  10 active torsions:
REMARK  status: ('A' for Active; 'I' for Inactive)
REMARK    1  A    between atoms: C2_2  and  O1_3 
REMARK    2  A    between atoms: O1_3  and  C3_4 
REMARK    3  A    between atoms: C3_4  and  C4_5 
REMARK    4  A    between atoms: C4_5  and  C5_6 
REMARK    5  A    between atoms: C5_6  and  C6_7 
REMARK    6  A    between atoms: C6_7  and  O2_8 
REMARK    7  A    between atoms: O2_8  and  C7_9 
REMARK    8  A    between atoms: C7_9  and  C8_10 
REMARK    9  A    between atoms: C12_16  and  N3_17 
REMARK   10  A    between atoms: N3_17  and  C13_18 
ROOT
HETATM    1  C8  UNL     1      26.253   4.728  49.653  1.00  0.00     0.078 C 
HETATM    2  C9  UNL     1      26.543   3.448  49.900  1.00  0.00     0.067 C 
HETATM    3  C10 UNL     1      25.883   2.604  50.888  1.00  0.00     0.074 A 
HETATM    4  N1  UNL     1      26.636   1.528  51.212  1.00  0.00    -0.241 NA
HETATM    5  C11 UNL     1      26.162   0.636  52.131  1.00  0.00     0.236 A 
HETATM    6  N2  UNL     1      24.974   0.804  52.714  1.00  0.00    -0.224 NA
HETATM    7  C12 UNL     1      24.185   1.846  52.437  1.00  0.00     0.142 A 
HETATM    8  C19 UNL     1      24.664   2.732  51.519  1.00  0.00     0.041 A 
HETATM    9  C20 UNL     1      23.739   3.828  51.271  1.00  0.00     0.042 C 
HETATM   10  C21 UNL     1      24.010   5.033  50.735  1.00  0.00     0.143 C 
HETATM   11  O3  UNL     1      25.263   5.503  50.291  1.00  0.00    -0.325 OA
ENDROOT
BRANCH   7  12
HETATM   12  N3  UNL     1      22.935   1.982  53.086  1.00  0.00    -0.340 N 
HETATM   13  H18 UNL     1      22.387   2.766  53.485  1.00  0.00     0.167 HD
BRANCH  12  14
HETATM   14  C13 UNL     1      22.069   0.892  53.365  1.00  0.00     0.035 A 
HETATM   15  C14 UNL     1      22.250  -0.179  54.217  1.00  0.00     0.032 A 
HETATM   16  C15 UNL     1      21.376  -1.218  54.425  1.00  0.00     0.046 A 
HETATM   17  C16 UNL     1      20.193  -1.202  53.719  1.00  0.00     0.138 A 
HETATM   18  F1  UNL     1      19.352  -2.237  53.946  1.00  0.00    -0.204 F 
HETATM   19  C17 UNL     1      19.964  -0.157  52.856  1.00  0.00     0.074 A 
HETATM   20 CL1  UNL     1      18.403  -0.290  52.031  1.00  0.00    -0.081 Cl
HETATM   21  C18 UNL     1      20.858   0.875  52.664  1.00  0.00     0.056 A 
ENDBRANCH  12  14
ENDBRANCH   7  12
BRANCH   1  22
HETATM   22  C7  UNL     1      27.062   5.418  48.584  1.00  0.00     0.232 C 
BRANCH  22  23
HETATM   23  O2  UNL     1      28.291   4.828  48.508  1.00  0.00    -0.385 OA
BRANCH  23  24
HETATM   24  C6  UNL     1      29.364   5.669  48.259  1.00  0.00     0.168 C 
BRANCH  24  25
HETATM   25  C5  UNL     1      28.872   7.005  47.828  1.00  0.00     0.028 C 
BRANCH  25  26
HETATM   26  C4  UNL     1      29.650   7.626  46.685  1.00  0.00     0.028 C 
BRANCH  26  27
HETATM   27  C3  UNL     1      30.099   8.985  47.088  1.00  0.00     0.167 C 
BRANCH  27  28
HETATM   28  O1  UNL     1      31.021   8.986  48.129  1.00  0.00    -0.391 OA
BRANCH  28  29
HETATM   29  C2  UNL     1      32.257   8.500  47.795  1.00  0.00     0.163 C 
HETATM   30  C1  UNL     1      32.810   7.513  48.806  1.00  0.00     0.033 C 
ENDBRANCH  28  29
ENDBRANCH  27  28
ENDBRANCH  26  27
ENDBRANCH  25  26
ENDBRANCH  24  25
ENDBRANCH  23  24
ENDBRANCH  22  23
ENDBRANCH   1  22
TORSDOF 10
ENDMDL
