MODEL 1
REMARK VINA RESULT:      -6.9      0.000      0.000
REMARK  2 active torsions:
REMARK  status: ('A' for Active; 'I' for Inactive)
REMARK    1  A    between atoms: S1_2  and  C2_5 
REMARK    2  A    between atoms: C12_17  and  C13_18 
ROOT
HETATM    1  C2  UNL     1      23.481   3.451  50.729  1.00  0.00     0.133 C 
HETATM    2  C3  UNL     1      24.871   3.374  50.471  1.00  0.00     0.134 C 
HETATM    3  N1  UNL     1      25.952   3.226  51.373  1.00  0.00    -0.418 N 
HETATM    4  C4  UNL     1      26.023   1.965  51.967  1.00  0.00     0.140 C 
HETATM    5  C5  UNL     1      27.155   1.515  52.857  1.00  0.00     0.187 C 
HETATM    6  O3  UNL     1      26.955   0.228  53.154  1.00  0.00    -0.386 OA
HETATM    7  C6  UNL     1      26.030  -0.428  53.827  1.00  0.00     0.195 C 
HETATM    8  C7  UNL     1      24.623  -0.114  53.531  1.00  0.00     0.001 C 
HETATM    9  C8  UNL     1      23.355   0.224  53.528  1.00  0.00     0.029 C 
HETATM   10  C9  UNL     1      22.399   0.276  52.446  1.00  0.00     0.052 C 
HETATM   11  C10 UNL     1      22.483   1.625  52.201  1.00  0.00     0.011 C 
HETATM   12  C11 UNL     1      22.463   2.512  51.055  1.00  0.00     0.040 C 
HETATM   13  C12 UNL     1      22.059   1.522  49.949  1.00  0.00     0.049 C 
HETATM   14  C14 UNL     1      20.963   0.710  50.655  1.00  0.00     0.096 C 
HETATM   15  N2  UNL     1      21.492  -0.156  51.500  1.00  0.00    -0.265 NA
HETATM   16  H7  UNL     1      26.843   3.628  51.077  1.00  0.00     0.153 HD
ENDROOT
BRANCH   1  17
HETATM   17  S1  UNL     1      23.277   4.895  51.845  1.00  0.00     0.147 S 
HETATM   18  C1  UNL     1      24.069   6.319  51.138  1.00  0.00     0.161 C 
HETATM   19  O1  UNL     1      21.800   5.158  51.877  1.00  0.00    -0.228 OA
HETATM   20  O2  UNL     1      23.845   4.559  53.178  1.00  0.00    -0.228 OA
ENDBRANCH   1  17
BRANCH  13  21
HETATM   21  C13 UNL     1      21.393   2.285  48.845  1.00  0.00     0.125 C 
HETATM   22 CL1  UNL     1      22.426   2.340  47.376  1.00  0.00    -0.130 Cl
ENDBRANCH  13  21
TORSDOF 2
ENDMDL
MODEL 2
REMARK VINA RESULT:      -6.7      2.683      4.808
REMARK  2 active torsions:
REMARK  status: ('A' for Active; 'I' for Inactive)
REMARK    1  A    between atoms: S1_2  and  C2_5 
REMARK    2  A    between atoms: C12_17  and  C13_18 
ROOT
HETATM    1  C2  UNL     1      23.654   1.590  53.133  1.00  0.00     0.133 C 
HETATM    2  C3  UNL     1      24.036   2.951  53.201  1.00  0.00     0.134 C 
HETATM    3  N1  UNL     1      24.739   3.742  52.261  1.00  0.00    -0.418 N 
HETATM    4  C4  UNL     1      24.006   4.038  51.111  1.00  0.00     0.140 C 
HETATM    5  C5  UNL     1      24.480   4.971  50.026  1.00  0.00     0.187 C 
HETATM    6  O3  UNL     1      23.488   5.107  49.141  1.00  0.00    -0.386 OA
HETATM    7  C6  UNL     1      22.879   4.285  48.309  1.00  0.00     0.195 C 
HETATM    8  C7  UNL     1      22.441   2.984  48.838  1.00  0.00     0.001 C 
HETATM    9  C8  UNL     1      22.205   1.723  49.115  1.00  0.00     0.029 C 
HETATM   10  C9  UNL     1      21.397   1.125  50.150  1.00  0.00     0.052 C 
HETATM   11  C10 UNL     1      22.414   0.850  51.032  1.00  0.00     0.011 C 
HETATM   12  C11 UNL     1      22.627   0.864  52.465  1.00  0.00     0.040 C 
HETATM   13  C12 UNL     1      21.188   1.097  52.955  1.00  0.00     0.049 C 
HETATM   14  C14 UNL     1      20.398   0.159  52.030  1.00  0.00     0.096 C 
HETATM   15  N2  UNL     1      20.275   0.684  50.824  1.00  0.00    -0.265 NA
HETATM   16  H7  UNL     1      25.293   4.510  52.644  1.00  0.00     0.153 HD
ENDROOT
BRANCH   1  17
HETATM   17  S1  UNL     1      25.220   0.658  52.913  1.00  0.00     0.147 S 
HETATM   18  C1  UNL     1      26.341   1.044  54.236  1.00  0.00     0.161 C 
HETATM   19  O1  UNL     1      24.837  -0.786  53.040  1.00  0.00    -0.228 OA
HETATM   20  O2  UNL     1      25.803   0.999  51.587  1.00  0.00    -0.228 OA
ENDBRANCH   1  17
BRANCH  13  21
HETATM   21  C13 UNL     1      21.061   0.549  54.343  1.00  0.00     0.125 C 
HETATM   22 CL1  UNL     1      21.566  -1.174  54.412  1.00  0.00    -0.130 Cl
ENDBRANCH  13  21
TORSDOF 2
ENDMDL
MODEL 3
REMARK VINA RESULT:      -6.7      2.865      4.788
REMARK  2 active torsions:
REMARK  status: ('A' for Active; 'I' for Inactive)
REMARK    1  A    between atoms: S1_2  and  C2_5 
REMARK    2  A    between atoms: C12_17  and  C13_18 
ROOT
HETATM    1  C2  UNL     1      24.572   3.494  51.768  1.00  0.00     0.133 C 
HETATM    2  C3  UNL     1      23.675   4.534  52.113  1.00  0.00     0.134 C 
HETATM    3  N1  UNL     1      22.402   4.846  51.579  1.00  0.00    -0.418 N 
HETATM    4  C4  UNL     1      21.410   3.922  51.910  1.00  0.00     0.140 C 
HETATM    5  C5  UNL     1      19.950   4.100  51.577  1.00  0.00     0.187 C 
HETATM    6  O3  UNL     1      19.278   3.089  52.136  1.00  0.00    -0.386 OA
HETATM    7  C6  UNL     1      19.265   1.782  51.958  1.00  0.00     0.195 C 
HETATM    8  C7  UNL     1      20.563   1.092  51.895  1.00  0.00     0.001 C 
HETATM    9  C8  UNL     1      21.634   0.396  51.599  1.00  0.00     0.029 C 
HETATM   10  C9  UNL     1      22.855   0.189  52.342  1.00  0.00     0.052 C 
HETATM   11  C10 UNL     1      23.617   1.133  51.695  1.00  0.00     0.011 C 
HETATM   12  C11 UNL     1      24.644   2.097  52.031  1.00  0.00     0.040 C 
HETATM   13  C12 UNL     1      24.946   1.684  53.482  1.00  0.00     0.049 C 
HETATM   14  C14 UNL     1      24.956   0.153  53.364  1.00  0.00     0.096 C 
HETATM   15  N2  UNL     1      23.725  -0.320  53.285  1.00  0.00    -0.265 NA
HETATM   16  H7  UNL     1      22.126   5.829  51.620  1.00  0.00     0.153 HD
ENDROOT
BRANCH   1  17
HETATM   17  S1  UNL     1      24.931   3.739  49.984  1.00  0.00     0.147 S 
HETATM   18  C1  UNL     1      25.424   5.420  49.694  1.00  0.00     0.161 C 
HETATM   19  O1  UNL     1      26.112   2.858  49.699  1.00  0.00    -0.228 OA
HETATM   20  O2  UNL     1      23.723   3.379  49.195  1.00  0.00    -0.228 OA
ENDBRANCH   1  17
BRANCH  13  21
HETATM   21  C13 UNL     1      26.344   2.105  53.817  1.00  0.00     0.125 C 
HETATM   22 CL1  UNL     1      27.536   1.347  52.707  1.00  0.00    -0.130 Cl
ENDBRANCH  13  21
TORSDOF 2
ENDMDL
MODEL 4
REMARK VINA RESULT:      -6.6      1.920      2.329
REMARK  2 active torsions:
REMARK  status: ('A' for Active; 'I' for Inactive)
REMARK    1  A    between atoms: S1_2  and  C2_5 
REMARK    2  A    between atoms: C12_17  and  C13_18 
ROOT
HETATM    1  C2  UNL     1      23.240   2.082  51.216  1.00  0.00     0.133 C 
HETATM    2  C3  UNL     1      24.470   1.399  51.369  1.00  0.00     0.134 C 
HETATM    3  N1  UNL     1      25.205   1.111  52.544  1.00  0.00    -0.418 N 
HETATM    4  C4  UNL     1      24.607   0.153  53.363  1.00  0.00     0.140 C 
HETATM    5  C5  UNL     1      25.254  -0.422  54.598  1.00  0.00     0.187 C 
HETATM    6  O3  UNL     1      24.455  -1.384  55.068  1.00  0.00    -0.386 OA
HETATM    7  C6  UNL     1      23.237  -1.403  55.574  1.00  0.00     0.195 C 
HETATM    8  C7  UNL     1      22.189  -0.667  54.849  1.00  0.00     0.001 C 
HETATM    9  C8  UNL     1      21.225   0.120  54.433  1.00  0.00     0.029 C 
HETATM   10  C9  UNL     1      20.587   0.223  53.142  1.00  0.00     0.052 C 
HETATM   11  C10 UNL     1      21.303   1.300  52.676  1.00  0.00     0.011 C 
HETATM   12  C11 UNL     1      21.871   1.751  51.422  1.00  0.00     0.040 C 
HETATM   13  C12 UNL     1      21.258   0.721  50.457  1.00  0.00     0.049 C 
HETATM   14  C14 UNL     1      19.815   0.642  50.977  1.00  0.00     0.096 C 
HETATM   15  N2  UNL     1      19.754  -0.076  52.083  1.00  0.00    -0.265 NA
HETATM   16  H7  UNL     1      26.218   1.031  52.433  1.00  0.00     0.153 HD
ENDROOT
BRANCH   1  17
HETATM   17  S1  UNL     1      23.518   3.748  51.937  1.00  0.00     0.147 S 
HETATM   18  C1  UNL     1      21.985   4.642  51.996  1.00  0.00     0.161 C 
HETATM   19  O1  UNL     1      23.958   3.494  53.348  1.00  0.00    -0.228 OA
HETATM   20  O2  UNL     1      24.537   4.462  51.121  1.00  0.00    -0.228 OA
ENDBRANCH   1  17
BRANCH  13  21
HETATM   21  C13 UNL     1      21.197   1.328  49.089  1.00  0.00     0.125 C 
HETATM   22 CL1  UNL     1      20.337   2.906  49.114  1.00  0.00    -0.130 Cl
ENDBRANCH  13  21
TORSDOF 2
ENDMDL
MODEL 5
REMARK VINA RESULT:      -6.3      1.911      2.318
REMARK  2 active torsions:
REMARK  status: ('A' for Active; 'I' for Inactive)
REMARK    1  A    between atoms: S1_2  and  C2_5 
REMARK    2  A    between atoms: C12_17  and  C13_18 
ROOT
HETATM    1  C2  UNL     1      24.162   5.021  49.431  1.00  0.00     0.133 C 
HETATM    2  C3  UNL     1      25.540   4.702  49.386  1.00  0.00     0.134 C 
HETATM    3  N1  UNL     1      26.404   4.272  50.421  1.00  0.00    -0.418 N 
HETATM    4  C4  UNL     1      26.150   2.974  50.865  1.00  0.00     0.140 C 
HETATM    5  C5  UNL     1      27.014   2.240  51.860  1.00  0.00     0.187 C 
HETATM    6  O3  UNL     1      26.544   0.993  51.967  1.00  0.00    -0.386 OA
HETATM    7  C6  UNL     1      25.416   0.469  52.405  1.00  0.00     0.195 C 
HETATM    8  C7  UNL     1      24.159   1.070  51.933  1.00  0.00     0.001 C 
HETATM    9  C8  UNL     1      22.989   1.643  51.772  1.00  0.00     0.029 C 
HETATM   10  C9  UNL     1      22.262   1.971  50.569  1.00  0.00     0.052 C 
HETATM   11  C10 UNL     1      22.620   3.296  50.501  1.00  0.00     0.011 C 
HETATM   12  C11 UNL     1      22.954   4.268  49.480  1.00  0.00     0.040 C 
HETATM   13  C12 UNL     1      22.585   3.475  48.215  1.00  0.00     0.049 C 
HETATM   14  C14 UNL     1      21.259   2.828  48.640  1.00  0.00     0.096 C 
HETATM   15  N2  UNL     1      21.474   1.806  49.448  1.00  0.00    -0.265 NA
HETATM   16  H7  UNL     1      27.390   4.522  50.317  1.00  0.00     0.153 HD
ENDROOT
BRANCH   1  17
HETATM   17  S1  UNL     1      24.018   6.373  50.665  1.00  0.00     0.147 S 
HETATM   18  C1  UNL     1      22.503   7.264  50.408  1.00  0.00     0.161 C 
HETATM   19  O1  UNL     1      23.926   5.682  51.993  1.00  0.00    -0.228 OA
HETATM   20  O2  UNL     1      25.203   7.264  50.545  1.00  0.00    -0.228 OA
ENDBRANCH   1  17
BRANCH  13  21
HETATM   21  C13 UNL     1      22.266   4.445  47.120  1.00  0.00     0.125 C 
HETATM   22 CL1  UNL     1      21.955   3.596  45.567  1.00  0.00    -0.130 Cl
ENDBRANCH  13  21
TORSDOF 2
ENDMDL
MODEL 6
REMARK VINA RESULT:      -6.3      3.010      3.790
REMARK  2 active torsions:
REMARK  status: ('A' for Active; 'I' for Inactive)
REMARK    1  A    between atoms: S1_2  and  C2_5 
REMARK    2  A    between atoms: C12_17  and  C13_18 
ROOT
HETATM    1  C2  UNL     1      19.738   2.003  50.800  1.00  0.00     0.133 C 
HETATM    2  C3  UNL     1      20.929   1.966  50.035  1.00  0.00     0.134 C 
HETATM    3  N1  UNL     1      22.258   2.274  50.415  1.00  0.00    -0.418 N 
HETATM    4  C4  UNL     1      22.825   1.345  51.288  1.00  0.00     0.140 C 
HETATM    5  C5  UNL     1      24.267   1.376  51.730  1.00  0.00     0.187 C 
HETATM    6  O3  UNL     1      24.491   0.284  52.467  1.00  0.00    -0.386 OA
HETATM    7  C6  UNL     1      24.039  -0.153  53.626  1.00  0.00     0.195 C 
HETATM    8  C7  UNL     1      22.585  -0.109  53.848  1.00  0.00     0.001 C 
HETATM    9  C8  UNL     1      21.353   0.080  54.257  1.00  0.00     0.029 C 
HETATM   10  C9  UNL     1      20.099  -0.373  53.703  1.00  0.00     0.052 C 
HETATM   11  C10 UNL     1      19.771   0.785  53.038  1.00  0.00     0.011 C 
HETATM   12  C11 UNL     1      19.147   1.165  51.787  1.00  0.00     0.040 C 
HETATM   13  C12 UNL     1      18.632  -0.204  51.310  1.00  0.00     0.049 C 
HETATM   14  C14 UNL     1      18.072  -0.788  52.616  1.00  0.00     0.096 C 
HETATM   15  N2  UNL     1      19.050  -1.215  53.395  1.00  0.00    -0.265 NA
HETATM   16  H7  UNL     1      22.869   2.617  49.671  1.00  0.00     0.153 HD
ENDROOT
BRANCH   1  17
HETATM   17  S1  UNL     1      19.597   3.735  51.392  1.00  0.00     0.147 S 
HETATM   18  C1  UNL     1      19.569   4.845  50.005  1.00  0.00     0.161 C 
HETATM   19  O1  UNL     1      18.261   3.810  52.068  1.00  0.00    -0.228 OA
HETATM   20  O2  UNL     1      20.736   4.028  52.302  1.00  0.00    -0.228 OA
ENDBRANCH   1  17
BRANCH  13  21
HETATM   21  C13 UNL     1      17.465   0.018  50.396  1.00  0.00     0.125 C 
HETATM   22 CL1  UNL     1      16.234   1.082  51.158  1.00  0.00    -0.130 Cl
ENDBRANCH  13  21
TORSDOF 2
ENDMDL
MODEL 7
REMARK VINA RESULT:      -6.3      7.728     10.052
REMARK  2 active torsions:
REMARK  status: ('A' for Active; 'I' for Inactive)
REMARK    1  A    between atoms: S1_2  and  C2_5 
REMARK    2  A    between atoms: C12_17  and  C13_18 
ROOT
HETATM    1  C2  UNL     1      30.734   9.295  48.293  1.00  0.00     0.133 C 
HETATM    2  C3  UNL     1      30.053   9.996  49.317  1.00  0.00     0.134 C 
HETATM    3  N1  UNL     1      28.675  10.292  49.449  1.00  0.00    -0.418 N 
HETATM    4  C4  UNL     1      27.883   9.177  49.728  1.00  0.00     0.140 C 
HETATM    5  C5  UNL     1      26.410   9.248  50.046  1.00  0.00     0.187 C 
HETATM    6  O3  UNL     1      26.002   8.018  50.368  1.00  0.00    -0.386 OA
HETATM    7  C6  UNL     1      25.909   6.877  49.712  1.00  0.00     0.195 C 
HETATM    8  C7  UNL     1      27.073   6.454  48.917  1.00  0.00     0.001 C 
HETATM    9  C8  UNL     1      27.938   6.076  48.005  1.00  0.00     0.029 C 
HETATM   10  C9  UNL     1      29.350   5.794  48.109  1.00  0.00     0.052 C 
HETATM   11  C10 UNL     1      29.807   7.009  47.655  1.00  0.00     0.011 C 
HETATM   12  C11 UNL     1      30.891   7.924  47.943  1.00  0.00     0.040 C 
HETATM   13  C12 UNL     1      31.733   7.062  48.899  1.00  0.00     0.049 C 
HETATM   14  C14 UNL     1      31.683   5.697  48.197  1.00  0.00     0.096 C 
HETATM   15  N2  UNL     1      30.515   5.111  48.393  1.00  0.00    -0.265 NA
HETATM   16  H7  UNL     1      28.445  11.142  49.968  1.00  0.00     0.153 HD
ENDROOT
BRANCH   1  17
HETATM   17  S1  UNL     1      30.369  10.219  46.749  1.00  0.00     0.147 S 
HETATM   18  C1  UNL     1      30.877  11.912  46.926  1.00  0.00     0.161 C 
HETATM   19  O1  UNL     1      31.235   9.586  45.701  1.00  0.00    -0.228 OA
HETATM   20  O2  UNL     1      28.915  10.114  46.455  1.00  0.00    -0.228 OA
ENDBRANCH   1  17
BRANCH  13  21
HETATM   21  C13 UNL     1      33.154   7.531  48.840  1.00  0.00     0.125 C 
HETATM   22 CL1  UNL     1      34.280   6.163  48.541  1.00  0.00    -0.130 Cl
ENDBRANCH  13  21
TORSDOF 2
ENDMDL
MODEL 8
REMARK VINA RESULT:      -6.1      3.800      5.948
REMARK  2 active torsions:
REMARK  status: ('A' for Active; 'I' for Inactive)
REMARK    1  A    between atoms: S1_2  and  C2_5 
REMARK    2  A    between atoms: C12_17  and  C13_18 
ROOT
HETATM    1  C2  UNL     1      24.668   7.467  49.198  1.00  0.00     0.133 C 
HETATM    2  C3  UNL     1      24.141   7.688  50.493  1.00  0.00     0.134 C 
HETATM    3  N1  UNL     1      23.255   6.892  51.258  1.00  0.00    -0.418 N 
HETATM    4  C4  UNL     1      23.822   5.706  51.724  1.00  0.00     0.140 C 
HETATM    5  C5  UNL     1      23.130   4.755  52.669  1.00  0.00     0.187 C 
HETATM    6  O3  UNL     1      23.999   3.792  52.990  1.00  0.00    -0.386 OA
HETATM    7  C6  UNL     1      24.606   2.838  52.312  1.00  0.00     0.195 C 
HETATM    8  C7  UNL     1      25.245   3.209  51.039  1.00  0.00     0.001 C 
HETATM    9  C8  UNL     1      25.653   3.353  49.801  1.00  0.00     0.029 C 
HETATM   10  C9  UNL     1      26.631   4.250  49.233  1.00  0.00     0.052 C 
HETATM   11  C10 UNL     1      25.752   5.201  48.771  1.00  0.00     0.011 C 
HETATM   12  C11 UNL     1      25.693   6.643  48.654  1.00  0.00     0.040 C 
HETATM   13  C12 UNL     1      27.140   7.008  49.027  1.00  0.00     0.049 C 
HETATM   14  C14 UNL     1      27.929   5.935  48.263  1.00  0.00     0.096 C 
HETATM   15  N2  UNL     1      27.861   4.771  48.885  1.00  0.00    -0.265 NA
HETATM   16  H7  UNL     1      22.660   7.392  51.922  1.00  0.00     0.153 HD
ENDROOT
BRANCH   1  17
HETATM   17  S1  UNL     1      23.204   7.323  48.099  1.00  0.00     0.147 S 
HETATM   18  C1  UNL     1      22.192   8.776  48.250  1.00  0.00     0.161 C 
HETATM   19  O1  UNL     1      23.762   7.294  46.707  1.00  0.00    -0.228 OA
HETATM   20  O2  UNL     1      22.450   6.093  48.458  1.00  0.00    -0.228 OA
ENDBRANCH   1  17
BRANCH  13  21
HETATM   21  C13 UNL     1      27.477   8.326  48.400  1.00  0.00     0.125 C 
HETATM   22 CL1  UNL     1      27.221   8.285  46.621  1.00  0.00    -0.130 Cl
ENDBRANCH  13  21
TORSDOF 2
ENDMDL
MODEL 9
REMARK VINA RESULT:      -6.0      3.139      5.594
REMARK  2 active torsions:
REMARK  status: ('A' for Active; 'I' for Inactive)
REMARK    1  A    between atoms: S1_2  and  C2_5 
REMARK    2  A    between atoms: C12_17  and  C13_18 
ROOT
HETATM    1  C2  UNL     1      21.952   0.439  52.207  1.00  0.00     0.133 C 
HETATM    2  C3  UNL     1      21.566   0.233  50.860  1.00  0.00     0.134 C 
HETATM    3  N1  UNL     1      20.966   1.129  49.943  1.00  0.00    -0.418 N 
HETATM    4  C4  UNL     1      21.817   2.146  49.511  1.00  0.00     0.140 C 
HETATM    5  C5  UNL     1      21.460   3.143  48.436  1.00  0.00     0.187 C 
HETATM    6  O3  UNL     1      22.539   3.894  48.200  1.00  0.00    -0.386 OA
HETATM    7  C6  UNL     1      23.232   4.759  48.915  1.00  0.00     0.195 C 
HETATM    8  C7  UNL     1      23.611   4.363  50.281  1.00  0.00     0.001 C 
HETATM    9  C8  UNL     1      23.816   4.232  51.570  1.00  0.00     0.029 C 
HETATM   10  C9  UNL     1      24.510   3.205  52.311  1.00  0.00     0.052 C 
HETATM   11  C10 UNL     1      23.405   2.478  52.684  1.00  0.00     0.011 C 
HETATM   12  C11 UNL     1      23.043   1.086  52.854  1.00  0.00     0.040 C 
HETATM   13  C12 UNL     1      24.423   0.422  52.707  1.00  0.00     0.049 C 
HETATM   14  C14 UNL     1      25.304   1.375  53.528  1.00  0.00     0.096 C 
HETATM   15  N2  UNL     1      25.554   2.482  52.852  1.00  0.00    -0.265 NA
HETATM   16  H7  UNL     1      20.375   0.707  49.224  1.00  0.00     0.153 HD
ENDROOT
BRANCH   1  17
HETATM   17  S1  UNL     1      20.416   0.942  53.079  1.00  0.00     0.147 S 
HETATM   18  C1  UNL     1      19.090  -0.156  52.643  1.00  0.00     0.161 C 
HETATM   19  O1  UNL     1      20.714   0.749  54.536  1.00  0.00    -0.228 OA
HETATM   20  O2  UNL     1      20.098   2.350  52.723  1.00  0.00    -0.228 OA
ENDBRANCH   1  17
BRANCH  13  21
HETATM   21  C13 UNL     1      24.402  -0.887  53.434  1.00  0.00     0.125 C 
HETATM   22 CL1  UNL     1      25.292  -0.782  54.992  1.00  0.00    -0.130 Cl
ENDBRANCH  13  21
TORSDOF 2
ENDMDL
