MODEL 1
REMARK VINA RESULT:      -7.8      0.000      0.000
REMARK  5 active torsions:
REMARK  status: ('A' for Active; 'I' for Inactive)
REMARK    1  A    between atoms: C1_2  and  O2_3 
REMARK    2  A    between atoms: O2_3  and  N1_4 
REMARK    3  A    between atoms: N1_4  and  C2_5 
REMARK    4  A    between atoms: C9_14  and  N4_15 
REMARK    5  A    between atoms: N4_15  and  C10_16 
ROOT
HETATM    1  C2  UNL     1      22.084   0.918  52.524  1.00  0.00     0.057 C 
HETATM    2  C3  UNL     1      20.948   1.406  53.133  1.00  0.00     0.033 C 
HETATM    3  C4  UNL     1      20.490   2.559  52.575  1.00  0.00     0.022 C 
HETATM    4  C5  UNL     1      21.300   3.603  52.195  1.00  0.00     0.118 C 
HETATM    5  N2  UNL     1      21.771   3.761  50.936  1.00  0.00    -0.256 NA
HETATM    6  C6  UNL     1      23.014   4.143  50.647  1.00  0.00     0.211 C 
HETATM    7  N3  UNL     1      24.098   3.355  50.851  1.00  0.00    -0.314 N 
HETATM    8  C7  UNL     1      23.858   2.083  51.187  1.00  0.00     0.060 A 
HETATM    9  C8  UNL     1      22.716   1.369  51.379  1.00  0.00     0.060 C 
HETATM   10  C9  UNL     1      25.249   2.471  51.079  1.00  0.00     0.241 A 
ENDROOT
BRANCH  10  11
HETATM   11  N4  UNL     1      26.066   2.734  52.241  1.00  0.00    -0.363 N 
HETATM   12  H9  UNL     1      26.038   3.619  52.782  1.00  0.00     0.162 HD
BRANCH  11  13
HETATM   13  C10 UNL     1      26.971   1.715  52.679  1.00  0.00     0.031 A 
HETATM   14  C11 UNL     1      28.149   2.021  53.329  1.00  0.00     0.032 A 
HETATM   15  C12 UNL     1      29.056   1.099  53.772  1.00  0.00     0.046 A 
HETATM   16  C13 UNL     1      28.787  -0.248  53.560  1.00  0.00     0.138 A 
HETATM   17  F1  UNL     1      29.678  -1.172  53.995  1.00  0.00    -0.204 F 
HETATM   18  C14 UNL     1      27.598  -0.589  52.904  1.00  0.00     0.074 A 
HETATM   19 CL1  UNL     1      27.293  -2.312  52.654  1.00  0.00    -0.081 Cl
HETATM   20  C15 UNL     1      26.709   0.376  52.473  1.00  0.00     0.056 A 
ENDBRANCH  11  13
ENDBRANCH  10  11
BRANCH   1  21
HETATM   21  N1  UNL     1      22.879  -0.184  52.947  1.00  0.00    -0.259 N 
HETATM   22  H2  UNL     1      23.049  -0.898  52.186  1.00  0.00     0.195 HD
BRANCH  21  23
HETATM   23  O2  UNL     1      23.508  -0.596  54.096  1.00  0.00    -0.209 OA
BRANCH  23  24
HETATM   24  C1  UNL     1      22.832  -1.315  55.068  1.00  0.00     0.425 C 
HETATM   25  O1  UNL     1      21.587  -1.536  55.017  1.00  0.00    -0.274 OA
ENDBRANCH  23  24
ENDBRANCH  21  23
ENDBRANCH   1  21
TORSDOF 5
ENDMDL
MODEL 2
REMARK VINA RESULT:      -7.5      4.064      6.809
REMARK  5 active torsions:
REMARK  status: ('A' for Active; 'I' for Inactive)
REMARK    1  A    between atoms: C1_2  and  O2_3 
REMARK    2  A    between atoms: O2_3  and  N1_4 
REMARK    3  A    between atoms: N1_4  and  C2_5 
REMARK    4  A    between atoms: C9_14  and  N4_15 
REMARK    5  A    between atoms: N4_15  and  C10_16 
ROOT
HETATM    1  C2  UNL     1      27.474   1.949  52.439  1.00  0.00     0.057 C 
HETATM    2  C3  UNL     1      28.413   2.065  53.441  1.00  0.00     0.033 C 
HETATM    3  C4  UNL     1      28.385   1.035  54.329  1.00  0.00     0.022 C 
HETATM    4  C5  UNL     1      27.229   0.489  54.835  1.00  0.00     0.118 C 
HETATM    5  N2  UNL     1      26.625  -0.601  54.304  1.00  0.00    -0.256 NA
HETATM    6  C6  UNL     1      25.307  -0.724  54.154  1.00  0.00     0.211 C 
HETATM    7  N3  UNL     1      24.593  -0.009  53.252  1.00  0.00    -0.314 N 
HETATM    8  C7  UNL     1      25.295   0.709  52.368  1.00  0.00     0.060 A 
HETATM    9  C8  UNL     1      26.627   0.891  52.162  1.00  0.00     0.060 C 
HETATM   10  C9  UNL     1      23.852   0.780  52.258  1.00  0.00     0.241 A 
ENDROOT
BRANCH  10  11
HETATM   11  N4  UNL     1      23.099   1.914  52.740  1.00  0.00    -0.363 N 
HETATM   12  H9  UNL     1      22.496   1.895  53.584  1.00  0.00     0.162 HD
BRANCH  11  13
HETATM   13  C10 UNL     1      23.186   3.145  52.013  1.00  0.00     0.031 A 
HETATM   14  C11 UNL     1      23.410   4.348  52.649  1.00  0.00     0.032 A 
HETATM   15  C12 UNL     1      23.503   5.557  52.016  1.00  0.00     0.046 A 
HETATM   16  C13 UNL     1      23.365   5.593  50.634  1.00  0.00     0.138 A 
HETATM   17  F1  UNL     1      23.456   6.784  49.995  1.00  0.00    -0.204 F 
HETATM   18  C14 UNL     1      23.138   4.386  49.962  1.00  0.00     0.074 A 
HETATM   19 CL1  UNL     1      22.969   4.473  48.205  1.00  0.00    -0.081 Cl
HETATM   20  C15 UNL     1      23.051   3.186  50.641  1.00  0.00     0.056 A 
ENDBRANCH  11  13
ENDBRANCH  10  11
BRANCH   1  21
HETATM   21  N1  UNL     1      27.159   2.914  51.441  1.00  0.00    -0.259 N 
HETATM   22  H2  UNL     1      27.298   3.912  51.761  1.00  0.00     0.195 HD
BRANCH  21  23
HETATM   23  O2  UNL     1      26.714   2.917  50.142  1.00  0.00    -0.209 OA
BRANCH  23  24
HETATM   24  C1  UNL     1      26.774   4.061  49.364  1.00  0.00     0.425 C 
HETATM   25  O1  UNL     1      27.854   4.501  48.870  1.00  0.00    -0.274 OA
ENDBRANCH  23  24
ENDBRANCH  21  23
ENDBRANCH   1  21
TORSDOF 5
ENDMDL
MODEL 3
REMARK VINA RESULT:      -7.4      4.105      7.129
REMARK  5 active torsions:
REMARK  status: ('A' for Active; 'I' for Inactive)
REMARK    1  A    between atoms: C1_2  and  O2_3 
REMARK    2  A    between atoms: O2_3  and  N1_4 
REMARK    3  A    between atoms: N1_4  and  C2_5 
REMARK    4  A    between atoms: C9_14  and  N4_15 
REMARK    5  A    between atoms: N4_15  and  C10_16 
ROOT
HETATM    1  C2  UNL     1      27.527   1.937  52.523  1.00  0.00     0.057 C 
HETATM    2  C3  UNL     1      28.477   1.966  53.521  1.00  0.00     0.033 C 
HETATM    3  C4  UNL     1      28.450   0.867  54.322  1.00  0.00     0.022 C 
HETATM    4  C5  UNL     1      27.296   0.288  54.794  1.00  0.00     0.118 C 
HETATM    5  N2  UNL     1      26.679  -0.751  54.183  1.00  0.00    -0.256 NA
HETATM    6  C6  UNL     1      25.359  -0.855  54.037  1.00  0.00     0.211 C 
HETATM    7  N3  UNL     1      24.641  -0.064  53.204  1.00  0.00    -0.314 N 
HETATM    8  C7  UNL     1      25.339   0.720  52.374  1.00  0.00     0.060 A 
HETATM    9  C8  UNL     1      26.670   0.910  52.169  1.00  0.00     0.060 C 
HETATM   10  C9  UNL     1      23.895   0.808  52.285  1.00  0.00     0.241 A 
ENDROOT
BRANCH  10  11
HETATM   11  N4  UNL     1      23.155   1.903  52.866  1.00  0.00    -0.363 N 
HETATM   12  H9  UNL     1      23.557   2.585  53.537  1.00  0.00     0.162 HD
BRANCH  11  13
HETATM   13  C10 UNL     1      21.780   2.063  52.499  1.00  0.00     0.031 A 
HETATM   14  C11 UNL     1      21.250   3.299  52.194  1.00  0.00     0.032 A 
HETATM   15  C12 UNL     1      19.948   3.521  51.838  1.00  0.00     0.046 A 
HETATM   16  C13 UNL     1      19.085   2.433  51.773  1.00  0.00     0.138 A 
HETATM   17  F1  UNL     1      17.793   2.640  51.420  1.00  0.00    -0.204 F 
HETATM   18  C14 UNL     1      19.596   1.166  52.078  1.00  0.00     0.074 A 
HETATM   19 CL1  UNL     1      18.467  -0.191  51.984  1.00  0.00    -0.081 Cl
HETATM   20  C15 UNL     1      20.919   0.987  52.434  1.00  0.00     0.056 A 
ENDBRANCH  11  13
ENDBRANCH  10  11
BRANCH   1  21
HETATM   21  N1  UNL     1      27.208   2.982  51.610  1.00  0.00    -0.259 N 
HETATM   22  H2  UNL     1      27.264   3.947  52.038  1.00  0.00     0.195 HD
BRANCH  21  23
HETATM   23  O2  UNL     1      26.838   3.096  50.292  1.00  0.00    -0.209 OA
BRANCH  23  24
HETATM   24  C1  UNL     1      25.597   3.595  49.934  1.00  0.00     0.425 C 
HETATM   25  O1  UNL     1      24.689   3.850  50.779  1.00  0.00    -0.274 OA
ENDBRANCH  23  24
ENDBRANCH  21  23
ENDBRANCH   1  21
TORSDOF 5
ENDMDL
MODEL 4
REMARK VINA RESULT:      -7.4      3.692      6.840
REMARK  5 active torsions:
REMARK  status: ('A' for Active; 'I' for Inactive)
REMARK    1  A    between atoms: C1_2  and  O2_3 
REMARK    2  A    between atoms: O2_3  and  N1_4 
REMARK    3  A    between atoms: N1_4  and  C2_5 
REMARK    4  A    between atoms: C9_14  and  N4_15 
REMARK    5  A    between atoms: N4_15  and  C10_16 
ROOT
HETATM    1  C2  UNL     1      27.251   2.085  52.921  1.00  0.00     0.057 C 
HETATM    2  C3  UNL     1      28.401   2.446  53.588  1.00  0.00     0.033 C 
HETATM    3  C4  UNL     1      29.293   1.427  53.716  1.00  0.00     0.022 C 
HETATM    4  C5  UNL     1      28.945   0.139  54.051  1.00  0.00     0.118 C 
HETATM    5  N2  UNL     1      28.716  -0.832  53.136  1.00  0.00    -0.256 NA
HETATM    6  C6  UNL     1      27.725  -1.719  53.222  1.00  0.00     0.211 C 
HETATM    7  N3  UNL     1      26.421  -1.392  53.060  1.00  0.00    -0.314 N 
HETATM    8  C7  UNL     1      26.165  -0.155  52.617  1.00  0.00     0.060 A 
HETATM    9  C8  UNL     1      26.958   0.896  52.277  1.00  0.00     0.060 C 
HETATM   10  C9  UNL     1      25.016  -1.001  52.871  1.00  0.00     0.241 A 
ENDROOT
BRANCH  10  11
HETATM   11  N4  UNL     1      24.204  -0.858  54.057  1.00  0.00    -0.363 N 
HETATM   12  H9  UNL     1      24.582  -0.861  55.023  1.00  0.00     0.162 HD
BRANCH  11  13
HETATM   13  C10 UNL     1      22.790  -0.703  53.895  1.00  0.00     0.031 A 
HETATM   14  C11 UNL     1      21.903  -1.678  54.303  1.00  0.00     0.032 A 
HETATM   15  C12 UNL     1      20.544  -1.594  54.178  1.00  0.00     0.046 A 
HETATM   16  C13 UNL     1      20.001  -0.452  53.601  1.00  0.00     0.138 A 
HETATM   17  F1  UNL     1      18.656  -0.356  53.472  1.00  0.00    -0.204 F 
HETATM   18  C14 UNL     1      20.878   0.554  53.179  1.00  0.00     0.074 A 
HETATM   19 CL1  UNL     1      20.150   1.991  52.451  1.00  0.00    -0.081 Cl
HETATM   20  C15 UNL     1      22.246   0.429  53.324  1.00  0.00     0.056 A 
ENDBRANCH  11  13
ENDBRANCH  10  11
BRANCH   1  21
HETATM   21  N1  UNL     1      26.079   2.873  52.741  1.00  0.00    -0.259 N 
HETATM   22  H2  UNL     1      26.172   3.597  51.976  1.00  0.00     0.195 HD
BRANCH  21  23
HETATM   23  O2  UNL     1      24.825   2.962  53.293  1.00  0.00    -0.209 OA
BRANCH  23  24
HETATM   24  C1  UNL     1      23.837   3.739  52.712  1.00  0.00     0.425 C 
HETATM   25  O1  UNL     1      23.274   3.430  51.621  1.00  0.00    -0.274 OA
ENDBRANCH  23  24
ENDBRANCH  21  23
ENDBRANCH   1  21
TORSDOF 5
ENDMDL
MODEL 5
REMARK VINA RESULT:      -7.3      3.940      5.778
REMARK  5 active torsions:
REMARK  status: ('A' for Active; 'I' for Inactive)
REMARK    1  A    between atoms: C1_2  and  O2_3 
REMARK    2  A    between atoms: O2_3  and  N1_4 
REMARK    3  A    between atoms: N1_4  and  C2_5 
REMARK    4  A    between atoms: C9_14  and  N4_15 
REMARK    5  A    between atoms: N4_15  and  C10_16 
ROOT
HETATM    1  C2  UNL     1      24.958  -0.723  54.616  1.00  0.00     0.057 C 
HETATM    2  C3  UNL     1      24.289  -1.192  55.725  1.00  0.00     0.033 C 
HETATM    3  C4  UNL     1      22.992  -1.517  55.475  1.00  0.00     0.022 C 
HETATM    4  C5  UNL     1      22.143  -0.754  54.707  1.00  0.00     0.118 C 
HETATM    5  N2  UNL     1      21.937  -0.970  53.387  1.00  0.00    -0.256 NA
HETATM    6  C6  UNL     1      21.845  -0.001  52.478  1.00  0.00     0.211 C 
HETATM    7  N3  UNL     1      22.900   0.755  52.091  1.00  0.00    -0.314 N 
HETATM    8  C7  UNL     1      24.105   0.366  52.524  1.00  0.00     0.060 A 
HETATM    9  C8  UNL     1      24.528  -0.665  53.303  1.00  0.00     0.060 C 
HETATM   10  C9  UNL     1      24.070   1.550  51.690  1.00  0.00     0.241 A 
ENDROOT
BRANCH  10  11
HETATM   11  N4  UNL     1      24.184   2.881  52.240  1.00  0.00    -0.363 N 
HETATM   12  H9  UNL     1      23.997   3.118  53.232  1.00  0.00     0.162 HD
BRANCH  11  13
HETATM   13  C10 UNL     1      24.580   3.944  51.366  1.00  0.00     0.031 A 
HETATM   14  C11 UNL     1      25.514   3.754  50.369  1.00  0.00     0.032 A 
HETATM   15  C12 UNL     1      25.937   4.723  49.503  1.00  0.00     0.046 A 
HETATM   16  C13 UNL     1      25.396   5.998  49.622  1.00  0.00     0.138 A 
HETATM   17  F1  UNL     1      25.806   6.968  48.769  1.00  0.00    -0.204 F 
HETATM   18  C14 UNL     1      24.445   6.220  50.624  1.00  0.00     0.074 A 
HETATM   19 CL1  UNL     1      23.780   7.854  50.742  1.00  0.00    -0.081 Cl
HETATM   20  C15 UNL     1      24.046   5.211  51.479  1.00  0.00     0.056 A 
ENDBRANCH  11  13
ENDBRANCH  10  11
BRANCH   1  21
HETATM   21  N1  UNL     1      26.273  -0.179  54.572  1.00  0.00    -0.259 N 
HETATM   22  H2  UNL     1      26.348   0.697  53.985  1.00  0.00     0.195 HD
BRANCH  21  23
HETATM   23  O2  UNL     1      27.509  -0.477  55.092  1.00  0.00    -0.209 OA
BRANCH  23  24
HETATM   24  C1  UNL     1      28.642   0.211  54.692  1.00  0.00     0.425 C 
HETATM   25  O1  UNL     1      28.894   1.394  55.063  1.00  0.00    -0.274 OA
ENDBRANCH  23  24
ENDBRANCH  21  23
ENDBRANCH   1  21
TORSDOF 5
ENDMDL
MODEL 6
REMARK VINA RESULT:      -7.2      3.455      4.869
REMARK  5 active torsions:
REMARK  status: ('A' for Active; 'I' for Inactive)
REMARK    1  A    between atoms: C1_2  and  O2_3 
REMARK    2  A    between atoms: O2_3  and  N1_4 
REMARK    3  A    between atoms: N1_4  and  C2_5 
REMARK    4  A    between atoms: C9_14  and  N4_15 
REMARK    5  A    between atoms: N4_15  and  C10_16 
ROOT
HETATM    1  C2  UNL     1      23.215  -0.538  53.530  1.00  0.00     0.057 C 
HETATM    2  C3  UNL     1      22.713  -0.808  54.785  1.00  0.00     0.033 C 
HETATM    3  C4  UNL     1      21.367  -0.640  54.875  1.00  0.00     0.022 C 
HETATM    4  C5  UNL     1      20.686   0.418  54.318  1.00  0.00     0.118 C 
HETATM    5  N2  UNL     1      20.102   0.369  53.098  1.00  0.00    -0.256 NA
HETATM    6  C6  UNL     1      20.143   1.361  52.210  1.00  0.00     0.211 C 
HETATM    7  N3  UNL     1      21.271   1.718  51.550  1.00  0.00    -0.314 N 
HETATM    8  C7  UNL     1      22.325   0.905  51.682  1.00  0.00     0.060 A 
HETATM    9  C8  UNL     1      22.528  -0.254  52.363  1.00  0.00     0.060 C 
HETATM   10  C9  UNL     1      22.512   2.074  50.847  1.00  0.00     0.241 A 
ENDROOT
BRANCH  10  11
HETATM   11  N4  UNL     1      23.223   3.243  51.309  1.00  0.00    -0.363 N 
HETATM   12  H9  UNL     1      22.956   3.791  52.148  1.00  0.00     0.162 HD
BRANCH  11  13
HETATM   13  C10 UNL     1      24.368   3.678  50.567  1.00  0.00     0.031 A 
HETATM   14  C11 UNL     1      25.532   2.940  50.531  1.00  0.00     0.032 A 
HETATM   15  C12 UNL     1      26.659   3.297  49.844  1.00  0.00     0.046 A 
HETATM   16  C13 UNL     1      26.647   4.487  49.126  1.00  0.00     0.138 A 
HETATM   17  F1  UNL     1      27.758   4.852  48.441  1.00  0.00    -0.204 F 
HETATM   18  C14 UNL     1      25.478   5.257  49.145  1.00  0.00     0.074 A 
HETATM   19 CL1  UNL     1      25.503   6.763  48.219  1.00  0.00    -0.081 Cl
HETATM   20  C15 UNL     1      24.361   4.858  49.852  1.00  0.00     0.056 A 
ENDBRANCH  11  13
ENDBRANCH  10  11
BRANCH   1  21
HETATM   21  N1  UNL     1      24.585  -0.491  53.144  1.00  0.00    -0.259 N 
HETATM   22  H2  UNL     1      24.737  -0.086  52.180  1.00  0.00     0.195 HD
BRANCH  21  23
HETATM   23  O2  UNL     1      25.800  -0.832  53.685  1.00  0.00    -0.209 OA
BRANCH  23  24
HETATM   24  C1  UNL     1      26.403  -0.044  54.651  1.00  0.00     0.425 C 
HETATM   25  O1  UNL     1      27.610  -0.191  55.003  1.00  0.00    -0.274 OA
ENDBRANCH  23  24
ENDBRANCH  21  23
ENDBRANCH   1  21
TORSDOF 5
ENDMDL
MODEL 7
REMARK VINA RESULT:      -7.0      2.722      4.250
REMARK  5 active torsions:
REMARK  status: ('A' for Active; 'I' for Inactive)
REMARK    1  A    between atoms: C1_2  and  O2_3 
REMARK    2  A    between atoms: O2_3  and  N1_4 
REMARK    3  A    between atoms: N1_4  and  C2_5 
REMARK    4  A    between atoms: C9_14  and  N4_15 
REMARK    5  A    between atoms: N4_15  and  C10_16 
ROOT
HETATM    1  C2  UNL     1      23.755   2.836  50.322  1.00  0.00     0.057 C 
HETATM    2  C3  UNL     1      23.426   2.821  48.984  1.00  0.00     0.033 C 
HETATM    3  C4  UNL     1      22.198   2.293  48.737  1.00  0.00     0.022 C 
HETATM    4  C5  UNL     1      21.709   1.163  49.349  1.00  0.00     0.118 C 
HETATM    5  N2  UNL     1      20.930   1.193  50.456  1.00  0.00    -0.256 NA
HETATM    6  C6  UNL     1      21.058   0.353  51.482  1.00  0.00     0.211 C 
HETATM    7  N3  UNL     1      22.108   0.383  52.338  1.00  0.00    -0.314 N 
HETATM    8  C7  UNL     1      22.939   1.426  52.229  1.00  0.00     0.060 A 
HETATM    9  C8  UNL     1      22.968   2.513  51.413  1.00  0.00     0.060 C 
HETATM   10  C9  UNL     1      23.258   0.449  53.251  1.00  0.00     0.241 A 
ENDROOT
BRANCH  10  11
HETATM   11  N4  UNL     1      24.301  -0.535  53.074  1.00  0.00    -0.363 N 
HETATM   12  H9  UNL     1      24.130  -1.517  52.787  1.00  0.00     0.162 HD
BRANCH  11  13
HETATM   13  C10 UNL     1      25.656  -0.136  53.309  1.00  0.00     0.031 A 
HETATM   14  C11 UNL     1      25.980   1.154  53.672  1.00  0.00     0.032 A 
HETATM   15  C12 UNL     1      27.250   1.600  53.909  1.00  0.00     0.046 A 
HETATM   16  C13 UNL     1      28.302   0.701  53.781  1.00  0.00     0.138 A 
HETATM   17  F1  UNL     1      29.566   1.130  54.014  1.00  0.00    -0.204 F 
HETATM   18  C14 UNL     1      28.003  -0.616  53.414  1.00  0.00     0.074 A 
HETATM   19 CL1  UNL     1      29.368  -1.730  53.261  1.00  0.00    -0.081 Cl
HETATM   20  C15 UNL     1      26.704  -1.025  53.183  1.00  0.00     0.056 A 
ENDBRANCH  11  13
ENDBRANCH  10  11
BRANCH   1  21
HETATM   21  N1  UNL     1      25.008   3.196  50.895  1.00  0.00    -0.259 N 
HETATM   22  H2  UNL     1      24.977   3.296  51.947  1.00  0.00     0.195 HD
BRANCH  21  23
HETATM   23  O2  UNL     1      26.282   3.458  50.457  1.00  0.00    -0.209 OA
BRANCH  23  24
HETATM   24  C1  UNL     1      26.513   4.271  49.360  1.00  0.00     0.425 C 
HETATM   25  O1  UNL     1      27.656   4.405  48.832  1.00  0.00    -0.274 OA
ENDBRANCH  23  24
ENDBRANCH  21  23
ENDBRANCH   1  21
TORSDOF 5
ENDMDL
MODEL 8
REMARK VINA RESULT:      -7.0      2.859      5.171
REMARK  5 active torsions:
REMARK  status: ('A' for Active; 'I' for Inactive)
REMARK    1  A    between atoms: C1_2  and  O2_3 
REMARK    2  A    between atoms: O2_3  and  N1_4 
REMARK    3  A    between atoms: N1_4  and  C2_5 
REMARK    4  A    between atoms: C9_14  and  N4_15 
REMARK    5  A    between atoms: N4_15  and  C10_16 
ROOT
HETATM    1  C2  UNL     1      24.901   4.512  50.547  1.00  0.00     0.057 C 
HETATM    2  C3  UNL     1      25.220   4.891  49.261  1.00  0.00     0.033 C 
HETATM    3  C4  UNL     1      24.284   5.691  48.686  1.00  0.00     0.022 C 
HETATM    4  C5  UNL     1      22.928   5.483  48.787  1.00  0.00     0.118 C 
HETATM    5  N2  UNL     1      22.150   6.079  49.722  1.00  0.00    -0.256 NA
HETATM    6  C6  UNL     1      21.177   5.459  50.388  1.00  0.00     0.211 C 
HETATM    7  N3  UNL     1      21.410   4.510  51.326  1.00  0.00    -0.314 N 
HETATM    8  C7  UNL     1      22.682   4.341  51.704  1.00  0.00     0.060 A 
HETATM    9  C8  UNL     1      23.849   4.936  51.340  1.00  0.00     0.060 C 
HETATM   10  C9  UNL     1      21.700   3.488  52.342  1.00  0.00     0.241 A 
ENDROOT
BRANCH  10  11
HETATM   11  N4  UNL     1      21.519   2.106  51.963  1.00  0.00    -0.363 N 
HETATM   12  H9  UNL     1      21.096   1.801  51.066  1.00  0.00     0.162 HD
BRANCH  11  13
HETATM   13  C10 UNL     1      21.947   1.090  52.876  1.00  0.00     0.031 A 
HETATM   14  C11 UNL     1      21.068   0.482  53.748  1.00  0.00     0.032 A 
HETATM   15  C12 UNL     1      21.410  -0.492  54.644  1.00  0.00     0.046 A 
HETATM   16  C13 UNL     1      22.734  -0.911  54.693  1.00  0.00     0.138 A 
HETATM   17  F1  UNL     1      23.086  -1.876  55.577  1.00  0.00    -0.204 F 
HETATM   18  C14 UNL     1      23.649  -0.311  53.819  1.00  0.00     0.074 A 
HETATM   19 CL1  UNL     1      25.323  -0.871  53.912  1.00  0.00    -0.081 Cl
HETATM   20  C15 UNL     1      23.260   0.670  52.929  1.00  0.00     0.056 A 
ENDBRANCH  11  13
ENDBRANCH  10  11
BRANCH   1  21
HETATM   21  N1  UNL     1      25.598   3.580  51.367  1.00  0.00    -0.259 N 
HETATM   22  H2  UNL     1      25.731   3.911  52.363  1.00  0.00     0.195 HD
BRANCH  21  23
HETATM   23  O2  UNL     1      26.163   2.337  51.229  1.00  0.00    -0.209 OA
BRANCH  23  24
HETATM   24  C1  UNL     1      27.041   1.836  52.176  1.00  0.00     0.425 C 
HETATM   25  O1  UNL     1      28.106   2.435  52.509  1.00  0.00    -0.274 OA
ENDBRANCH  23  24
ENDBRANCH  21  23
ENDBRANCH   1  21
TORSDOF 5
ENDMDL
MODEL 9
REMARK VINA RESULT:      -6.9      3.282      4.640
REMARK  5 active torsions:
REMARK  status: ('A' for Active; 'I' for Inactive)
REMARK    1  A    between atoms: C1_2  and  O2_3 
REMARK    2  A    between atoms: O2_3  and  N1_4 
REMARK    3  A    between atoms: N1_4  and  C2_5 
REMARK    4  A    between atoms: C9_14  and  N4_15 
REMARK    5  A    between atoms: N4_15  and  C10_16 
ROOT
HETATM    1  C2  UNL     1      23.029   5.666  51.292  1.00  0.00     0.057 C 
HETATM    2  C3  UNL     1      22.144   5.698  50.236  1.00  0.00     0.033 C 
HETATM    3  C4  UNL     1      21.252   4.672  50.249  1.00  0.00     0.022 C 
HETATM    4  C5  UNL     1      21.583   3.369  50.540  1.00  0.00     0.118 C 
HETATM    5  N2  UNL     1      21.473   2.830  51.777  1.00  0.00    -0.256 NA
HETATM    6  C6  UNL     1      22.378   2.019  52.321  1.00  0.00     0.211 C 
HETATM    7  N3  UNL     1      23.604   2.436  52.718  1.00  0.00    -0.314 N 
HETATM    8  C7  UNL     1      23.816   3.758  52.717  1.00  0.00     0.060 A 
HETATM    9  C8  UNL     1      23.039   4.825  52.391  1.00  0.00     0.060 C 
HETATM   10  C9  UNL     1      24.923   2.926  53.143  1.00  0.00     0.241 A 
ENDROOT
BRANCH  10  11
HETATM   11  N4  UNL     1      26.045   2.640  52.280  1.00  0.00    -0.363 N 
HETATM   12  H9  UNL     1      26.232   3.133  51.387  1.00  0.00     0.162 HD
BRANCH  11  13
HETATM   13  C10 UNL     1      26.960   1.611  52.676  1.00  0.00     0.031 A 
HETATM   14  C11 UNL     1      28.160   1.905  53.289  1.00  0.00     0.032 A 
HETATM   15  C12 UNL     1      29.077   0.974  53.691  1.00  0.00     0.046 A 
HETATM   16  C13 UNL     1      28.794  -0.370  53.474  1.00  0.00     0.138 A 
HETATM   17  F1  UNL     1      29.695  -1.303  53.868  1.00  0.00    -0.204 F 
HETATM   18  C14 UNL     1      27.583  -0.697  52.853  1.00  0.00     0.074 A 
HETATM   19 CL1  UNL     1      27.261  -2.416  52.595  1.00  0.00    -0.081 Cl
HETATM   20  C15 UNL     1      26.685   0.277  52.463  1.00  0.00     0.056 A 
ENDBRANCH  11  13
ENDBRANCH  10  11
BRANCH   1  21
HETATM   21  N1  UNL     1      24.157   6.511  51.493  1.00  0.00    -0.259 N 
HETATM   22  H2  UNL     1      24.158   6.996  52.433  1.00  0.00     0.195 HD
BRANCH  21  23
HETATM   23  O2  UNL     1      25.278   6.885  50.794  1.00  0.00    -0.209 OA
BRANCH  23  24
HETATM   24  C1  UNL     1      25.308   8.058  50.059  1.00  0.00     0.425 C 
HETATM   25  O1  UNL     1      26.165   8.970  50.254  1.00  0.00    -0.274 OA
ENDBRANCH  23  24
ENDBRANCH  21  23
ENDBRANCH   1  21
TORSDOF 5
ENDMDL
