MODEL 1
REMARK VINA RESULT:      -9.1      0.000      0.000
REMARK  8 active torsions:
REMARK  status: ('A' for Active; 'I' for Inactive)
REMARK    1  A    between atoms: C2_2  and  O1_3 
REMARK    2  A    between atoms: O1_3  and  C3_4 
REMARK    3  A    between atoms: C7_10  and  N3_11 
REMARK    4  A    between atoms: N3_11  and  C8_12 
REMARK    5  A    between atoms: C8_12  and  C10_14 
REMARK    6  A    between atoms: C18_22  and  N4_23 
REMARK    7  A    between atoms: N4_23  and  C19_24 
REMARK    8  A    between atoms: C19_24  and  C20_25 
ROOT
HETATM    1  C3  UNL     1      22.896   0.388  52.932  1.00  0.00     0.097 A 
HETATM    2  C4  UNL     1      21.928   1.328  52.762  1.00  0.00     0.071 A 
HETATM    3  C5  UNL     1      22.248   2.558  52.247  1.00  0.00     0.075 A 
HETATM    4  N1  UNL     1      21.279   3.476  52.084  1.00  0.00    -0.241 NA
HETATM    5  C6  UNL     1      21.574   4.698  51.575  1.00  0.00     0.235 A 
HETATM    6  N2  UNL     1      22.852   4.948  51.247  1.00  0.00    -0.224 NA
HETATM    7  C7  UNL     1      23.863   4.076  51.384  1.00  0.00     0.138 A 
HETATM    8  C16 UNL     1      23.549   2.844  51.900  1.00  0.00     0.041 A 
HETATM    9  C17 UNL     1      24.479   1.866  52.090  1.00  0.00     0.049 A 
HETATM   10  C18 UNL     1      24.240   0.609  52.602  1.00  0.00     0.062 A 
ENDROOT
BRANCH   7  11
HETATM   11  N3  UNL     1      25.168   4.435  51.009  1.00  0.00    -0.366 N 
HETATM   12  H8  UNL     1      25.891   4.888  51.598  1.00  0.00     0.161 HD
BRANCH  11  13
HETATM   13  C8  UNL     1      25.606   4.165  49.656  1.00  0.00     0.112 C 
HETATM   14  C9  UNL     1      26.609   3.023  49.616  1.00  0.00     0.037 C 
BRANCH  13  15
HETATM   15  C10 UNL     1      26.181   5.335  48.990  1.00  0.00    -0.036 A 
HETATM   16  C11 UNL     1      27.543   5.237  48.692  1.00  0.00     0.009 A 
HETATM   17  C12 UNL     1      28.183   6.282  48.066  1.00  0.00     0.001 A 
HETATM   18  C13 UNL     1      27.555   7.450  47.702  1.00  0.00     0.000 A 
HETATM   19  C14 UNL     1      26.210   7.519  48.006  1.00  0.00     0.001 A 
HETATM   20  C15 UNL     1      25.518   6.489  48.640  1.00  0.00     0.009 A 
ENDBRANCH  13  15
ENDBRANCH  11  13
ENDBRANCH   7  11
BRANCH  10  21
HETATM   21  N4  UNL     1      25.195  -0.422  52.792  1.00  0.00    -0.386 N 
HETATM   22  H19 UNL     1      25.128  -1.240  52.112  1.00  0.00     0.159 HD
BRANCH  21  23
HETATM   23  C19 UNL     1      26.244  -0.510  53.785  1.00  0.00     0.147 C 
BRANCH  23  24
HETATM   24  C20 UNL     1      27.478   0.125  53.243  1.00  0.00     0.128 C 
HETATM   25  C21 UNL     1      28.722  -0.706  53.480  1.00  0.00     0.207 C 
HETATM   26  O2  UNL     1      29.749   0.238  53.686  1.00  0.00    -0.302 OA
HETATM   27  C22 UNL     1      29.246   1.358  54.359  1.00  0.00     0.361 C 
HETATM   28  O3  UNL     1      29.573   2.326  55.112  1.00  0.00    -0.239 OA
HETATM   29  N5  UNL     1      27.854   1.324  54.021  1.00  0.00    -0.329 N 
HETATM   30  H25 UNL     1      27.033   1.968  54.204  1.00  0.00     0.165 HD
ENDBRANCH  23  24
ENDBRANCH  21  23
ENDBRANCH  10  21
BRANCH   1  31
HETATM   31  O1  UNL     1      22.513  -0.852  53.464  1.00  0.00    -0.349 OA
BRANCH  31  32
HETATM   32  C2  UNL     1      22.104  -1.032  54.794  1.00  0.00     0.171 C 
HETATM   33  C1  UNL     1      23.278  -1.414  55.697  1.00  0.00     0.034 C 
ENDBRANCH  31  32
ENDBRANCH   1  31
TORSDOF 8
ENDMDL
MODEL 2
REMARK VINA RESULT:      -8.6      2.652      6.539
REMARK  8 active torsions:
REMARK  status: ('A' for Active; 'I' for Inactive)
REMARK    1  A    between atoms: C2_2  and  O1_3 
REMARK    2  A    between atoms: O1_3  and  C3_4 
REMARK    3  A    between atoms: C7_10  and  N3_11 
REMARK    4  A    between atoms: N3_11  and  C8_12 
REMARK    5  A    between atoms: C8_12  and  C10_14 
REMARK    6  A    between atoms: C18_22  and  N4_23 
REMARK    7  A    between atoms: N4_23  and  C19_24 
REMARK    8  A    between atoms: C19_24  and  C20_25 
ROOT
HETATM    1  C3  UNL     1      20.583   2.773  52.378  1.00  0.00     0.097 A 
HETATM    2  C4  UNL     1      20.273   1.716  53.175  1.00  0.00     0.071 A 
HETATM    3  C5  UNL     1      21.239   0.806  53.516  1.00  0.00     0.075 A 
HETATM    4  N1  UNL     1      20.915  -0.234  54.305  1.00  0.00    -0.241 NA
HETATM    5  C6  UNL     1      21.857  -1.146  54.654  1.00  0.00     0.235 A 
HETATM    6  N2  UNL     1      23.103  -0.969  54.186  1.00  0.00    -0.224 NA
HETATM    7  C7  UNL     1      23.490   0.045  53.397  1.00  0.00     0.138 A 
HETATM    8  C16 UNL     1      22.526   0.959  53.052  1.00  0.00     0.041 A 
HETATM    9  C17 UNL     1      22.783   2.037  52.258  1.00  0.00     0.049 A 
HETATM   10  C18 UNL     1      21.870   2.994  51.870  1.00  0.00     0.062 A 
ENDROOT
BRANCH   7  11
HETATM   11  N3  UNL     1      24.821   0.141  52.960  1.00  0.00    -0.366 N 
HETATM   12  H8  UNL     1      25.189  -0.051  52.010  1.00  0.00     0.161 HD
BRANCH  11  13
HETATM   13  C8  UNL     1      25.840   0.548  53.906  1.00  0.00     0.112 C 
HETATM   14  C9  UNL     1      26.114   2.040  53.817  1.00  0.00     0.037 C 
BRANCH  13  15
HETATM   15  C10 UNL     1      27.098  -0.184  53.750  1.00  0.00    -0.036 A 
HETATM   16  C11 UNL     1      27.007  -1.367  53.012  1.00  0.00     0.009 A 
HETATM   17  C12 UNL     1      28.132  -2.132  52.805  1.00  0.00     0.001 A 
HETATM   18  C13 UNL     1      29.377  -1.802  53.289  1.00  0.00     0.000 A 
HETATM   19  C14 UNL     1      29.437  -0.628  54.013  1.00  0.00     0.001 A 
HETATM   20  C15 UNL     1      28.328   0.180  54.250  1.00  0.00     0.009 A 
ENDBRANCH  13  15
ENDBRANCH  11  13
ENDBRANCH   7  11
BRANCH  10  21
HETATM   21  N4  UNL     1      22.127   4.126  51.057  1.00  0.00    -0.386 N 
HETATM   22  H19 UNL     1      21.879   4.017  50.026  1.00  0.00     0.159 HD
BRANCH  21  23
HETATM   23  C19 UNL     1      22.683   5.407  51.441  1.00  0.00     0.147 C 
BRANCH  23  24
HETATM   24  C20 UNL     1      23.971   5.610  50.720  1.00  0.00     0.128 C 
HETATM   25  C21 UNL     1      23.918   5.152  49.277  1.00  0.00     0.207 C 
HETATM   26  O2  UNL     1      25.210   4.656  49.011  1.00  0.00    -0.302 OA
HETATM   27  C22 UNL     1      25.735   4.042  50.155  1.00  0.00     0.361 C 
HETATM   28  O3  UNL     1      26.569   3.171  50.553  1.00  0.00    -0.239 OA
HETATM   29  N5  UNL     1      25.017   4.689  51.212  1.00  0.00    -0.329 N 
HETATM   30  H25 UNL     1      25.068   4.656  52.270  1.00  0.00     0.165 HD
ENDBRANCH  23  24
ENDBRANCH  21  23
ENDBRANCH  10  21
BRANCH   1  31
HETATM   31  O1  UNL     1      19.555   3.674  52.061  1.00  0.00    -0.349 OA
BRANCH  31  32
HETATM   32  C2  UNL     1      18.576   3.421  51.088  1.00  0.00     0.171 C 
HETATM   33  C1  UNL     1      17.172   3.397  51.697  1.00  0.00     0.034 C 
ENDBRANCH  31  32
ENDBRANCH   1  31
TORSDOF 8
ENDMDL
MODEL 3
REMARK VINA RESULT:      -8.6      1.493      2.193
REMARK  8 active torsions:
REMARK  status: ('A' for Active; 'I' for Inactive)
REMARK    1  A    between atoms: C2_2  and  O1_3 
REMARK    2  A    between atoms: O1_3  and  C3_4 
REMARK    3  A    between atoms: C7_10  and  N3_11 
REMARK    4  A    between atoms: N3_11  and  C8_12 
REMARK    5  A    between atoms: C8_12  and  C10_14 
REMARK    6  A    between atoms: C18_22  and  N4_23 
REMARK    7  A    between atoms: N4_23  and  C19_24 
REMARK    8  A    between atoms: C19_24  and  C20_25 
ROOT
HETATM    1  C3  UNL     1      23.197   0.810  52.923  1.00  0.00     0.097 A 
HETATM    2  C4  UNL     1      21.913   1.219  52.742  1.00  0.00     0.071 A 
HETATM    3  C5  UNL     1      21.654   2.447  52.191  1.00  0.00     0.075 A 
HETATM    4  N1  UNL     1      20.378   2.835  52.018  1.00  0.00    -0.241 NA
HETATM    5  C6  UNL     1      20.100   4.047  51.474  1.00  0.00     0.235 A 
HETATM    6  N2  UNL     1      21.135   4.827  51.122  1.00  0.00    -0.224 NA
HETATM    7  C7  UNL     1      22.428   4.497  51.267  1.00  0.00     0.138 A 
HETATM    8  C16 UNL     1      22.693   3.270  51.819  1.00  0.00     0.041 A 
HETATM    9  C17 UNL     1      23.961   2.811  52.022  1.00  0.00     0.049 A 
HETATM   10  C18 UNL     1      24.304   1.594  52.569  1.00  0.00     0.062 A 
ENDROOT
BRANCH   7  11
HETATM   11  N3  UNL     1      23.438   5.387  50.865  1.00  0.00    -0.366 N 
HETATM   12  H8  UNL     1      24.055   5.957  51.473  1.00  0.00     0.161 HD
BRANCH  11  13
HETATM   13  C8  UNL     1      23.690   5.565  49.451  1.00  0.00     0.112 C 
HETATM   14  C9  UNL     1      22.978   4.508  48.623  1.00  0.00     0.037 C 
BRANCH  13  15
HETATM   15  C10 UNL     1      25.114   5.563  49.113  1.00  0.00    -0.036 A 
HETATM   16  C11 UNL     1      25.787   4.369  49.388  1.00  0.00     0.009 A 
HETATM   17  C12 UNL     1      27.129   4.259  49.108  1.00  0.00     0.001 A 
HETATM   18  C13 UNL     1      27.877   5.275  48.560  1.00  0.00     0.000 A 
HETATM   19  C14 UNL     1      27.189   6.442  48.297  1.00  0.00     0.001 A 
HETATM   20  C15 UNL     1      25.831   6.602  48.563  1.00  0.00     0.009 A 
ENDBRANCH  13  15
ENDBRANCH  11  13
ENDBRANCH   7  11
BRANCH  10  21
HETATM   21  N4  UNL     1      25.617   1.098  52.772  1.00  0.00    -0.386 N 
HETATM   22  H19 UNL     1      26.029   0.546  51.960  1.00  0.00     0.159 HD
BRANCH  21  23
HETATM   23  C19 UNL     1      26.468   1.243  53.934  1.00  0.00     0.147 C 
BRANCH  23  24
HETATM   24  C20 UNL     1      27.012  -0.094  54.304  1.00  0.00     0.128 C 
HETATM   25  C21 UNL     1      28.481  -0.247  53.967  1.00  0.00     0.207 C 
HETATM   26  O2  UNL     1      28.624  -1.602  53.604  1.00  0.00    -0.302 OA
HETATM   27  C22 UNL     1      27.475  -2.048  52.941  1.00  0.00     0.361 C 
HETATM   28  O3  UNL     1      27.044  -2.908  52.113  1.00  0.00    -0.239 OA
HETATM   29  N5  UNL     1      26.467  -1.157  53.435  1.00  0.00    -0.329 N 
HETATM   30  H25 UNL     1      25.416  -1.092  53.317  1.00  0.00     0.165 HD
ENDBRANCH  23  24
ENDBRANCH  21  23
ENDBRANCH  10  21
BRANCH   1  31
HETATM   31  O1  UNL     1      23.404  -0.455  53.492  1.00  0.00    -0.349 OA
BRANCH  31  32
HETATM   32  C2  UNL     1      22.842  -0.858  54.713  1.00  0.00     0.171 C 
HETATM   33  C1  UNL     1      21.657  -1.802  54.502  1.00  0.00     0.034 C 
ENDBRANCH  31  32
ENDBRANCH   1  31
TORSDOF 8
ENDMDL
MODEL 4
REMARK VINA RESULT:      -8.6      1.112      1.611
REMARK  8 active torsions:
REMARK  status: ('A' for Active; 'I' for Inactive)
REMARK    1  A    between atoms: C2_2  and  O1_3 
REMARK    2  A    between atoms: O1_3  and  C3_4 
REMARK    3  A    between atoms: C7_10  and  N3_11 
REMARK    4  A    between atoms: N3_11  and  C8_12 
REMARK    5  A    between atoms: C8_12  and  C10_14 
REMARK    6  A    between atoms: C18_22  and  N4_23 
REMARK    7  A    between atoms: N4_23  and  C19_24 
REMARK    8  A    between atoms: C19_24  and  C20_25 
ROOT
HETATM    1  C3  UNL     1      22.623   0.489  52.985  1.00  0.00     0.097 A 
HETATM    2  C4  UNL     1      21.412   1.082  52.813  1.00  0.00     0.071 A 
HETATM    3  C5  UNL     1      21.332   2.328  52.245  1.00  0.00     0.075 A 
HETATM    4  N1  UNL     1      20.126   2.900  52.081  1.00  0.00    -0.241 NA
HETATM    5  C6  UNL     1      20.025   4.133  51.522  1.00  0.00     0.235 A 
HETATM    6  N2  UNL     1      21.160   4.744  51.147  1.00  0.00    -0.224 NA
HETATM    7  C7  UNL     1      22.391   4.227  51.283  1.00  0.00     0.138 A 
HETATM    8  C16 UNL     1      22.477   2.981  51.850  1.00  0.00     0.041 A 
HETATM    9  C17 UNL     1      23.665   2.341  52.046  1.00  0.00     0.049 A 
HETATM   10  C18 UNL     1      23.830   1.094  52.608  1.00  0.00     0.062 A 
ENDROOT
BRANCH   7  11
HETATM   11  N3  UNL     1      23.518   4.950  50.857  1.00  0.00    -0.366 N 
HETATM   12  H8  UNL     1      24.233   5.411  51.449  1.00  0.00     0.161 HD
BRANCH  11  13
HETATM   13  C8  UNL     1      23.756   5.101  49.436  1.00  0.00     0.112 C 
HETATM   14  C9  UNL     1      23.168   3.940  48.650  1.00  0.00     0.037 C 
BRANCH  13  15
HETATM   15  C10 UNL     1      25.173   5.242  49.100  1.00  0.00    -0.036 A 
HETATM   16  C11 UNL     1      25.543   6.499  48.612  1.00  0.00     0.009 A 
HETATM   17  C12 UNL     1      26.852   6.740  48.265  1.00  0.00     0.001 A 
HETATM   18  C13 UNL     1      27.852   5.800  48.370  1.00  0.00     0.000 A 
HETATM   19  C14 UNL     1      27.459   4.570  48.856  1.00  0.00     0.001 A 
HETATM   20  C15 UNL     1      26.147   4.277  49.219  1.00  0.00     0.009 A 
ENDBRANCH  13  15
ENDBRANCH  11  13
ENDBRANCH   7  11
BRANCH  10  21
HETATM   21  N4  UNL     1      25.057   0.411  52.803  1.00  0.00    -0.386 N 
HETATM   22  H19 UNL     1      25.102  -0.214  53.665  1.00  0.00     0.159 HD
BRANCH  21  23
HETATM   23  C19 UNL     1      26.254   0.452  51.989  1.00  0.00     0.147 C 
BRANCH  23  24
HETATM   24  C20 UNL     1      27.398  -0.071  52.786  1.00  0.00     0.128 C 
HETATM   25  C21 UNL     1      26.995  -0.513  54.179  1.00  0.00     0.207 C 
HETATM   26  O2  UNL     1      28.106  -0.201  54.988  1.00  0.00    -0.302 OA
HETATM   27  C22 UNL     1      28.719   0.973  54.535  1.00  0.00     0.361 C 
HETATM   28  O3  UNL     1      29.446   1.949  54.897  1.00  0.00    -0.239 OA
HETATM   29  N5  UNL     1      28.338   1.009  53.154  1.00  0.00    -0.329 N 
HETATM   30  H25 UNL     1      28.581   1.637  52.337  1.00  0.00     0.165 HD
ENDBRANCH  23  24
ENDBRANCH  21  23
ENDBRANCH  10  21
BRANCH   1  31
HETATM   31  O1  UNL     1      22.647  -0.785  53.571  1.00  0.00    -0.349 OA
BRANCH  31  32
HETATM   32  C2  UNL     1      22.306  -1.030  54.909  1.00  0.00     0.171 C 
HETATM   33  C1  UNL     1      23.511  -1.516  55.717  1.00  0.00     0.034 C 
ENDBRANCH  31  32
ENDBRANCH   1  31
TORSDOF 8
ENDMDL
MODEL 5
REMARK VINA RESULT:      -8.6      2.032      6.475
REMARK  8 active torsions:
REMARK  status: ('A' for Active; 'I' for Inactive)
REMARK    1  A    between atoms: C2_2  and  O1_3 
REMARK    2  A    between atoms: O1_3  and  C3_4 
REMARK    3  A    between atoms: C7_10  and  N3_11 
REMARK    4  A    between atoms: N3_11  and  C8_12 
REMARK    5  A    between atoms: C8_12  and  C10_14 
REMARK    6  A    between atoms: C18_22  and  N4_23 
REMARK    7  A    between atoms: N4_23  and  C19_24 
REMARK    8  A    between atoms: C19_24  and  C20_25 
ROOT
HETATM    1  C3  UNL     1      26.091   4.186  49.743  1.00  0.00     0.097 A 
HETATM    2  C4  UNL     1      25.150   5.066  49.308  1.00  0.00     0.071 A 
HETATM    3  C5  UNL     1      23.899   5.067  49.870  1.00  0.00     0.075 A 
HETATM    4  N1  UNL     1      22.980   5.944  49.429  1.00  0.00    -0.241 NA
HETATM    5  C6  UNL     1      21.736   5.962  49.971  1.00  0.00     0.235 A 
HETATM    6  N2  UNL     1      21.468   5.082  50.949  1.00  0.00    -0.224 NA
HETATM    7  C7  UNL     1      22.340   4.184  51.433  1.00  0.00     0.138 A 
HETATM    8  C16 UNL     1      23.592   4.178  50.874  1.00  0.00     0.041 A 
HETATM    9  C17 UNL     1      24.573   3.318  51.273  1.00  0.00     0.049 A 
HETATM   10  C18 UNL     1      25.851   3.253  50.760  1.00  0.00     0.062 A 
ENDROOT
BRANCH   7  11
HETATM   11  N3  UNL     1      21.959   3.305  52.461  1.00  0.00    -0.366 N 
HETATM   12  H8  UNL     1      22.088   3.434  53.482  1.00  0.00     0.161 HD
BRANCH  11  13
HETATM   13  C8  UNL     1      21.307   2.060  52.111  1.00  0.00     0.112 C 
HETATM   14  C9  UNL     1      19.795   2.186  52.190  1.00  0.00     0.037 C 
BRANCH  13  15
HETATM   15  C10 UNL     1      21.741   0.930  52.933  1.00  0.00    -0.036 A 
HETATM   16  C11 UNL     1      20.727   0.309  53.669  1.00  0.00     0.009 A 
HETATM   17  C12 UNL     1      21.026  -0.764  54.475  1.00  0.00     0.001 A 
HETATM   18  C13 UNL     1      22.293  -1.284  54.611  1.00  0.00     0.000 A 
HETATM   19  C14 UNL     1      23.274  -0.653  53.873  1.00  0.00     0.001 A 
HETATM   20  C15 UNL     1      23.021   0.437  53.043  1.00  0.00     0.009 A 
ENDBRANCH  13  15
ENDBRANCH  11  13
ENDBRANCH   7  11
BRANCH  10  21
HETATM   21  N4  UNL     1      26.884   2.375  51.175  1.00  0.00    -0.386 N 
HETATM   22  H19 UNL     1      27.319   1.783  50.404  1.00  0.00     0.159 HD
BRANCH  21  23
HETATM   23  C19 UNL     1      27.420   2.176  52.505  1.00  0.00     0.147 C 
BRANCH  23  24
HETATM   24  C20 UNL     1      26.669   1.074  53.169  1.00  0.00     0.128 C 
HETATM   25  C21 UNL     1      27.445   0.429  54.300  1.00  0.00     0.207 C 
HETATM   26  O2  UNL     1      27.068  -0.929  54.263  1.00  0.00    -0.302 OA
HETATM   27  C22 UNL     1      26.858  -1.335  52.940  1.00  0.00     0.361 C 
HETATM   28  O3  UNL     1      26.852  -2.347  52.173  1.00  0.00    -0.239 OA
HETATM   29  N5  UNL     1      26.540  -0.102  52.284  1.00  0.00    -0.329 N 
HETATM   30  H25 UNL     1      26.231   0.156  51.304  1.00  0.00     0.165 HD
ENDBRANCH  23  24
ENDBRANCH  21  23
ENDBRANCH  10  21
BRANCH   1  31
HETATM   31  O1  UNL     1      27.353   4.229  49.133  1.00  0.00    -0.349 OA
BRANCH  31  32
HETATM   32  C2  UNL     1      27.838   5.343  48.431  1.00  0.00     0.171 C 
HETATM   33  C1  UNL     1      29.350   5.255  48.212  1.00  0.00     0.034 C 
ENDBRANCH  31  32
ENDBRANCH   1  31
TORSDOF 8
ENDMDL
MODEL 6
REMARK VINA RESULT:      -8.5      3.075      7.011
REMARK  8 active torsions:
REMARK  status: ('A' for Active; 'I' for Inactive)
REMARK    1  A    between atoms: C2_2  and  O1_3 
REMARK    2  A    between atoms: O1_3  and  C3_4 
REMARK    3  A    between atoms: C7_10  and  N3_11 
REMARK    4  A    between atoms: N3_11  and  C8_12 
REMARK    5  A    between atoms: C8_12  and  C10_14 
REMARK    6  A    between atoms: C18_22  and  N4_23 
REMARK    7  A    between atoms: N4_23  and  C19_24 
REMARK    8  A    between atoms: C19_24  and  C20_25 
ROOT
HETATM    1  C3  UNL     1      24.886   3.831  50.114  1.00  0.00     0.097 A 
HETATM    2  C4  UNL     1      23.952   3.890  49.127  1.00  0.00     0.071 A 
HETATM    3  C5  UNL     1      22.890   3.024  49.134  1.00  0.00     0.075 A 
HETATM    4  N1  UNL     1      21.976   3.095  48.150  1.00  0.00    -0.241 NA
HETATM    5  C6  UNL     1      20.917   2.247  48.138  1.00  0.00     0.235 A 
HETATM    6  N2  UNL     1      20.823   1.349  49.132  1.00  0.00    -0.224 NA
HETATM    7  C7  UNL     1      21.700   1.228  50.141  1.00  0.00     0.138 A 
HETATM    8  C16 UNL     1      22.765   2.092  50.139  1.00  0.00     0.041 A 
HETATM    9  C17 UNL     1      23.728   2.076  51.104  1.00  0.00     0.049 A 
HETATM   10  C18 UNL     1      24.824   2.910  51.169  1.00  0.00     0.062 A 
ENDROOT
BRANCH   7  11
HETATM   11  N3  UNL     1      21.511   0.253  51.135  1.00  0.00    -0.366 N 
HETATM   12  H8  UNL     1      21.876  -0.717  51.145  1.00  0.00     0.161 HD
BRANCH  11  13
HETATM   13  C8  UNL     1      20.721   0.589  52.301  1.00  0.00     0.112 C 
HETATM   14  C9  UNL     1      21.453   0.234  53.586  1.00  0.00     0.037 C 
BRANCH  13  15
HETATM   15  C10 UNL     1      19.402  -0.045  52.308  1.00  0.00    -0.036 A 
HETATM   16  C11 UNL     1      19.195  -0.972  53.333  1.00  0.00     0.009 A 
HETATM   17  C12 UNL     1      17.988  -1.625  53.431  1.00  0.00     0.001 A 
HETATM   18  C13 UNL     1      16.940  -1.422  52.563  1.00  0.00     0.000 A 
HETATM   19  C14 UNL     1      17.171  -0.501  51.562  1.00  0.00     0.001 A 
HETATM   20  C15 UNL     1      18.375   0.185  51.420  1.00  0.00     0.009 A 
ENDBRANCH  13  15
ENDBRANCH  11  13
ENDBRANCH   7  11
BRANCH  10  21
HETATM   21  N4  UNL     1      25.824   2.915  52.174  1.00  0.00    -0.386 N 
HETATM   22  H19 UNL     1      25.593   3.479  53.048  1.00  0.00     0.159 HD
BRANCH  21  23
HETATM   23  C19 UNL     1      27.114   2.258  52.168  1.00  0.00     0.147 C 
BRANCH  23  24
HETATM   24  C20 UNL     1      27.519   1.975  53.573  1.00  0.00     0.128 C 
HETATM   25  C21 UNL     1      28.602   0.920  53.674  1.00  0.00     0.207 C 
HETATM   26  O2  UNL     1      28.313   0.223  54.865  1.00  0.00    -0.302 OA
HETATM   27  C22 UNL     1      26.928   0.143  55.053  1.00  0.00     0.361 C 
HETATM   28  O3  UNL     1      26.012  -0.535  55.613  1.00  0.00    -0.239 OA
HETATM   29  N5  UNL     1      26.448   1.272  54.312  1.00  0.00    -0.329 N 
HETATM   30  H25 UNL     1      25.497   1.717  54.175  1.00  0.00     0.165 HD
ENDBRANCH  23  24
ENDBRANCH  21  23
ENDBRANCH  10  21
BRANCH   1  31
HETATM   31  O1  UNL     1      25.952   4.742  50.058  1.00  0.00    -0.349 OA
BRANCH  31  32
HETATM   32  C2  UNL     1      26.387   5.353  48.873  1.00  0.00     0.171 C 
HETATM   33  C1  UNL     1      27.842   4.999  48.559  1.00  0.00     0.034 C 
ENDBRANCH  31  32
ENDBRANCH   1  31
TORSDOF 8
ENDMDL
MODEL 7
REMARK VINA RESULT:      -8.5      2.627      6.472
REMARK  8 active torsions:
REMARK  status: ('A' for Active; 'I' for Inactive)
REMARK    1  A    between atoms: C2_2  and  O1_3 
REMARK    2  A    between atoms: O1_3  and  C3_4 
REMARK    3  A    between atoms: C7_10  and  N3_11 
REMARK    4  A    between atoms: N3_11  and  C8_12 
REMARK    5  A    between atoms: C8_12  and  C10_14 
REMARK    6  A    between atoms: C18_22  and  N4_23 
REMARK    7  A    between atoms: N4_23  and  C19_24 
REMARK    8  A    between atoms: C19_24  and  C20_25 
ROOT
HETATM    1  C3  UNL     1      24.846   4.374  49.798  1.00  0.00     0.097 A 
HETATM    2  C4  UNL     1      23.958   4.545  48.783  1.00  0.00     0.071 A 
HETATM    3  C5  UNL     1      22.922   3.662  48.620  1.00  0.00     0.075 A 
HETATM    4  N1  UNL     1      22.052   3.845  47.611  1.00  0.00    -0.241 NA
HETATM    5  C6  UNL     1      21.020   2.983  47.432  1.00  0.00     0.235 A 
HETATM    6  N2  UNL     1      20.907   1.956  48.291  1.00  0.00    -0.224 NA
HETATM    7  C7  UNL     1      21.740   1.719  49.316  1.00  0.00     0.138 A 
HETATM    8  C16 UNL     1      22.778   2.599  49.483  1.00  0.00     0.041 A 
HETATM    9  C17 UNL     1      23.696   2.475  50.484  1.00  0.00     0.049 A 
HETATM   10  C18 UNL     1      24.763   3.317  50.715  1.00  0.00     0.062 A 
ENDROOT
BRANCH   7  11
HETATM   11  N3  UNL     1      21.533   0.614  50.160  1.00  0.00    -0.366 N 
HETATM   12  H8  UNL     1      22.008  -0.307  50.120  1.00  0.00     0.161 HD
BRANCH  11  13
HETATM   13  C8  UNL     1      20.557   0.720  51.223  1.00  0.00     0.112 C 
HETATM   14  C9  UNL     1      20.051   2.146  51.371  1.00  0.00     0.037 C 
BRANCH  13  15
HETATM   15  C10 UNL     1      21.057   0.250  52.515  1.00  0.00    -0.036 A 
HETATM   16  C11 UNL     1      22.287  -0.414  52.469  1.00  0.00     0.009 A 
HETATM   17  C12 UNL     1      22.848  -0.896  53.628  1.00  0.00     0.001 A 
HETATM   18  C13 UNL     1      22.265  -0.768  54.867  1.00  0.00     0.000 A 
HETATM   19  C14 UNL     1      21.052  -0.108  54.885  1.00  0.00     0.001 A 
HETATM   20  C15 UNL     1      20.443   0.398  53.739  1.00  0.00     0.009 A 
ENDBRANCH  13  15
ENDBRANCH  11  13
ENDBRANCH   7  11
BRANCH  10  21
HETATM   21  N4  UNL     1      25.715   3.208  51.759  1.00  0.00    -0.386 N 
HETATM   22  H19 UNL     1      25.679   3.977  52.495  1.00  0.00     0.159 HD
BRANCH  21  23
HETATM   23  C19 UNL     1      26.728   2.192  51.956  1.00  0.00     0.147 C 
BRANCH  23  24
HETATM   24  C20 UNL     1      27.014   2.071  53.413  1.00  0.00     0.128 C 
HETATM   25  C21 UNL     1      28.302   1.326  53.701  1.00  0.00     0.207 C 
HETATM   26  O2  UNL     1      28.049   0.624  54.897  1.00  0.00    -0.302 OA
HETATM   27  C22 UNL     1      26.714   0.205  54.936  1.00  0.00     0.361 C 
HETATM   28  O3  UNL     1      25.930  -0.660  55.436  1.00  0.00    -0.239 OA
HETATM   29  N5  UNL     1      26.067   1.150  54.074  1.00  0.00    -0.329 N 
HETATM   30  H25 UNL     1      25.059   1.336  53.805  1.00  0.00     0.165 HD
ENDBRANCH  23  24
ENDBRANCH  21  23
ENDBRANCH  10  21
BRANCH   1  31
HETATM   31  O1  UNL     1      25.886   5.307  49.917  1.00  0.00    -0.349 OA
BRANCH  31  32
HETATM   32  C2  UNL     1      26.571   5.849  48.820  1.00  0.00     0.171 C 
HETATM   33  C1  UNL     1      27.870   5.092  48.537  1.00  0.00     0.034 C 
ENDBRANCH  31  32
ENDBRANCH   1  31
TORSDOF 8
ENDMDL
MODEL 8
REMARK VINA RESULT:      -8.4      2.759      5.328
REMARK  8 active torsions:
REMARK  status: ('A' for Active; 'I' for Inactive)
REMARK    1  A    between atoms: C2_2  and  O1_3 
REMARK    2  A    between atoms: O1_3  and  C3_4 
REMARK    3  A    between atoms: C7_10  and  N3_11 
REMARK    4  A    between atoms: N3_11  and  C8_12 
REMARK    5  A    between atoms: C8_12  and  C10_14 
REMARK    6  A    between atoms: C18_22  and  N4_23 
REMARK    7  A    between atoms: N4_23  and  C19_24 
REMARK    8  A    between atoms: C19_24  and  C20_25 
ROOT
HETATM    1  C3  UNL     1      25.958  -0.259  53.584  1.00  0.00     0.097 A 
HETATM    2  C4  UNL     1      25.039  -0.837  54.403  1.00  0.00     0.071 A 
HETATM    3  C5  UNL     1      23.701  -0.682  54.152  1.00  0.00     0.075 A 
HETATM    4  N1  UNL     1      22.805  -1.261  54.971  1.00  0.00    -0.241 NA
HETATM    5  C6  UNL     1      21.476  -1.119  54.741  1.00  0.00     0.235 A 
HETATM    6  N2  UNL     1      21.099  -0.389  53.678  1.00  0.00    -0.224 NA
HETATM    7  C7  UNL     1      21.942   0.213  52.824  1.00  0.00     0.138 A 
HETATM    8  C16 UNL     1      23.283   0.061  53.071  1.00  0.00     0.041 A 
HETATM    9  C17 UNL     1      24.245   0.618  52.282  1.00  0.00     0.049 A 
HETATM   10  C18 UNL     1      25.607   0.510  52.466  1.00  0.00     0.062 A 
ENDROOT
BRANCH   7  11
HETATM   11  N3  UNL     1      21.446   0.956  51.740  1.00  0.00    -0.366 N 
HETATM   12  H8  UNL     1      21.073   0.592  50.843  1.00  0.00     0.161 HD
BRANCH  11  13
HETATM   13  C8  UNL     1      21.431   2.401  51.831  1.00  0.00     0.112 C 
HETATM   14  C9  UNL     1      20.075   2.913  52.289  1.00  0.00     0.037 C 
BRANCH  13  15
HETATM   15  C10 UNL     1      21.798   3.062  50.579  1.00  0.00    -0.036 A 
HETATM   16  C11 UNL     1      22.468   2.254  49.655  1.00  0.00     0.009 A 
HETATM   17  C12 UNL     1      22.858   2.776  48.444  1.00  0.00     0.001 A 
HETATM   18  C13 UNL     1      22.628   4.080  48.068  1.00  0.00     0.000 A 
HETATM   19  C14 UNL     1      21.964   4.855  48.997  1.00  0.00     0.001 A 
HETATM   20  C15 UNL     1      21.549   4.372  50.236  1.00  0.00     0.009 A 
ENDBRANCH  13  15
ENDBRANCH  11  13
ENDBRANCH   7  11
BRANCH  10  21
HETATM   21  N4  UNL     1      26.618   1.071  51.646  1.00  0.00    -0.386 N 
HETATM   22  H19 UNL     1      27.188   0.373  51.079  1.00  0.00     0.159 HD
BRANCH  21  23
HETATM   23  C19 UNL     1      26.977   2.464  51.480  1.00  0.00     0.147 C 
BRANCH  23  24
HETATM   24  C20 UNL     1      26.072   3.079  50.469  1.00  0.00     0.128 C 
HETATM   25  C21 UNL     1      26.820   3.828  49.386  1.00  0.00     0.207 C 
HETATM   26  O2  UNL     1      25.984   4.916  49.060  1.00  0.00    -0.302 OA
HETATM   27  C22 UNL     1      25.319   5.372  50.204  1.00  0.00     0.361 C 
HETATM   28  O3  UNL     1      24.758   6.387  50.721  1.00  0.00    -0.239 OA
HETATM   29  N5  UNL     1      25.311   4.210  51.043  1.00  0.00    -0.329 N 
HETATM   30  H25 UNL     1      24.881   3.979  51.983  1.00  0.00     0.165 HD
ENDBRANCH  23  24
ENDBRANCH  21  23
ENDBRANCH  10  21
BRANCH   1  31
HETATM   31  O1  UNL     1      27.314  -0.451  53.888  1.00  0.00    -0.349 OA
BRANCH  31  32
HETATM   32  C2  UNL     1      27.993   0.265  54.885  1.00  0.00     0.171 C 
HETATM   33  C1  UNL     1      29.104   1.135  54.295  1.00  0.00     0.034 C 
ENDBRANCH  31  32
ENDBRANCH   1  31
TORSDOF 8
ENDMDL
MODEL 9
REMARK VINA RESULT:      -8.3      2.018      6.313
REMARK  8 active torsions:
REMARK  status: ('A' for Active; 'I' for Inactive)
REMARK    1  A    between atoms: C2_2  and  O1_3 
REMARK    2  A    between atoms: O1_3  and  C3_4 
REMARK    3  A    between atoms: C7_10  and  N3_11 
REMARK    4  A    between atoms: N3_11  and  C8_12 
REMARK    5  A    between atoms: C8_12  and  C10_14 
REMARK    6  A    between atoms: C18_22  and  N4_23 
REMARK    7  A    between atoms: N4_23  and  C19_24 
REMARK    8  A    between atoms: C19_24  and  C20_25 
ROOT
HETATM    1  C3  UNL     1      23.972   5.038  50.586  1.00  0.00     0.097 A 
HETATM    2  C4  UNL     1      22.806   5.514  50.073  1.00  0.00     0.071 A 
HETATM    3  C5  UNL     1      21.612   4.951  50.442  1.00  0.00     0.075 A 
HETATM    4  N1  UNL     1      20.468   5.434  49.925  1.00  0.00    -0.241 NA
HETATM    5  C6  UNL     1      19.276   4.890  50.277  1.00  0.00     0.235 A 
HETATM    6  N2  UNL     1      19.287   3.868  51.148  1.00  0.00    -0.224 NA
HETATM    7  C7  UNL     1      20.392   3.341  51.698  1.00  0.00     0.138 A 
HETATM    8  C16 UNL     1      21.590   3.901  51.332  1.00  0.00     0.041 A 
HETATM    9  C17 UNL     1      22.787   3.463  51.816  1.00  0.00     0.049 A 
HETATM   10  C18 UNL     1      24.026   3.974  51.496  1.00  0.00     0.062 A 
ENDROOT
BRANCH   7  11
HETATM   11  N3  UNL     1      20.296   2.269  52.601  1.00  0.00    -0.366 N 
HETATM   12  H8  UNL     1      20.046   2.311  53.606  1.00  0.00     0.161 HD
BRANCH  11  13
HETATM   13  C8  UNL     1      20.569   0.929  52.126  1.00  0.00     0.112 C 
HETATM   14  C9  UNL     1      19.290   0.215  51.718  1.00  0.00     0.037 C 
BRANCH  13  15
HETATM   15  C10 UNL     1      21.290   0.107  53.098  1.00  0.00    -0.036 A 
HETATM   16  C11 UNL     1      22.684   0.154  52.996  1.00  0.00     0.009 A 
HETATM   17  C12 UNL     1      23.459  -0.581  53.862  1.00  0.00     0.001 A 
HETATM   18  C13 UNL     1      22.941  -1.384  54.853  1.00  0.00     0.000 A 
HETATM   19  C14 UNL     1      21.563  -1.411  54.932  1.00  0.00     0.001 A 
HETATM   20  C15 UNL     1      20.736  -0.685  54.078  1.00  0.00     0.009 A 
ENDBRANCH  13  15
ENDBRANCH  11  13
ENDBRANCH   7  11
BRANCH  10  21
HETATM   21  N4  UNL     1      25.276   3.538  52.004  1.00  0.00    -0.386 N 
HETATM   22  H19 UNL     1      26.101   4.184  51.810  1.00  0.00     0.159 HD
BRANCH  21  23
HETATM   23  C19 UNL     1      25.579   2.333  52.746  1.00  0.00     0.147 C 
BRANCH  23  24
HETATM   24  C20 UNL     1      27.007   1.972  52.521  1.00  0.00     0.128 C 
HETATM   25  C21 UNL     1      27.313   0.529  52.865  1.00  0.00     0.207 C 
HETATM   26  O2  UNL     1      28.628   0.553  53.373  1.00  0.00    -0.302 OA
HETATM   27  C22 UNL     1      28.847   1.737  54.087  1.00  0.00     0.361 C 
HETATM   28  O3  UNL     1      29.550   2.258  55.007  1.00  0.00    -0.239 OA
HETATM   29  N5  UNL     1      27.892   2.632  53.504  1.00  0.00    -0.329 N 
HETATM   30  H25 UNL     1      27.678   3.663  53.621  1.00  0.00     0.165 HD
ENDBRANCH  23  24
ENDBRANCH  21  23
ENDBRANCH  10  21
BRANCH   1  31
HETATM   31  O1  UNL     1      25.164   5.652  50.174  1.00  0.00    -0.349 OA
BRANCH  31  32
HETATM   32  C2  UNL     1      25.721   5.485  48.898  1.00  0.00     0.171 C 
HETATM   33  C1  UNL     1      27.019   4.676  48.953  1.00  0.00     0.034 C 
ENDBRANCH  31  32
ENDBRANCH   1  31
TORSDOF 8
ENDMDL
