MODEL 1
REMARK VINA RESULT:      -8.7      0.000      0.000
REMARK  1 active torsions:
REMARK  status: ('A' for Active; 'I' for Inactive)
REMARK    1  A    between atoms: C4_4  and  C5_5 
ROOT
HETATM    1  C1  UNL     1      20.243  -1.931  54.228  1.00  0.00     0.017 C 
HETATM    2  C2  UNL     1      20.916  -0.992  53.858  1.00  0.00    -0.089 C 
HETATM    3  C3  UNL     1      21.745   0.126  53.423  1.00  0.00     0.064 C 
HETATM    4  C4  UNL     1      23.049   0.148  53.598  1.00  0.00     0.024 C 
ENDROOT
BRANCH   4   5
HETATM    5  C5  UNL     1      24.056   1.137  53.250  1.00  0.00     0.009 C 
HETATM    6  C6  UNL     1      23.667   2.270  52.718  1.00  0.00    -0.001 C 
HETATM    7  C7  UNL     1      24.332   3.483  52.242  1.00  0.00     0.114 C 
HETATM    8  S1  UNL     1      25.405   3.165  50.814  1.00  0.00    -0.092 SA
HETATM    9  S2  UNL     1      26.483   1.345  51.100  1.00  0.00    -0.074 SA
HETATM   10  C8  UNL     1      26.767   1.138  52.901  1.00  0.00     0.114 C 
HETATM   11  C9  UNL     1      27.344   2.411  53.413  1.00  0.00     0.054 C 
HETATM   12  C16 UNL     1      27.681  -0.047  53.086  1.00  0.00    -0.004 A 
HETATM   13  C17 UNL     1      25.458   0.826  53.512  1.00  0.00     0.183 C 
HETATM   14  C10 UNL     1      28.773   2.383  53.812  1.00  0.00     0.122 C 
HETATM   15  N1  UNL     1      29.255   1.171  54.383  1.00  0.00    -0.389 N 
HETATM   16  C11 UNL     1      28.868  -0.056  53.787  1.00  0.00     0.036 A 
HETATM   17  H11 UNL     1      29.886   1.131  55.228  1.00  0.00     0.159 HD
HETATM   18  C12 UNL     1      29.610  -1.204  53.882  1.00  0.00     0.030 A 
HETATM   19  C13 UNL     1      29.224  -2.382  53.299  1.00  0.00     0.002 A 
HETATM   20  C14 UNL     1      28.036  -2.340  52.607  1.00  0.00     0.001 A 
HETATM   21  C15 UNL     1      27.237  -1.201  52.475  1.00  0.00     0.011 A 
HETATM   22  O1  UNL     1      25.624   0.085  54.544  1.00  0.00    -0.290 OA
ENDBRANCH   4   5
TORSDOF 1
ENDMDL
MODEL 2
REMARK VINA RESULT:      -8.4      2.912      6.012
REMARK  1 active torsions:
REMARK  status: ('A' for Active; 'I' for Inactive)
REMARK    1  A    between atoms: C4_4  and  C5_5 
ROOT
HETATM    1  C1  UNL     1      28.814  -1.310  53.389  1.00  0.00     0.017 C 
HETATM    2  C2  UNL     1      27.790  -0.836  52.947  1.00  0.00    -0.089 C 
HETATM    3  C3  UNL     1      26.549  -0.264  52.437  1.00  0.00     0.064 C 
HETATM    4  C4  UNL     1      25.562   0.101  53.228  1.00  0.00     0.024 C 
ENDROOT
BRANCH   4   5
HETATM    5  C5  UNL     1      24.260   0.683  52.947  1.00  0.00     0.009 C 
HETATM    6  C6  UNL     1      23.191  -0.053  53.124  1.00  0.00    -0.001 C 
HETATM    7  C7  UNL     1      21.749   0.142  52.963  1.00  0.00     0.114 C 
HETATM    8  S1  UNL     1      21.282   0.428  51.233  1.00  0.00    -0.092 SA
HETATM    9  S2  UNL     1      22.692   1.731  50.300  1.00  0.00    -0.074 SA
HETATM   10  C8  UNL     1      23.340   2.869  51.587  1.00  0.00     0.114 C 
HETATM   11  C9  UNL     1      22.172   3.454  52.298  1.00  0.00     0.054 C 
HETATM   12  C16 UNL     1      24.194   3.901  50.894  1.00  0.00    -0.004 A 
HETATM   13  C17 UNL     1      24.200   2.065  52.480  1.00  0.00     0.183 C 
HETATM   14  C10 UNL     1      21.890   4.890  52.050  1.00  0.00     0.122 C 
HETATM   15  N1  UNL     1      23.015   5.736  51.835  1.00  0.00    -0.389 N 
HETATM   16  C11 UNL     1      24.059   5.269  50.998  1.00  0.00     0.036 A 
HETATM   17  H11 UNL     1      23.118   6.694  52.264  1.00  0.00     0.159 HD
HETATM   18  C12 UNL     1      24.904   6.104  50.313  1.00  0.00     0.030 A 
HETATM   19  C13 UNL     1      25.908   5.638  49.507  1.00  0.00     0.002 A 
HETATM   20  C14 UNL     1      26.016   4.269  49.425  1.00  0.00     0.001 A 
HETATM   21  C15 UNL     1      25.186   3.368  50.097  1.00  0.00     0.011 A 
HETATM   22  O1  UNL     1      25.134   2.798  52.962  1.00  0.00    -0.290 OA
ENDBRANCH   4   5
TORSDOF 1
ENDMDL
MODEL 3
REMARK VINA RESULT:      -8.1      3.063      5.467
REMARK  1 active torsions:
REMARK  status: ('A' for Active; 'I' for Inactive)
REMARK    1  A    between atoms: C4_4  and  C5_5 
ROOT
HETATM    1  C1  UNL     1      28.615   6.568  47.676  1.00  0.00     0.017 C 
HETATM    2  C2  UNL     1      27.692   6.134  48.332  1.00  0.00    -0.089 C 
HETATM    3  C3  UNL     1      26.591   5.589  49.118  1.00  0.00     0.064 C 
HETATM    4  C4  UNL     1      26.493   4.308  49.402  1.00  0.00     0.024 C 
ENDROOT
BRANCH   4   5
HETATM    5  C5  UNL     1      25.501   3.556  50.155  1.00  0.00     0.009 C 
HETATM    6  C6  UNL     1      24.237   3.870  50.018  1.00  0.00    -0.001 C 
HETATM    7  C7  UNL     1      22.973   3.384  50.573  1.00  0.00     0.114 C 
HETATM    8  S1  UNL     1      22.859   3.651  52.363  1.00  0.00    -0.092 SA
HETATM    9  S2  UNL     1      24.728   3.200  53.291  1.00  0.00    -0.074 SA
HETATM   10  C8  UNL     1      25.536   1.876  52.310  1.00  0.00     0.114 C 
HETATM   11  C9  UNL     1      24.540   0.787  52.121  1.00  0.00     0.054 C 
HETATM   12  C16 UNL     1      26.764   1.435  53.066  1.00  0.00    -0.004 A 
HETATM   13  C17 UNL     1      25.959   2.483  51.031  1.00  0.00     0.183 C 
HETATM   14  C10 UNL     1      24.778  -0.473  52.867  1.00  0.00     0.122 C 
HETATM   15  N1  UNL     1      26.136  -0.856  53.060  1.00  0.00    -0.389 N 
HETATM   16  C11 UNL     1      27.072   0.141  53.432  1.00  0.00     0.036 A 
HETATM   17  H11 UNL     1      26.489  -1.844  52.941  1.00  0.00     0.159 HD
HETATM   18  C12 UNL     1      28.226  -0.130  54.120  1.00  0.00     0.030 A 
HETATM   19  C13 UNL     1      29.120   0.845  54.474  1.00  0.00     0.002 A 
HETATM   20  C14 UNL     1      28.784   2.124  54.094  1.00  0.00     0.001 A 
HETATM   21  C15 UNL     1      27.624   2.462  53.393  1.00  0.00     0.011 A 
HETATM   22  O1  UNL     1      27.009   1.892  50.594  1.00  0.00    -0.290 OA
ENDBRANCH   4   5
TORSDOF 1
ENDMDL
MODEL 4
REMARK VINA RESULT:      -7.9      3.333      5.984
REMARK  1 active torsions:
REMARK  status: ('A' for Active; 'I' for Inactive)
REMARK    1  A    between atoms: C4_4  and  C5_5 
ROOT
HETATM    1  C1  UNL     1      29.424   5.456  48.105  1.00  0.00     0.017 C 
HETATM    2  C2  UNL     1      28.253   5.388  48.416  1.00  0.00    -0.089 C 
HETATM    3  C3  UNL     1      26.850   5.284  48.801  1.00  0.00     0.064 C 
HETATM    4  C4  UNL     1      26.385   4.278  49.510  1.00  0.00     0.024 C 
ENDROOT
BRANCH   4   5
HETATM    5  C5  UNL     1      25.050   3.975  50.000  1.00  0.00     0.009 C 
HETATM    6  C6  UNL     1      24.054   4.739  49.626  1.00  0.00    -0.001 C 
HETATM    7  C7  UNL     1      22.614   4.779  49.882  1.00  0.00     0.114 C 
HETATM    8  S1  UNL     1      22.232   5.111  51.624  1.00  0.00    -0.092 SA
HETATM    9  S2  UNL     1      23.556   4.010  52.886  1.00  0.00    -0.074 SA
HETATM   10  C8  UNL     1      23.998   2.456  52.015  1.00  0.00     0.114 C 
HETATM   11  C9  UNL     1      22.731   1.820  51.562  1.00  0.00     0.054 C 
HETATM   12  C16 UNL     1      24.783   1.602  52.978  1.00  0.00    -0.004 A 
HETATM   13  C17 UNL     1      24.877   2.828  50.887  1.00  0.00     0.183 C 
HETATM   14  C10 UNL     1      22.318   0.581  52.266  1.00  0.00     0.122 C 
HETATM   15  N1  UNL     1      23.360  -0.282  52.710  1.00  0.00    -0.389 N 
HETATM   16  C11 UNL     1      24.500   0.297  53.323  1.00  0.00     0.036 A 
HETATM   17  H11 UNL     1      23.335  -1.332  52.608  1.00  0.00     0.159 HD
HETATM   18  C12 UNL     1      25.296  -0.374  54.215  1.00  0.00     0.030 A 
HETATM   19  C13 UNL     1      26.393   0.199  54.800  1.00  0.00     0.002 A 
HETATM   20  C14 UNL     1      26.648   1.502  54.436  1.00  0.00     0.001 A 
HETATM   21  C15 UNL     1      25.874   2.236  53.534  1.00  0.00     0.011 A 
HETATM   22  O1  UNL     1      25.697   1.874  50.640  1.00  0.00    -0.290 OA
ENDBRANCH   4   5
TORSDOF 1
ENDMDL
MODEL 5
REMARK VINA RESULT:      -7.8      7.935      9.310
REMARK  1 active torsions:
REMARK  status: ('A' for Active; 'I' for Inactive)
REMARK    1  A    between atoms: C4_4  and  C5_5 
ROOT
HETATM    1  C1  UNL     1      25.900   3.168  49.553  1.00  0.00     0.017 C 
HETATM    2  C2  UNL     1      26.475   4.183  49.220  1.00  0.00    -0.089 C 
HETATM    3  C3  UNL     1      27.186   5.390  48.817  1.00  0.00     0.064 C 
HETATM    4  C4  UNL     1      28.442   5.371  48.424  1.00  0.00     0.024 C 
ENDROOT
BRANCH   4   5
HETATM    5  C5  UNL     1      29.335   6.432  47.984  1.00  0.00     0.009 C 
HETATM    6  C6  UNL     1      28.816   7.506  47.442  1.00  0.00    -0.001 C 
HETATM    7  C7  UNL     1      29.342   8.754  46.887  1.00  0.00     0.114 C 
HETATM    8  S1  UNL     1      30.353   8.478  45.407  1.00  0.00    -0.092 SA
HETATM    9  S2  UNL     1      31.604   6.770  45.682  1.00  0.00    -0.074 SA
HETATM   10  C8  UNL     1      32.010   6.655  47.469  1.00  0.00     0.114 C 
HETATM   11  C9  UNL     1      32.500   7.991  47.904  1.00  0.00     0.054 C 
HETATM   12  C16 UNL     1      33.035   5.562  47.633  1.00  0.00    -0.004 A 
HETATM   13  C17 UNL     1      30.772   6.253  48.168  1.00  0.00     0.183 C 
HETATM   14  C10 UNL     1      33.947   8.102  48.215  1.00  0.00     0.122 C 
HETATM   15  N1  UNL     1      34.568   6.958  48.793  1.00  0.00    -0.389 N 
HETATM   16  C11 UNL     1      34.257   5.682  48.260  1.00  0.00     0.036 A 
HETATM   17  H11 UNL     1      35.248   7.005  49.598  1.00  0.00     0.159 HD
HETATM   18  C12 UNL     1      35.103   4.606  48.345  1.00  0.00     0.030 A 
HETATM   19  C13 UNL     1      34.790   3.379  47.824  1.00  0.00     0.002 A 
HETATM   20  C14 UNL     1      33.564   3.292  47.205  1.00  0.00     0.001 A 
HETATM   21  C15 UNL     1      32.661   4.352  47.088  1.00  0.00     0.011 A 
HETATM   22  O1  UNL     1      31.063   5.567  49.211  1.00  0.00    -0.290 OA
ENDBRANCH   4   5
TORSDOF 1
ENDMDL
MODEL 6
REMARK VINA RESULT:      -7.8      8.113      9.647
REMARK  1 active torsions:
REMARK  status: ('A' for Active; 'I' for Inactive)
REMARK    1  A    between atoms: C4_4  and  C5_5 
ROOT
HETATM    1  C1  UNL     1      25.882   5.571  48.962  1.00  0.00     0.017 C 
HETATM    2  C2  UNL     1      27.030   5.748  48.611  1.00  0.00    -0.089 C 
HETATM    3  C3  UNL     1      28.410   5.982  48.203  1.00  0.00     0.064 C 
HETATM    4  C4  UNL     1      29.115   7.002  48.645  1.00  0.00     0.024 C 
ENDROOT
BRANCH   4   5
HETATM    5  C5  UNL     1      30.481   7.423  48.380  1.00  0.00     0.009 C 
HETATM    6  C6  UNL     1      30.711   8.690  48.133  1.00  0.00    -0.001 C 
HETATM    7  C7  UNL     1      31.894   9.496  47.828  1.00  0.00     0.114 C 
HETATM    8  S1  UNL     1      32.652   9.035  46.246  1.00  0.00    -0.092 SA
HETATM    9  S2  UNL     1      32.670   6.912  46.033  1.00  0.00    -0.074 SA
HETATM   10  C8  UNL     1      32.822   6.182  47.711  1.00  0.00     0.114 C 
HETATM   11  C9  UNL     1      33.964   6.852  48.389  1.00  0.00     0.054 C 
HETATM   12  C16 UNL     1      33.016   4.695  47.545  1.00  0.00    -0.004 A 
HETATM   13  C17 UNL     1      31.537   6.417  48.402  1.00  0.00     0.183 C 
HETATM   14  C10 UNL     1      35.187   6.038  48.598  1.00  0.00     0.122 C 
HETATM   15  N1  UNL     1      34.997   4.650  48.855  1.00  0.00    -0.389 N 
HETATM   16  C11 UNL     1      34.042   3.945  48.081  1.00  0.00     0.036 A 
HETATM   17  H11 UNL     1      35.528   4.113  49.593  1.00  0.00     0.159 HD
HETATM   18  C12 UNL     1      34.106   2.595  47.855  1.00  0.00     0.030 A 
HETATM   19  C13 UNL     1      33.176   1.928  47.103  1.00  0.00     0.002 A 
HETATM   20  C14 UNL     1      32.166   2.704  46.582  1.00  0.00     0.001 A 
HETATM   21  C15 UNL     1      32.048   4.083  46.777  1.00  0.00     0.011 A 
HETATM   22  O1  UNL     1      31.314   5.473  49.240  1.00  0.00    -0.290 OA
ENDBRANCH   4   5
TORSDOF 1
ENDMDL
MODEL 7
REMARK VINA RESULT:      -7.5      4.151      7.108
REMARK  1 active torsions:
REMARK  status: ('A' for Active; 'I' for Inactive)
REMARK    1  A    between atoms: C4_4  and  C5_5 
ROOT
HETATM    1  C1  UNL     1      30.586   5.474  48.213  1.00  0.00     0.017 C 
HETATM    2  C2  UNL     1      29.393   5.692  48.235  1.00  0.00    -0.089 C 
HETATM    3  C3  UNL     1      27.955   5.933  48.274  1.00  0.00     0.064 C 
HETATM    4  C4  UNL     1      27.121   5.128  48.897  1.00  0.00     0.024 C 
ENDROOT
BRANCH   4   5
HETATM    5  C5  UNL     1      25.677   5.171  49.064  1.00  0.00     0.009 C 
HETATM    6  C6  UNL     1      25.024   6.220  48.627  1.00  0.00    -0.001 C 
HETATM    7  C7  UNL     1      23.624   6.642  48.600  1.00  0.00     0.114 C 
HETATM    8  S1  UNL     1      22.950   6.900  50.265  1.00  0.00    -0.092 SA
HETATM    9  S2  UNL     1      23.619   5.352  51.573  1.00  0.00    -0.074 SA
HETATM   10  C8  UNL     1      23.836   3.828  50.573  1.00  0.00     0.114 C 
HETATM   11  C9  UNL     1      22.588   3.625  49.789  1.00  0.00     0.054 C 
HETATM   12  C16 UNL     1      24.132   2.697  51.526  1.00  0.00    -0.004 A 
HETATM   13  C17 UNL     1      25.017   4.041  49.710  1.00  0.00     0.183 C 
HETATM   14  C10 UNL     1      21.720   2.492  50.197  1.00  0.00     0.122 C 
HETATM   15  N1  UNL     1      22.375   1.330  50.695  1.00  0.00    -0.389 N 
HETATM   16  C11 UNL     1      23.452   1.499  51.601  1.00  0.00     0.036 A 
HETATM   17  H11 UNL     1      22.106   0.346  50.427  1.00  0.00     0.159 HD
HETATM   18  C12 UNL     1      23.822   0.547  52.515  1.00  0.00     0.030 A 
HETATM   19  C13 UNL     1      24.864   0.725  53.385  1.00  0.00     0.002 A 
HETATM   20  C14 UNL     1      25.522   1.930  53.285  1.00  0.00     0.001 A 
HETATM   21  C15 UNL     1      25.191   2.938  52.375  1.00  0.00     0.011 A 
HETATM   22  O1  UNL     1      25.598   2.922  49.482  1.00  0.00    -0.290 OA
ENDBRANCH   4   5
TORSDOF 1
ENDMDL
MODEL 8
REMARK VINA RESULT:      -7.4      2.791      5.271
REMARK  1 active torsions:
REMARK  status: ('A' for Active; 'I' for Inactive)
REMARK    1  A    between atoms: C4_4  and  C5_5 
ROOT
HETATM    1  C1  UNL     1      18.929  -1.157  53.463  1.00  0.00     0.017 C 
HETATM    2  C2  UNL     1      20.001  -0.590  53.454  1.00  0.00    -0.089 C 
HETATM    3  C3  UNL     1      21.300   0.072  53.432  1.00  0.00     0.064 C 
HETATM    4  C4  UNL     1      22.353  -0.457  52.847  1.00  0.00     0.024 C 
ENDROOT
BRANCH   4   5
HETATM    5  C5  UNL     1      23.721   0.015  52.703  1.00  0.00     0.009 C 
HETATM    6  C6  UNL     1      24.686  -0.677  53.257  1.00  0.00    -0.001 C 
HETATM    7  C7  UNL     1      26.141  -0.553  53.346  1.00  0.00     0.114 C 
HETATM    8  S1  UNL     1      26.651   0.923  54.269  1.00  0.00    -0.092 SA
HETATM    9  S2  UNL     1      25.425   2.585  53.727  1.00  0.00    -0.074 SA
HETATM   10  C8  UNL     1      24.920   2.361  51.977  1.00  0.00     0.114 C 
HETATM   11  C9  UNL     1      26.149   2.080  51.188  1.00  0.00     0.054 C 
HETATM   12  C16 UNL     1      24.209   3.619  51.544  1.00  0.00    -0.004 A 
HETATM   13  C17 UNL     1      23.959   1.239  51.945  1.00  0.00     0.183 C 
HETATM   14  C10 UNL     1      26.614   3.150  50.271  1.00  0.00     0.122 C 
HETATM   15  N1  UNL     1      25.607   3.945  49.652  1.00  0.00    -0.389 N 
HETATM   16  C11 UNL     1      24.517   4.387  50.442  1.00  0.00     0.036 A 
HETATM   17  H11 UNL     1      25.625   4.224  48.634  1.00  0.00     0.159 HD
HETATM   18  C12 UNL     1      23.789   5.514  50.155  1.00  0.00     0.030 A 
HETATM   19  C13 UNL     1      22.739   5.930  50.929  1.00  0.00     0.002 A 
HETATM   20  C14 UNL     1      22.457   5.142  52.021  1.00  0.00     0.001 A 
HETATM   21  C15 UNL     1      23.162   3.985  52.364  1.00  0.00     0.011 A 
HETATM   22  O1  UNL     1      23.123   1.408  50.988  1.00  0.00    -0.290 OA
ENDBRANCH   4   5
TORSDOF 1
ENDMDL
MODEL 9
REMARK VINA RESULT:      -7.4      4.003      6.923
REMARK  1 active torsions:
REMARK  status: ('A' for Active; 'I' for Inactive)
REMARK    1  A    between atoms: C4_4  and  C5_5 
ROOT
HETATM    1  C1  UNL     1      28.093  -0.793  53.089  1.00  0.00     0.017 C 
HETATM    2  C2  UNL     1      26.892  -0.741  53.250  1.00  0.00    -0.089 C 
HETATM    3  C3  UNL     1      25.449  -0.654  53.436  1.00  0.00     0.064 C 
HETATM    4  C4  UNL     1      24.755   0.410  53.093  1.00  0.00     0.024 C 
ENDROOT
BRANCH   4   5
HETATM    5  C5  UNL     1      23.335   0.711  53.182  1.00  0.00     0.009 C 
HETATM    6  C6  UNL     1      22.610   0.065  54.062  1.00  0.00    -0.001 C 
HETATM    7  C7  UNL     1      21.202   0.068  54.459  1.00  0.00     0.114 C 
HETATM    8  S1  UNL     1      20.109  -0.495  53.125  1.00  0.00    -0.092 SA
HETATM    9  S2  UNL     1      20.741   0.335  51.262  1.00  0.00    -0.074 SA
HETATM   10  C8  UNL     1      21.494   1.973  51.605  1.00  0.00     0.114 C 
HETATM   11  C9  UNL     1      20.538   2.737  52.452  1.00  0.00     0.054 C 
HETATM   12  C16 UNL     1      21.772   2.633  50.278  1.00  0.00    -0.004 A 
HETATM   13  C17 UNL     1      22.780   1.723  52.289  1.00  0.00     0.183 C 
HETATM   14  C10 UNL     1      19.844   3.881  51.810  1.00  0.00     0.122 C 
HETATM   15  N1  UNL     1      20.579   4.611  50.834  1.00  0.00    -0.389 N 
HETATM   16  C11 UNL     1      21.350   3.887  49.890  1.00  0.00     0.036 A 
HETATM   17  H11 UNL     1      20.586   5.664  50.772  1.00  0.00     0.159 HD
HETATM   18  C12 UNL     1      21.672   4.375  48.650  1.00  0.00     0.030 A 
HETATM   19  C13 UNL     1      22.416   3.663  47.747  1.00  0.00     0.002 A 
HETATM   20  C14 UNL     1      22.822   2.416  48.165  1.00  0.00     0.001 A 
HETATM   21  C15 UNL     1      22.525   1.865  49.414  1.00  0.00     0.011 A 
HETATM   22  O1  UNL     1      23.612   2.657  52.008  1.00  0.00    -0.290 OA
ENDBRANCH   4   5
TORSDOF 1
ENDMDL
