MODEL 1
REMARK VINA RESULT:      -8.2      0.000      0.000
REMARK  5 active torsions:
REMARK  status: ('A' for Active; 'I' for Inactive)
REMARK    1  A    between atoms: C5_5  and  C6_6 
REMARK    2  A    between atoms: C7_9  and  S1_10 
REMARK    3  A    between atoms: S1_10  and  C8_11 
REMARK    4  A    between atoms: C8_11  and  C9_12 
REMARK    5  A    between atoms: C15_19  and  O2_20 
ROOT
HETATM    1  C6  UNL     1      25.370   1.718  52.696  1.00  0.00     0.206 A 
HETATM    2  N1  UNL     1      24.140   1.473  53.120  1.00  0.00    -0.120 NA
HETATM    3  N2  UNL     1      23.333   2.451  52.721  1.00  0.00    -0.114 NA
HETATM    4  C7  UNL     1      24.082   3.335  52.026  1.00  0.00     0.231 A 
HETATM    5  O1  UNL     1      25.300   2.850  52.040  1.00  0.00    -0.263 OA
ENDROOT
BRANCH   1   6
HETATM    6  C5  UNL     1      26.543   0.851  52.947  1.00  0.00     0.052 A 
HETATM    7  C4  UNL     1      26.553  -0.476  52.574  1.00  0.00     0.019 A 
HETATM    8  C3  UNL     1      27.713  -1.190  52.862  1.00  0.00     0.008 A 
HETATM    9  C2  UNL     1      28.814  -0.634  53.485  1.00  0.00    -0.059 A 
HETATM   10  C1  UNL     1      30.048  -1.382  53.794  1.00  0.00     0.048 C 
HETATM   11  C16 UNL     1      28.776   0.696  53.847  1.00  0.00     0.044 A 
HETATM   12  C15 UNL     1      27.641   1.435  53.576  1.00  0.00     0.080 A 
BRANCH  12  13
HETATM   13  O2  UNL     1      27.665   2.774  53.966  1.00  0.00    -0.360 OA
HETATM   14  H13 UNL     1      27.041   3.188  54.641  1.00  0.00     0.217 HD
ENDBRANCH  12  13
ENDBRANCH   1   6
BRANCH   4  15
HETATM   15  S1  UNL     1      24.041   4.894  51.109  1.00  0.00    -0.078 SA
BRANCH  15  16
HETATM   16  C8  UNL     1      24.362   4.454  49.375  1.00  0.00     0.121 C 
BRANCH  16  17
HETATM   17  C9  UNL     1      25.673   5.005  48.999  1.00  0.00    -0.049 A 
HETATM   18  C10 UNL     1      25.632   6.334  48.569  1.00  0.00     0.008 A 
HETATM   19  C11 UNL     1      26.760   7.019  48.177  1.00  0.00     0.001 A 
HETATM   20  C12 UNL     1      27.974   6.367  48.209  1.00  0.00     0.000 A 
HETATM   21  C13 UNL     1      28.022   5.038  48.638  1.00  0.00     0.001 A 
HETATM   22  C14 UNL     1      26.882   4.352  49.033  1.00  0.00     0.008 A 
ENDBRANCH  16  17
ENDBRANCH  15  16
ENDBRANCH   4  15
TORSDOF 5
ENDMDL
MODEL 2
REMARK VINA RESULT:      -8.0      2.832      5.157
REMARK  5 active torsions:
REMARK  status: ('A' for Active; 'I' for Inactive)
REMARK    1  A    between atoms: C5_5  and  C6_6 
REMARK    2  A    between atoms: C7_9  and  S1_10 
REMARK    3  A    between atoms: S1_10  and  C8_11 
REMARK    4  A    between atoms: C8_11  and  C9_12 
REMARK    5  A    between atoms: C15_19  and  O2_20 
ROOT
HETATM    1  C6  UNL     1      26.396   2.037  51.906  1.00  0.00     0.206 A 
HETATM    2  N1  UNL     1      26.707   2.949  50.998  1.00  0.00    -0.120 NA
HETATM    3  N2  UNL     1      25.630   3.673  50.712  1.00  0.00    -0.114 NA
HETATM    4  C7  UNL     1      24.613   3.198  51.465  1.00  0.00     0.231 A 
HETATM    5  O1  UNL     1      25.124   2.214  52.165  1.00  0.00    -0.263 OA
ENDROOT
BRANCH   1   6
HETATM    6  C5  UNL     1      27.338   1.046  52.472  1.00  0.00     0.052 A 
HETATM    7  C4  UNL     1      27.072  -0.306  52.438  1.00  0.00     0.019 A 
HETATM    8  C3  UNL     1      28.033  -1.140  53.002  1.00  0.00     0.008 A 
HETATM    9  C2  UNL     1      29.202  -0.676  53.573  1.00  0.00    -0.059 A 
HETATM   10  C1  UNL     1      30.227  -1.552  54.173  1.00  0.00     0.048 C 
HETATM   11  C16 UNL     1      29.443   0.682  53.594  1.00  0.00     0.044 A 
HETATM   12  C15 UNL     1      28.511   1.538  53.044  1.00  0.00     0.080 A 
BRANCH  12  13
HETATM   13  O2  UNL     1      28.812   2.900  53.096  1.00  0.00    -0.360 OA
HETATM   14  H13 UNL     1      29.148   3.384  53.914  1.00  0.00     0.217 HD
ENDBRANCH  12  13
ENDBRANCH   1   6
BRANCH   4  15
HETATM   15  S1  UNL     1      22.859   3.400  51.859  1.00  0.00    -0.078 SA
BRANCH  15  16
HETATM   16  C8  UNL     1      22.052   1.866  51.313  1.00  0.00     0.121 C 
BRANCH  16  17
HETATM   17  C9  UNL     1      21.994   0.946  52.460  1.00  0.00    -0.049 A 
HETATM   18  C10 UNL     1      20.878   1.125  53.281  1.00  0.00     0.008 A 
HETATM   19  C11 UNL     1      20.653   0.357  54.401  1.00  0.00     0.001 A 
HETATM   20  C12 UNL     1      21.565  -0.624  54.723  1.00  0.00     0.000 A 
HETATM   21  C13 UNL     1      22.684  -0.809  53.906  1.00  0.00     0.001 A 
HETATM   22  C14 UNL     1      22.906  -0.033  52.778  1.00  0.00     0.008 A 
ENDBRANCH  16  17
ENDBRANCH  15  16
ENDBRANCH   4  15
TORSDOF 5
ENDMDL
MODEL 3
REMARK VINA RESULT:      -7.8      1.767      6.785
REMARK  5 active torsions:
REMARK  status: ('A' for Active; 'I' for Inactive)
REMARK    1  A    between atoms: C5_5  and  C6_6 
REMARK    2  A    between atoms: C7_9  and  S1_10 
REMARK    3  A    between atoms: S1_10  and  C8_11 
REMARK    4  A    between atoms: C8_11  and  C9_12 
REMARK    5  A    between atoms: C15_19  and  O2_20 
ROOT
HETATM    1  C6  UNL     1      25.019   3.077  50.574  1.00  0.00     0.206 A 
HETATM    2  N1  UNL     1      23.796   2.685  50.254  1.00  0.00    -0.120 NA
HETATM    3  N2  UNL     1      23.405   1.729  51.090  1.00  0.00    -0.114 NA
HETATM    4  C7  UNL     1      24.416   1.516  51.961  1.00  0.00     0.231 A 
HETATM    5  O1  UNL     1      25.365   2.351  51.609  1.00  0.00    -0.263 OA
ENDROOT
BRANCH   1   6
HETATM    6  C5  UNL     1      25.787   4.127  49.868  1.00  0.00     0.052 A 
HETATM    7  C4  UNL     1      26.964   3.841  49.209  1.00  0.00     0.019 A 
HETATM    8  C3  UNL     1      27.596   4.911  48.582  1.00  0.00     0.008 A 
HETATM    9  C2  UNL     1      27.103   6.201  48.597  1.00  0.00    -0.059 A 
HETATM   10  C1  UNL     1      27.765   7.342  47.934  1.00  0.00     0.048 C 
HETATM   11  C16 UNL     1      25.924   6.458  49.264  1.00  0.00     0.044 A 
HETATM   12  C15 UNL     1      25.269   5.421  49.898  1.00  0.00     0.080 A 
BRANCH  12  13
HETATM   13  O2  UNL     1      24.082   5.746  50.555  1.00  0.00    -0.360 OA
HETATM   14  H13 UNL     1      23.175   5.786  50.118  1.00  0.00     0.217 HD
ENDBRANCH  12  13
ENDBRANCH   1   6
BRANCH   4  15
HETATM   15  S1  UNL     1      24.943   0.540  53.390  1.00  0.00    -0.078 SA
BRANCH  15  16
HETATM   16  C8  UNL     1      26.660   1.038  53.721  1.00  0.00     0.121 C 
BRANCH  16  17
HETATM   17  C9  UNL     1      27.525  -0.133  53.510  1.00  0.00    -0.049 A 
HETATM   18  C10 UNL     1      26.872  -1.231  52.946  1.00  0.00     0.008 A 
HETATM   19  C11 UNL     1      27.518  -2.417  52.675  1.00  0.00     0.001 A 
HETATM   20  C12 UNL     1      28.859  -2.521  52.973  1.00  0.00     0.000 A 
HETATM   21  C13 UNL     1      29.519  -1.425  53.538  1.00  0.00     0.001 A 
HETATM   22  C14 UNL     1      28.863  -0.233  53.808  1.00  0.00     0.008 A 
ENDBRANCH  16  17
ENDBRANCH  15  16
ENDBRANCH   4  15
TORSDOF 5
ENDMDL
MODEL 4
REMARK VINA RESULT:      -7.6      1.497      2.209
REMARK  5 active torsions:
REMARK  status: ('A' for Active; 'I' for Inactive)
REMARK    1  A    between atoms: C5_5  and  C6_6 
REMARK    2  A    between atoms: C7_9  and  S1_10 
REMARK    3  A    between atoms: S1_10  and  C8_11 
REMARK    4  A    between atoms: C8_11  and  C9_12 
REMARK    5  A    between atoms: C15_19  and  O2_20 
ROOT
HETATM    1  C6  UNL     1      24.205   3.074  52.088  1.00  0.00     0.206 A 
HETATM    2  N1  UNL     1      22.954   3.309  52.451  1.00  0.00    -0.120 NA
HETATM    3  N2  UNL     1      22.625   4.553  52.120  1.00  0.00    -0.114 NA
HETATM    4  C7  UNL     1      23.704   5.114  51.531  1.00  0.00     0.231 A 
HETATM    5  O1  UNL     1      24.629   4.184  51.536  1.00  0.00    -0.263 OA
ENDROOT
BRANCH   1   6
HETATM    6  C5  UNL     1      24.924   1.796  52.293  1.00  0.00     0.052 A 
HETATM    7  C4  UNL     1      24.268   0.658  52.714  1.00  0.00     0.019 A 
HETATM    8  C3  UNL     1      25.050  -0.483  52.871  1.00  0.00     0.008 A 
HETATM    9  C2  UNL     1      26.410  -0.513  52.627  1.00  0.00    -0.059 A 
HETATM   10  C1  UNL     1      27.247  -1.718  52.790  1.00  0.00     0.048 C 
HETATM   11  C16 UNL     1      27.039   0.640  52.208  1.00  0.00     0.044 A 
HETATM   12  C15 UNL     1      26.295   1.791  52.042  1.00  0.00     0.080 A 
BRANCH  12  13
HETATM   13  O2  UNL     1      26.990   2.923  51.615  1.00  0.00    -0.360 OA
HETATM   14  H13 UNL     1      26.960   3.822  52.071  1.00  0.00     0.217 HD
ENDBRANCH  12  13
ENDBRANCH   1   6
BRANCH   4  15
HETATM   15  S1  UNL     1      24.339   6.622  50.760  1.00  0.00    -0.078 SA
BRANCH  15  16
HETATM   16  C8  UNL     1      24.477   6.248  48.986  1.00  0.00     0.121 C 
BRANCH  16  17
HETATM   17  C9  UNL     1      25.901   6.293  48.618  1.00  0.00    -0.049 A 
HETATM   18  C10 UNL     1      26.595   5.108  48.876  1.00  0.00     0.008 A 
HETATM   19  C11 UNL     1      27.935   4.961  48.598  1.00  0.00     0.001 A 
HETATM   20  C12 UNL     1      28.616   6.024  48.045  1.00  0.00     0.000 A 
HETATM   21  C13 UNL     1      27.927   7.212  47.785  1.00  0.00     0.001 A 
HETATM   22  C14 UNL     1      26.576   7.355  48.066  1.00  0.00     0.008 A 
ENDBRANCH  16  17
ENDBRANCH  15  16
ENDBRANCH   4  15
TORSDOF 5
ENDMDL
MODEL 5
REMARK VINA RESULT:      -7.4      2.725      4.559
REMARK  5 active torsions:
REMARK  status: ('A' for Active; 'I' for Inactive)
REMARK    1  A    between atoms: C5_5  and  C6_6 
REMARK    2  A    between atoms: C7_9  and  S1_10 
REMARK    3  A    between atoms: S1_10  and  C8_11 
REMARK    4  A    between atoms: C8_11  and  C9_12 
REMARK    5  A    between atoms: C15_19  and  O2_20 
ROOT
HETATM    1  C6  UNL     1      25.602   2.056  52.571  1.00  0.00     0.206 A 
HETATM    2  N1  UNL     1      24.930   2.737  53.485  1.00  0.00    -0.120 NA
HETATM    3  N2  UNL     1      24.025   3.504  52.886  1.00  0.00    -0.114 NA
HETATM    4  C7  UNL     1      24.135   3.296  51.556  1.00  0.00     0.231 A 
HETATM    5  O1  UNL     1      25.098   2.416  51.416  1.00  0.00    -0.263 OA
ENDROOT
BRANCH   1   6
HETATM    6  C5  UNL     1      26.692   1.096  52.857  1.00  0.00     0.052 A 
HETATM    7  C4  UNL     1      26.626  -0.217  52.443  1.00  0.00     0.019 A 
HETATM    8  C3  UNL     1      27.712  -1.024  52.772  1.00  0.00     0.008 A 
HETATM    9  C2  UNL     1      28.813  -0.570  53.473  1.00  0.00    -0.059 A 
HETATM   10  C1  UNL     1      29.969  -1.417  53.825  1.00  0.00     0.048 C 
HETATM   11  C16 UNL     1      28.852   0.749  53.875  1.00  0.00     0.044 A 
HETATM   12  C15 UNL     1      27.792   1.578  53.566  1.00  0.00     0.080 A 
BRANCH  12  13
HETATM   13  O2  UNL     1      27.892   2.900  54.000  1.00  0.00    -0.360 OA
HETATM   14  H13 UNL     1      27.110   3.480  54.262  1.00  0.00     0.217 HD
ENDBRANCH  12  13
ENDBRANCH   1   6
BRANCH   4  15
HETATM   15  S1  UNL     1      23.474   3.760  49.936  1.00  0.00    -0.078 SA
BRANCH  15  16
HETATM   16  C8  UNL     1      22.431   2.367  49.412  1.00  0.00     0.121 C 
BRANCH  16  17
HETATM   17  C9  UNL     1      21.562   1.996  50.540  1.00  0.00    -0.049 A 
HETATM   18  C10 UNL     1      21.727   0.679  50.979  1.00  0.00     0.008 A 
HETATM   19  C11 UNL     1      21.002   0.152  52.024  1.00  0.00     0.001 A 
HETATM   20  C12 UNL     1      20.079   0.955  52.659  1.00  0.00     0.000 A 
HETATM   21  C13 UNL     1      19.910   2.273  52.225  1.00  0.00     0.001 A 
HETATM   22  C14 UNL     1      20.644   2.800  51.172  1.00  0.00     0.008 A 
ENDBRANCH  16  17
ENDBRANCH  15  16
ENDBRANCH   4  15
TORSDOF 5
ENDMDL
MODEL 6
REMARK VINA RESULT:      -7.3      1.467      2.179
REMARK  5 active torsions:
REMARK  status: ('A' for Active; 'I' for Inactive)
REMARK    1  A    between atoms: C5_5  and  C6_6 
REMARK    2  A    between atoms: C7_9  and  S1_10 
REMARK    3  A    between atoms: S1_10  and  C8_11 
REMARK    4  A    between atoms: C8_11  and  C9_12 
REMARK    5  A    between atoms: C15_19  and  O2_20 
ROOT
HETATM    1  C6  UNL     1      24.578   0.678  53.068  1.00  0.00     0.206 A 
HETATM    2  N1  UNL     1      23.514   0.010  53.485  1.00  0.00    -0.120 NA
HETATM    3  N2  UNL     1      22.420   0.718  53.226  1.00  0.00    -0.114 NA
HETATM    4  C7  UNL     1      22.812   1.865  52.628  1.00  0.00     0.231 A 
HETATM    5  O1  UNL     1      24.120   1.794  52.557  1.00  0.00    -0.263 OA
ENDROOT
BRANCH   1   6
HETATM    6  C5  UNL     1      25.977   0.207  53.186  1.00  0.00     0.052 A 
HETATM    7  C4  UNL     1      26.336  -1.081  52.851  1.00  0.00     0.019 A 
HETATM    8  C3  UNL     1      27.680  -1.407  53.004  1.00  0.00     0.008 A 
HETATM    9  C2  UNL     1      28.632  -0.517  53.463  1.00  0.00    -0.059 A 
HETATM   10  C1  UNL     1      30.060  -0.853  53.628  1.00  0.00     0.048 C 
HETATM   11  C16 UNL     1      28.245   0.765  53.791  1.00  0.00     0.044 A 
HETATM   12  C15 UNL     1      26.919   1.124  53.652  1.00  0.00     0.080 A 
BRANCH  12  13
HETATM   13  O2  UNL     1      26.590   2.434  54.000  1.00  0.00    -0.360 OA
HETATM   14  H13 UNL     1      25.755   2.706  54.494  1.00  0.00     0.217 HD
ENDBRANCH  12  13
ENDBRANCH   1   6
BRANCH   4  15
HETATM   15  S1  UNL     1      22.231   3.421  51.910  1.00  0.00    -0.078 SA
BRANCH  15  16
HETATM   16  C8  UNL     1      23.471   4.668  52.370  1.00  0.00     0.121 C 
BRANCH  16  17
HETATM   17  C9  UNL     1      24.032   5.234  51.133  1.00  0.00    -0.049 A 
HETATM   18  C10 UNL     1      24.956   4.403  50.493  1.00  0.00     0.008 A 
HETATM   19  C11 UNL     1      25.586   4.762  49.322  1.00  0.00     0.001 A 
HETATM   20  C12 UNL     1      25.293   5.987  48.764  1.00  0.00     0.000 A 
HETATM   21  C13 UNL     1      24.370   6.823  49.399  1.00  0.00     0.001 A 
HETATM   22  C14 UNL     1      23.737   6.456  50.578  1.00  0.00     0.008 A 
ENDBRANCH  16  17
ENDBRANCH  15  16
ENDBRANCH   4  15
TORSDOF 5
ENDMDL
MODEL 7
REMARK VINA RESULT:      -7.2      1.952      6.422
REMARK  5 active torsions:
REMARK  status: ('A' for Active; 'I' for Inactive)
REMARK    1  A    between atoms: C5_5  and  C6_6 
REMARK    2  A    between atoms: C7_9  and  S1_10 
REMARK    3  A    between atoms: S1_10  and  C8_11 
REMARK    4  A    between atoms: C8_11  and  C9_12 
REMARK    5  A    between atoms: C15_19  and  O2_20 
ROOT
HETATM    1  C6  UNL     1      24.538   4.598  49.642  1.00  0.00     0.206 A 
HETATM    2  N1  UNL     1      23.288   4.777  49.248  1.00  0.00    -0.120 NA
HETATM    3  N2  UNL     1      22.481   4.015  49.981  1.00  0.00    -0.114 NA
HETATM    4  C7  UNL     1      23.253   3.339  50.860  1.00  0.00     0.231 A 
HETATM    5  O1  UNL     1      24.483   3.724  50.616  1.00  0.00    -0.263 OA
ENDROOT
BRANCH   1   6
HETATM    6  C5  UNL     1      25.717   5.278  49.059  1.00  0.00     0.052 A 
HETATM    7  C4  UNL     1      25.633   6.552  48.540  1.00  0.00     0.019 A 
HETATM    8  C3  UNL     1      26.809   7.086  48.020  1.00  0.00     0.008 A 
HETATM    9  C2  UNL     1      28.012   6.408  48.007  1.00  0.00    -0.059 A 
HETATM   10  C1  UNL     1      29.264   6.966  47.459  1.00  0.00     0.048 C 
HETATM   11  C16 UNL     1      28.067   5.135  48.533  1.00  0.00     0.044 A 
HETATM   12  C15 UNL     1      26.920   4.573  49.058  1.00  0.00     0.080 A 
BRANCH  12  13
HETATM   13  O2  UNL     1      27.041   3.283  49.575  1.00  0.00    -0.360 OA
HETATM   14  H13 UNL     1      26.525   2.929  50.365  1.00  0.00     0.217 HD
ENDBRANCH  12  13
ENDBRANCH   1   6
BRANCH   4  15
HETATM   15  S1  UNL     1      23.232   2.135  52.210  1.00  0.00    -0.078 SA
BRANCH  15  16
HETATM   16  C8  UNL     1      24.561   2.641  53.342  1.00  0.00     0.121 C 
BRANCH  16  17
HETATM   17  C9  UNL     1      25.672   1.687  53.201  1.00  0.00    -0.049 A 
HETATM   18  C10 UNL     1      25.270   0.382  52.904  1.00  0.00     0.008 A 
HETATM   19  C11 UNL     1      26.167  -0.648  52.734  1.00  0.00     0.001 A 
HETATM   20  C12 UNL     1      27.513  -0.379  52.863  1.00  0.00     0.000 A 
HETATM   21  C13 UNL     1      27.922   0.924  53.159  1.00  0.00     0.001 A 
HETATM   22  C14 UNL     1      27.013   1.959  53.328  1.00  0.00     0.008 A 
ENDBRANCH  16  17
ENDBRANCH  15  16
ENDBRANCH   4  15
TORSDOF 5
ENDMDL
MODEL 8
REMARK VINA RESULT:      -7.2      3.317      7.537
REMARK  5 active torsions:
REMARK  status: ('A' for Active; 'I' for Inactive)
REMARK    1  A    between atoms: C5_5  and  C6_6 
REMARK    2  A    between atoms: C7_9  and  S1_10 
REMARK    3  A    between atoms: S1_10  and  C8_11 
REMARK    4  A    between atoms: C8_11  and  C9_12 
REMARK    5  A    between atoms: C15_19  and  O2_20 
ROOT
HETATM    1  C6  UNL     1      24.973   5.179  49.503  1.00  0.00     0.206 A 
HETATM    2  N1  UNL     1      23.726   5.145  49.063  1.00  0.00    -0.120 NA
HETATM    3  N2  UNL     1      22.975   4.458  49.918  1.00  0.00    -0.114 NA
HETATM    4  C7  UNL     1      23.779   4.050  50.924  1.00  0.00     0.231 A 
HETATM    5  O1  UNL     1      24.972   4.509  50.628  1.00  0.00    -0.263 OA
ENDROOT
BRANCH   1   6
HETATM    6  C5  UNL     1      26.098   5.855  48.816  1.00  0.00     0.052 A 
HETATM    7  C4  UNL     1      25.927   7.053  48.157  1.00  0.00     0.019 A 
HETATM    8  C3  UNL     1      27.058   7.591  47.550  1.00  0.00     0.008 A 
HETATM    9  C2  UNL     1      28.300   6.987  47.584  1.00  0.00    -0.059 A 
HETATM   10  C1  UNL     1      29.505   7.550  46.944  1.00  0.00     0.048 C 
HETATM   11  C16 UNL     1      28.442   5.788  48.250  1.00  0.00     0.044 A 
HETATM   12  C15 UNL     1      27.341   5.225  48.864  1.00  0.00     0.080 A 
BRANCH  12  13
HETATM   13  O2  UNL     1      27.550   4.012  49.521  1.00  0.00    -0.360 OA
HETATM   14  H13 UNL     1      26.820   3.372  49.793  1.00  0.00     0.217 HD
ENDBRANCH  12  13
ENDBRANCH   1   6
BRANCH   4  15
HETATM   15  S1  UNL     1      23.832   3.134  52.483  1.00  0.00    -0.078 SA
BRANCH  15  16
HETATM   16  C8  UNL     1      23.784   1.376  52.023  1.00  0.00     0.121 C 
BRANCH  16  17
HETATM   17  C9  UNL     1      22.877   0.684  52.952  1.00  0.00    -0.049 A 
HETATM   18  C10 UNL     1      23.487  -0.327  53.699  1.00  0.00     0.008 A 
HETATM   19  C11 UNL     1      22.799  -1.083  54.621  1.00  0.00     0.001 A 
HETATM   20  C12 UNL     1      21.457  -0.833  54.810  1.00  0.00     0.000 A 
HETATM   21  C13 UNL     1      20.840   0.177  54.065  1.00  0.00     0.001 A 
HETATM   22  C14 UNL     1      21.539   0.937  53.139  1.00  0.00     0.008 A 
ENDBRANCH  16  17
ENDBRANCH  15  16
ENDBRANCH   4  15
TORSDOF 5
ENDMDL
MODEL 9
REMARK VINA RESULT:      -7.1      3.728      4.671
REMARK  5 active torsions:
REMARK  status: ('A' for Active; 'I' for Inactive)
REMARK    1  A    between atoms: C5_5  and  C6_6 
REMARK    2  A    between atoms: C7_9  and  S1_10 
REMARK    3  A    between atoms: S1_10  and  C8_11 
REMARK    4  A    between atoms: C8_11  and  C9_12 
REMARK    5  A    between atoms: C15_19  and  O2_20 
ROOT
HETATM    1  C6  UNL     1      22.188   3.801  51.567  1.00  0.00     0.206 A 
HETATM    2  N1  UNL     1      21.767   4.960  52.046  1.00  0.00    -0.120 NA
HETATM    3  N2  UNL     1      21.977   5.913  51.143  1.00  0.00    -0.114 NA
HETATM    4  C7  UNL     1      22.548   5.331  50.066  1.00  0.00     0.231 A 
HETATM    5  O1  UNL     1      22.655   4.059  50.370  1.00  0.00    -0.263 OA
ENDROOT
BRANCH   1   6
HETATM    6  C5  UNL     1      22.120   2.509  52.287  1.00  0.00     0.052 A 
HETATM    7  C4  UNL     1      23.241   1.731  52.482  1.00  0.00     0.019 A 
HETATM    8  C3  UNL     1      23.052   0.538  53.173  1.00  0.00     0.008 A 
HETATM    9  C2  UNL     1      21.825   0.122  53.653  1.00  0.00    -0.059 A 
HETATM   10  C1  UNL     1      21.615  -1.140  54.388  1.00  0.00     0.048 C 
HETATM   11  C16 UNL     1      20.720   0.921  53.443  1.00  0.00     0.044 A 
HETATM   12  C15 UNL     1      20.871   2.112  52.761  1.00  0.00     0.080 A 
BRANCH  12  13
HETATM   13  O2  UNL     1      19.716   2.874  52.582  1.00  0.00    -0.360 OA
HETATM   14  H13 UNL     1      18.906   2.577  52.061  1.00  0.00     0.217 HD
ENDBRANCH  12  13
ENDBRANCH   1   6
BRANCH   4  15
HETATM   15  S1  UNL     1      23.205   5.633  48.407  1.00  0.00    -0.078 SA
BRANCH  15  16
HETATM   16  C8  UNL     1      24.484   6.909  48.610  1.00  0.00     0.121 C 
BRANCH  16  17
HETATM   17  C9  UNL     1      25.798   6.247  48.593  1.00  0.00    -0.049 A 
HETATM   18  C10 UNL     1      26.834   7.047  48.105  1.00  0.00     0.008 A 
HETATM   19  C11 UNL     1      28.133   6.600  48.014  1.00  0.00     0.001 A 
HETATM   20  C12 UNL     1      28.419   5.314  48.419  1.00  0.00     0.000 A 
HETATM   21  C13 UNL     1      27.386   4.508  48.908  1.00  0.00     0.001 A 
HETATM   22  C14 UNL     1      26.079   4.964  48.999  1.00  0.00     0.008 A 
ENDBRANCH  16  17
ENDBRANCH  15  16
ENDBRANCH   4  15
TORSDOF 5
ENDMDL
