MODEL 1
REMARK VINA RESULT:      -7.6      0.000      0.000
REMARK  9 active torsions:
REMARK  status: ('A' for Active; 'I' for Inactive)
REMARK    1  A    between atoms: O1_2  and  C2_3 
REMARK    2  A    between atoms: C6_9  and  N3_10 
REMARK    3  A    between atoms: N3_10  and  C7_11 
REMARK    4  A    between atoms: C15_21  and  O2_22 
REMARK    5  A    between atoms: O2_22  and  C16_23 
REMARK    6  A    between atoms: C16_23  and  C17_24 
REMARK    7  A    between atoms: C17_24  and  N4_25 
REMARK    8  A    between atoms: C17_24  and  C18_26 
REMARK    9  A    between atoms: C18_26  and  N5_27 
ROOT
HETATM    1  C2  UNL     1      24.878  -0.194  53.639  1.00  0.00     0.103 A 
HETATM    2  C3  UNL     1      23.505  -0.464  53.659  1.00  0.00     0.072 A 
HETATM    3  C4  UNL     1      22.724   0.177  52.722  1.00  0.00     0.075 A 
HETATM    4  N1  UNL     1      21.407  -0.085  52.743  1.00  0.00    -0.241 NA
HETATM    5  C5  UNL     1      20.582   0.503  51.861  1.00  0.00     0.236 A 
HETATM    6  N2  UNL     1      21.054   1.354  50.950  1.00  0.00    -0.224 NA
HETATM    7  C6  UNL     1      22.355   1.655  50.878  1.00  0.00     0.142 A 
HETATM    8  C13 UNL     1      23.197   1.056  51.777  1.00  0.00     0.042 A 
HETATM    9  C14 UNL     1      24.552   1.252  51.844  1.00  0.00     0.057 A 
HETATM   10  C15 UNL     1      25.459   0.689  52.714  1.00  0.00     0.103 A 
ENDROOT
BRANCH   7  11
HETATM   11  N3  UNL     1      22.901   2.550  49.926  1.00  0.00    -0.340 N 
HETATM   12  H6  UNL     1      22.818   2.389  48.914  1.00  0.00     0.167 HD
BRANCH  11  13
HETATM   13  C7  UNL     1      23.621   3.754  50.122  1.00  0.00     0.035 A 
HETATM   14  C8  UNL     1      23.249   4.782  50.999  1.00  0.00     0.032 A 
HETATM   15  C9  UNL     1      23.985   5.931  51.143  1.00  0.00     0.046 A 
HETATM   16  C10 UNL     1      25.139   6.155  50.438  1.00  0.00     0.138 A 
HETATM   17  F1  UNL     1      25.788   7.302  50.645  1.00  0.00    -0.204 F 
HETATM   18  C11 UNL     1      25.546   5.153  49.551  1.00  0.00     0.074 A 
HETATM   19 CL1  UNL     1      27.023   5.482  48.675  1.00  0.00    -0.081 Cl
HETATM   20  C12 UNL     1      24.782   4.014  49.434  1.00  0.00     0.056 A 
ENDBRANCH  11  13
ENDBRANCH   7  11
BRANCH  10  21
HETATM   21  O2  UNL     1      26.740   0.761  52.911  1.00  0.00    -0.346 OA
BRANCH  21  22
HETATM   22  C16 UNL     1      27.892   1.396  53.030  1.00  0.00     0.213 C 
BRANCH  22  23
HETATM   23  C17 UNL     1      28.727   1.025  54.219  1.00  0.00     0.269 C 
BRANCH  23  24
HETATM   24  N4  UNL     1      29.618   2.108  54.616  1.00  0.00     0.086 N 
HETATM   25  H14 UNL     1      29.152   2.845  55.178  1.00  0.00     0.313 HD
HETATM   26  H15 UNL     1      30.361   1.685  55.216  1.00  0.00     0.313 HD
ENDBRANCH  23  24
BRANCH  23  27
HETATM   27  C18 UNL     1      29.438  -0.256  54.034  1.00  0.00     0.304 C 
BRANCH  27  28
HETATM   28  N5  UNL     1      28.513  -1.340  53.682  1.00  0.00     0.080 N 
HETATM   29  H18 UNL     1      29.053  -2.056  53.157  1.00  0.00     0.312 HD
HETATM   30  H19 UNL     1      27.796  -0.913  53.060  1.00  0.00     0.312 HD
ENDBRANCH  27  28
ENDBRANCH  23  27
ENDBRANCH  22  23
ENDBRANCH  21  22
ENDBRANCH  10  21
BRANCH   1  31
HETATM   31  O1  UNL     1      25.574  -0.890  54.623  1.00  0.00    -0.353 OA
HETATM   32  C1  UNL     1      25.163  -0.967  55.951  1.00  0.00     0.210 C 
ENDBRANCH   1  31
TORSDOF 9
ENDMDL
MODEL 2
REMARK VINA RESULT:      -7.6      3.737      6.521
REMARK  9 active torsions:
REMARK  status: ('A' for Active; 'I' for Inactive)
REMARK    1  A    between atoms: O1_2  and  C2_3 
REMARK    2  A    between atoms: C6_9  and  N3_10 
REMARK    3  A    between atoms: N3_10  and  C7_11 
REMARK    4  A    between atoms: C15_21  and  O2_22 
REMARK    5  A    between atoms: O2_22  and  C16_23 
REMARK    6  A    between atoms: C16_23  and  C17_24 
REMARK    7  A    between atoms: C17_24  and  N4_25 
REMARK    8  A    between atoms: C17_24  and  C18_26 
REMARK    9  A    between atoms: C18_26  and  N5_27 
ROOT
HETATM    1  C2  UNL     1      22.814   3.110  49.969  1.00  0.00     0.103 A 
HETATM    2  C3  UNL     1      22.151   1.945  50.371  1.00  0.00     0.072 A 
HETATM    3  C4  UNL     1      22.694   1.245  51.426  1.00  0.00     0.075 A 
HETATM    4  N1  UNL     1      22.056   0.127  51.811  1.00  0.00    -0.241 NA
HETATM    5  C5  UNL     1      22.526  -0.608  52.831  1.00  0.00     0.236 A 
HETATM    6  N2  UNL     1      23.631  -0.243  53.481  1.00  0.00    -0.224 NA
HETATM    7  C6  UNL     1      24.311   0.859  53.147  1.00  0.00     0.142 A 
HETATM    8  C13 UNL     1      23.832   1.610  52.105  1.00  0.00     0.042 A 
HETATM    9  C14 UNL     1      24.404   2.763  51.634  1.00  0.00     0.057 A 
HETATM   10  C15 UNL     1      23.984   3.567  50.598  1.00  0.00     0.103 A 
ENDROOT
BRANCH   7  11
HETATM   11  N3  UNL     1      25.487   1.287  53.810  1.00  0.00    -0.340 N 
HETATM   12  H6  UNL     1      25.491   2.094  54.447  1.00  0.00     0.167 HD
BRANCH  11  13
HETATM   13  C7  UNL     1      26.800   0.761  53.757  1.00  0.00     0.035 A 
HETATM   14  C8  UNL     1      27.971   1.489  54.012  1.00  0.00     0.032 A 
HETATM   15  C9  UNL     1      29.220   0.925  53.940  1.00  0.00     0.046 A 
HETATM   16  C10 UNL     1      29.412  -0.391  53.613  1.00  0.00     0.138 A 
HETATM   17  F1  UNL     1      30.664  -0.851  53.568  1.00  0.00    -0.204 F 
HETATM   18  C11 UNL     1      28.269  -1.153  53.350  1.00  0.00     0.074 A 
HETATM   19 CL1  UNL     1      28.562  -2.828  52.938  1.00  0.00    -0.081 Cl
HETATM   20  C12 UNL     1      27.033  -0.554  53.432  1.00  0.00     0.056 A 
ENDBRANCH  11  13
ENDBRANCH   7  11
BRANCH  10  21
HETATM   21  O2  UNL     1      24.393   4.663  50.035  1.00  0.00    -0.346 OA
BRANCH  21  22
HETATM   22  C16 UNL     1      25.313   5.503  49.596  1.00  0.00     0.213 C 
BRANCH  22  23
HETATM   23  C17 UNL     1      25.144   6.936  50.007  1.00  0.00     0.269 C 
BRANCH  23  24
HETATM   24  N4  UNL     1      26.376   7.494  50.551  1.00  0.00     0.086 N 
HETATM   25  H14 UNL     1      26.929   6.814  51.107  1.00  0.00     0.313 HD
HETATM   26  H15 UNL     1      26.965   7.780  49.737  1.00  0.00     0.313 HD
ENDBRANCH  23  24
BRANCH  23  27
HETATM   27  C18 UNL     1      23.987   7.136  50.902  1.00  0.00     0.304 C 
BRANCH  27  28
HETATM   28  N5  UNL     1      24.305   6.766  52.287  1.00  0.00     0.080 N 
HETATM   29  H18 UNL     1      23.464   6.962  52.865  1.00  0.00     0.312 HD
HETATM   30  H19 UNL     1      25.086   7.389  52.577  1.00  0.00     0.312 HD
ENDBRANCH  27  28
ENDBRANCH  23  27
ENDBRANCH  22  23
ENDBRANCH  21  22
ENDBRANCH  10  21
BRANCH   1  31
HETATM   31  O1  UNL     1      22.186   3.741  48.898  1.00  0.00    -0.353 OA
HETATM   32  C1  UNL     1      21.115   4.618  49.041  1.00  0.00     0.210 C 
ENDBRANCH   1  31
TORSDOF 9
ENDMDL
MODEL 3
REMARK VINA RESULT:      -7.5      3.404      5.960
REMARK  9 active torsions:
REMARK  status: ('A' for Active; 'I' for Inactive)
REMARK    1  A    between atoms: O1_2  and  C2_3 
REMARK    2  A    between atoms: C6_9  and  N3_10 
REMARK    3  A    between atoms: N3_10  and  C7_11 
REMARK    4  A    between atoms: C15_21  and  O2_22 
REMARK    5  A    between atoms: O2_22  and  C16_23 
REMARK    6  A    between atoms: C16_23  and  C17_24 
REMARK    7  A    between atoms: C17_24  and  N4_25 
REMARK    8  A    between atoms: C17_24  and  C18_26 
REMARK    9  A    between atoms: C18_26  and  N5_27 
ROOT
HETATM    1  C2  UNL     1      21.309   2.588  51.698  1.00  0.00     0.103 A 
HETATM    2  C3  UNL     1      20.794   1.835  52.760  1.00  0.00     0.072 A 
HETATM    3  C4  UNL     1      21.614   0.873  53.305  1.00  0.00     0.075 A 
HETATM    4  N1  UNL     1      21.118   0.152  54.324  1.00  0.00    -0.241 NA
HETATM    5  C5  UNL     1      21.859  -0.805  54.905  1.00  0.00     0.236 A 
HETATM    6  N2  UNL     1      23.099  -1.056  54.484  1.00  0.00    -0.224 NA
HETATM    7  C6  UNL     1      23.650  -0.373  53.476  1.00  0.00     0.142 A 
HETATM    8  C13 UNL     1      22.894   0.603  52.881  1.00  0.00     0.042 A 
HETATM    9  C14 UNL     1      23.303   1.394  51.839  1.00  0.00     0.057 A 
HETATM   10  C15 UNL     1      22.605   2.390  51.193  1.00  0.00     0.103 A 
ENDROOT
BRANCH   7  11
HETATM   11  N3  UNL     1      24.963  -0.603  52.998  1.00  0.00    -0.340 N 
HETATM   12  H6  UNL     1      25.169  -1.316  52.287  1.00  0.00     0.167 HD
BRANCH  11  13
HETATM   13  C7  UNL     1      26.180   0.030  53.350  1.00  0.00     0.035 A 
HETATM   14  C8  UNL     1      26.319   1.386  53.678  1.00  0.00     0.032 A 
HETATM   15  C9  UNL     1      27.528   1.945  54.006  1.00  0.00     0.046 A 
HETATM   16  C10 UNL     1      28.687   1.217  54.039  1.00  0.00     0.138 A 
HETATM   17  F1  UNL     1      29.816   1.847  54.371  1.00  0.00    -0.204 F 
HETATM   18  C11 UNL     1      28.593  -0.141  53.719  1.00  0.00     0.074 A 
HETATM   19 CL1  UNL     1      30.097  -1.032  53.774  1.00  0.00    -0.081 Cl
HETATM   20  C12 UNL     1      27.363  -0.667  53.394  1.00  0.00     0.056 A 
ENDBRANCH  11  13
ENDBRANCH   7  11
BRANCH  10  21
HETATM   21  O2  UNL     1      22.832   3.214  50.216  1.00  0.00    -0.346 OA
BRANCH  21  22
HETATM   22  C16 UNL     1      23.532   4.130  49.571  1.00  0.00     0.213 C 
BRANCH  22  23
HETATM   23  C17 UNL     1      24.437   4.980  50.413  1.00  0.00     0.269 C 
BRANCH  23  24
HETATM   24  N4  UNL     1      25.614   4.245  50.857  1.00  0.00     0.086 N 
HETATM   25  H14 UNL     1      26.118   4.702  51.641  1.00  0.00     0.313 HD
HETATM   26  H15 UNL     1      25.281   3.318  51.202  1.00  0.00     0.313 HD
ENDBRANCH  23  24
BRANCH  23  27
HETATM   27  C18 UNL     1      23.724   5.635  51.527  1.00  0.00     0.304 C 
BRANCH  27  28
HETATM   28  N5  UNL     1      24.377   6.889  51.922  1.00  0.00     0.080 N 
HETATM   29  H18 UNL     1      24.506   6.865  52.953  1.00  0.00     0.312 HD
HETATM   30  H19 UNL     1      23.713   7.649  51.668  1.00  0.00     0.312 HD
ENDBRANCH  27  28
ENDBRANCH  23  27
ENDBRANCH  22  23
ENDBRANCH  21  22
ENDBRANCH  10  21
BRANCH   1  31
HETATM   31  O1  UNL     1      20.402   3.531  51.221  1.00  0.00    -0.353 OA
HETATM   32  C1  UNL     1      19.048   3.529  51.543  1.00  0.00     0.210 C 
ENDBRANCH   1  31
TORSDOF 9
ENDMDL
MODEL 4
REMARK VINA RESULT:      -7.5      3.743      6.804
REMARK  9 active torsions:
REMARK  status: ('A' for Active; 'I' for Inactive)
REMARK    1  A    between atoms: O1_2  and  C2_3 
REMARK    2  A    between atoms: C6_9  and  N3_10 
REMARK    3  A    between atoms: N3_10  and  C7_11 
REMARK    4  A    between atoms: C15_21  and  O2_22 
REMARK    5  A    between atoms: O2_22  and  C16_23 
REMARK    6  A    between atoms: C16_23  and  C17_24 
REMARK    7  A    between atoms: C17_24  and  N4_25 
REMARK    8  A    between atoms: C17_24  and  C18_26 
REMARK    9  A    between atoms: C18_26  and  N5_27 
ROOT
HETATM    1  C2  UNL     1      22.091   2.028  50.488  1.00  0.00     0.103 A 
HETATM    2  C3  UNL     1      22.932   2.686  49.582  1.00  0.00     0.072 A 
HETATM    3  C4  UNL     1      24.234   2.900  49.974  1.00  0.00     0.075 A 
HETATM    4  N1  UNL     1      25.039   3.531  49.103  1.00  0.00    -0.241 NA
HETATM    5  C5  UNL     1      26.322   3.776  49.415  1.00  0.00     0.236 A 
HETATM    6  N2  UNL     1      26.820   3.397  50.592  1.00  0.00    -0.224 NA
HETATM    7  C6  UNL     1      26.071   2.765  51.502  1.00  0.00     0.142 A 
HETATM    8  C13 UNL     1      24.762   2.515  51.184  1.00  0.00     0.042 A 
HETATM    9  C14 UNL     1      23.859   1.880  51.997  1.00  0.00     0.057 A 
HETATM   10  C15 UNL     1      22.534   1.595  51.749  1.00  0.00     0.103 A 
ENDROOT
BRANCH   7  11
HETATM   11  N3  UNL     1      26.558   2.341  52.762  1.00  0.00    -0.340 N 
HETATM   12  H6  UNL     1      26.237   2.765  53.642  1.00  0.00     0.167 HD
BRANCH  11  13
HETATM   13  C7  UNL     1      27.507   1.338  53.077  1.00  0.00     0.035 A 
HETATM   14  C8  UNL     1      28.758   1.568  53.667  1.00  0.00     0.032 A 
HETATM   15  C9  UNL     1      29.640   0.554  53.945  1.00  0.00     0.046 A 
HETATM   16  C10 UNL     1      29.360  -0.757  53.667  1.00  0.00     0.138 A 
HETATM   17  F1  UNL     1      30.278  -1.675  53.973  1.00  0.00    -0.204 F 
HETATM   18  C11 UNL     1      28.121  -1.031  53.077  1.00  0.00     0.074 A 
HETATM   19 CL1  UNL     1      27.806  -2.718  52.740  1.00  0.00    -0.081 Cl
HETATM   20  C12 UNL     1      27.262   0.012  52.813  1.00  0.00     0.056 A 
ENDBRANCH  11  13
ENDBRANCH   7  11
BRANCH  10  21
HETATM   21  O2  UNL     1      21.563   1.017  52.388  1.00  0.00    -0.346 OA
BRANCH  21  22
HETATM   22  C16 UNL     1      20.892   0.671  53.471  1.00  0.00     0.213 C 
BRANCH  22  23
HETATM   23  C17 UNL     1      20.672  -0.799  53.667  1.00  0.00     0.269 C 
BRANCH  23  24
HETATM   24  N4  UNL     1      19.283  -1.105  53.982  1.00  0.00     0.086 N 
HETATM   25  H14 UNL     1      19.127  -1.353  54.978  1.00  0.00     0.313 HD
HETATM   26  H15 UNL     1      18.731  -0.239  53.789  1.00  0.00     0.313 HD
ENDBRANCH  23  24
BRANCH  23  27
HETATM   27  C18 UNL     1      21.616  -1.388  54.638  1.00  0.00     0.304 C 
BRANCH  27  28
HETATM   28  N5  UNL     1      22.977  -0.869  54.451  1.00  0.00     0.080 N 
HETATM   29  H18 UNL     1      23.560  -1.229  55.231  1.00  0.00     0.312 HD
HETATM   30  H19 UNL     1      22.899   0.166  54.517  1.00  0.00     0.312 HD
ENDBRANCH  27  28
ENDBRANCH  23  27
ENDBRANCH  22  23
ENDBRANCH  21  22
ENDBRANCH  10  21
BRANCH   1  31
HETATM   31  O1  UNL     1      20.800   1.862  49.996  1.00  0.00    -0.353 OA
HETATM   32  C1  UNL     1      20.409   2.237  48.714  1.00  0.00     0.210 C 
ENDBRANCH   1  31
TORSDOF 9
ENDMDL
MODEL 5
REMARK VINA RESULT:      -7.5      1.838      2.803
REMARK  9 active torsions:
REMARK  status: ('A' for Active; 'I' for Inactive)
REMARK    1  A    between atoms: O1_2  and  C2_3 
REMARK    2  A    between atoms: C6_9  and  N3_10 
REMARK    3  A    between atoms: N3_10  and  C7_11 
REMARK    4  A    between atoms: C15_21  and  O2_22 
REMARK    5  A    between atoms: O2_22  and  C16_23 
REMARK    6  A    between atoms: C16_23  and  C17_24 
REMARK    7  A    between atoms: C17_24  and  N4_25 
REMARK    8  A    between atoms: C17_24  and  C18_26 
REMARK    9  A    between atoms: C18_26  and  N5_27 
ROOT
HETATM    1  C2  UNL     1      23.408   0.073  53.103  1.00  0.00     0.103 A 
HETATM    2  C3  UNL     1      22.405   0.397  52.181  1.00  0.00     0.072 A 
HETATM    3  C4  UNL     1      22.552   1.573  51.480  1.00  0.00     0.075 A 
HETATM    4  N1  UNL     1      21.588   1.882  50.596  1.00  0.00    -0.241 NA
HETATM    5  C5  UNL     1      21.662   3.013  49.877  1.00  0.00     0.236 A 
HETATM    6  N2  UNL     1      22.690   3.848  50.025  1.00  0.00    -0.224 NA
HETATM    7  C6  UNL     1      23.680   3.598  50.887  1.00  0.00     0.142 A 
HETATM    8  C13 UNL     1      23.606   2.444  51.622  1.00  0.00     0.042 A 
HETATM    9  C14 UNL     1      24.531   2.035  52.548  1.00  0.00     0.057 A 
HETATM   10  C15 UNL     1      24.525   0.896  53.321  1.00  0.00     0.103 A 
ENDROOT
BRANCH   7  11
HETATM   11  N3  UNL     1      24.792   4.454  51.075  1.00  0.00    -0.340 N 
HETATM   12  H6  UNL     1      25.042   4.830  51.998  1.00  0.00     0.167 HD
BRANCH  11  13
HETATM   13  C7  UNL     1      25.728   4.946  50.132  1.00  0.00     0.035 A 
HETATM   14  C8  UNL     1      26.751   4.191  49.542  1.00  0.00     0.032 A 
HETATM   15  C9  UNL     1      27.633   4.725  48.637  1.00  0.00     0.046 A 
HETATM   16  C10 UNL     1      27.576   6.036  48.244  1.00  0.00     0.138 A 
HETATM   17  F1  UNL     1      28.476   6.466  47.358  1.00  0.00    -0.204 F 
HETATM   18  C11 UNL     1      26.568   6.825  48.809  1.00  0.00     0.074 A 
HETATM   19 CL1  UNL     1      26.533   8.491  48.278  1.00  0.00    -0.081 Cl
HETATM   20  C12 UNL     1      25.702   6.255  49.714  1.00  0.00     0.056 A 
ENDBRANCH  11  13
ENDBRANCH   7  11
BRANCH  10  21
HETATM   21  O2  UNL     1      25.298   0.368  54.220  1.00  0.00    -0.346 OA
BRANCH  21  22
HETATM   22  C16 UNL     1      26.467   0.068  54.756  1.00  0.00     0.213 C 
BRANCH  22  23
HETATM   23  C17 UNL     1      27.648   0.124  53.833  1.00  0.00     0.269 C 
BRANCH  23  24
HETATM   24  N4  UNL     1      28.366  -1.143  53.790  1.00  0.00     0.086 N 
HETATM   25  H14 UNL     1      28.613  -1.512  54.728  1.00  0.00     0.313 HD
HETATM   26  H15 UNL     1      27.728  -1.838  53.342  1.00  0.00     0.313 HD
ENDBRANCH  23  24
BRANCH  23  27
HETATM   27  C18 UNL     1      28.535   1.270  54.119  1.00  0.00     0.304 C 
BRANCH  27  28
HETATM   28  N5  UNL     1      27.844   2.550  53.923  1.00  0.00     0.080 N 
HETATM   29  H18 UNL     1      26.920   2.483  54.393  1.00  0.00     0.312 HD
HETATM   30  H19 UNL     1      27.711   2.649  52.896  1.00  0.00     0.312 HD
ENDBRANCH  27  28
ENDBRANCH  23  27
ENDBRANCH  22  23
ENDBRANCH  21  22
ENDBRANCH  10  21
BRANCH   1  31
HETATM   31  O1  UNL     1      23.166  -1.133  53.756  1.00  0.00    -0.353 OA
HETATM   32  C1  UNL     1      22.055  -1.363  54.561  1.00  0.00     0.210 C 
ENDBRANCH   1  31
TORSDOF 9
ENDMDL
MODEL 6
REMARK VINA RESULT:      -7.4      3.990      6.863
REMARK  9 active torsions:
REMARK  status: ('A' for Active; 'I' for Inactive)
REMARK    1  A    between atoms: O1_2  and  C2_3 
REMARK    2  A    between atoms: C6_9  and  N3_10 
REMARK    3  A    between atoms: N3_10  and  C7_11 
REMARK    4  A    between atoms: C15_21  and  O2_22 
REMARK    5  A    between atoms: O2_22  and  C16_23 
REMARK    6  A    between atoms: C16_23  and  C17_24 
REMARK    7  A    between atoms: C17_24  and  N4_25 
REMARK    8  A    between atoms: C17_24  and  C18_26 
REMARK    9  A    between atoms: C18_26  and  N5_27 
ROOT
HETATM    1  C2  UNL     1      19.956   0.106  52.258  1.00  0.00     0.103 A 
HETATM    2  C3  UNL     1      20.172  -0.559  53.470  1.00  0.00     0.072 A 
HETATM    3  C4  UNL     1      21.477  -0.700  53.887  1.00  0.00     0.075 A 
HETATM    4  N1  UNL     1      21.682  -1.339  55.051  1.00  0.00    -0.241 NA
HETATM    5  C5  UNL     1      22.927  -1.515  55.521  1.00  0.00     0.236 A 
HETATM    6  N2  UNL     1      23.981  -1.061  54.844  1.00  0.00    -0.224 NA
HETATM    7  C6  UNL     1      23.844  -0.417  53.680  1.00  0.00     0.142 A 
HETATM    8  C13 UNL     1      22.574  -0.237  53.199  1.00  0.00     0.042 A 
HETATM    9  C14 UNL     1      22.255   0.398  52.027  1.00  0.00     0.057 A 
HETATM   10  C15 UNL     1      21.010   0.617  51.481  1.00  0.00     0.103 A 
ENDROOT
BRANCH   7  11
HETATM   11  N3  UNL     1      24.934   0.086  52.928  1.00  0.00    -0.340 N 
HETATM   12  H6  UNL     1      24.798   0.684  52.103  1.00  0.00     0.167 HD
BRANCH  11  13
HETATM   13  C7  UNL     1      26.325  -0.098  53.114  1.00  0.00     0.035 A 
HETATM   14  C8  UNL     1      27.027  -1.280  52.837  1.00  0.00     0.032 A 
HETATM   15  C9  UNL     1      28.378  -1.400  53.043  1.00  0.00     0.046 A 
HETATM   16  C10 UNL     1      29.140  -0.372  53.533  1.00  0.00     0.138 A 
HETATM   17  F1  UNL     1      30.447  -0.582  53.700  1.00  0.00    -0.204 F 
HETATM   18  C11 UNL     1      28.478   0.826  53.822  1.00  0.00     0.074 A 
HETATM   19 CL1  UNL     1      29.489   2.110  54.445  1.00  0.00    -0.081 Cl
HETATM   20  C12 UNL     1      27.122   0.910  53.603  1.00  0.00     0.056 A 
ENDBRANCH  11  13
ENDBRANCH   7  11
BRANCH  10  21
HETATM   21  O2  UNL     1      20.540   1.184  50.412  1.00  0.00    -0.346 OA
BRANCH  21  22
HETATM   22  C16 UNL     1      20.142   2.215  49.689  1.00  0.00     0.213 C 
BRANCH  22  23
HETATM   23  C17 UNL     1      20.537   3.569  50.201  1.00  0.00     0.269 C 
BRANCH  23  24
HETATM   24  N4  UNL     1      21.984   3.709  50.306  1.00  0.00     0.086 N 
HETATM   25  H14 UNL     1      22.367   3.390  51.217  1.00  0.00     0.313 HD
HETATM   26  H15 UNL     1      22.402   3.103  49.566  1.00  0.00     0.313 HD
ENDBRANCH  23  24
BRANCH  23  27
HETATM   27  C18 UNL     1      19.840   3.926  51.453  1.00  0.00     0.304 C 
BRANCH  27  28
HETATM   28  N5  UNL     1      18.526   3.278  51.543  1.00  0.00     0.080 N 
HETATM   29  H18 UNL     1      18.106   3.286  50.593  1.00  0.00     0.312 HD
HETATM   30  H19 UNL     1      17.960   3.869  52.185  1.00  0.00     0.312 HD
ENDBRANCH  27  28
ENDBRANCH  23  27
ENDBRANCH  22  23
ENDBRANCH  21  22
ENDBRANCH  10  21
BRANCH   1  31
HETATM   31  O1  UNL     1      18.607   0.195  51.929  1.00  0.00    -0.353 OA
HETATM   32  C1  UNL     1      17.633  -0.665  52.429  1.00  0.00     0.210 C 
ENDBRANCH   1  31
TORSDOF 9
ENDMDL
MODEL 7
REMARK VINA RESULT:      -7.4      2.008      2.848
REMARK  9 active torsions:
REMARK  status: ('A' for Active; 'I' for Inactive)
REMARK    1  A    between atoms: O1_2  and  C2_3 
REMARK    2  A    between atoms: C6_9  and  N3_10 
REMARK    3  A    between atoms: N3_10  and  C7_11 
REMARK    4  A    between atoms: C15_21  and  O2_22 
REMARK    5  A    between atoms: O2_22  and  C16_23 
REMARK    6  A    between atoms: C16_23  and  C17_24 
REMARK    7  A    between atoms: C17_24  and  N4_25 
REMARK    8  A    between atoms: C17_24  and  C18_26 
REMARK    9  A    between atoms: C18_26  and  N5_27 
ROOT
HETATM    1  C2  UNL     1      23.333   0.730  53.126  1.00  0.00     0.103 A 
HETATM    2  C3  UNL     1      22.089   1.220  52.713  1.00  0.00     0.072 A 
HETATM    3  C4  UNL     1      22.036   2.532  52.296  1.00  0.00     0.075 A 
HETATM    4  N1  UNL     1      20.840   2.999  51.900  1.00  0.00    -0.241 NA
HETATM    5  C5  UNL     1      20.710   4.268  51.481  1.00  0.00     0.236 A 
HETATM    6  N2  UNL     1      21.763   5.086  51.450  1.00  0.00    -0.224 NA
HETATM    7  C6  UNL     1      22.979   4.681  51.830  1.00  0.00     0.142 A 
HETATM    8  C13 UNL     1      23.112   3.386  52.258  1.00  0.00     0.042 A 
HETATM    9  C14 UNL     1      24.282   2.810  52.682  1.00  0.00     0.057 A 
HETATM   10  C15 UNL     1      24.493   1.523  53.124  1.00  0.00     0.103 A 
ENDROOT
BRANCH   7  11
HETATM   11  N3  UNL     1      24.125   5.512  51.810  1.00  0.00    -0.340 N 
HETATM   12  H6  UNL     1      24.462   5.999  52.650  1.00  0.00     0.167 HD
BRANCH  11  13
HETATM   13  C7  UNL     1      24.990   5.838  50.737  1.00  0.00     0.035 A 
HETATM   14  C8  UNL     1      25.577   4.911  49.864  1.00  0.00     0.032 A 
HETATM   15  C9  UNL     1      26.414   5.287  48.843  1.00  0.00     0.046 A 
HETATM   16  C10 UNL     1      26.735   6.597  48.604  1.00  0.00     0.138 A 
HETATM   17  F1  UNL     1      27.557   6.866  47.588  1.00  0.00    -0.204 F 
HETATM   18  C11 UNL     1      26.170   7.554  49.453  1.00  0.00     0.074 A 
HETATM   19 CL1  UNL     1      26.607   9.213  49.109  1.00  0.00    -0.081 Cl
HETATM   20  C12 UNL     1      25.336   7.140  50.466  1.00  0.00     0.056 A 
ENDBRANCH  11  13
ENDBRANCH   7  11
BRANCH  10  21
HETATM   21  O2  UNL     1      25.506   0.831  53.549  1.00  0.00    -0.346 OA
BRANCH  21  22
HETATM   22  C16 UNL     1      26.487   0.551  54.388  1.00  0.00     0.213 C 
BRANCH  22  23
HETATM   23  C17 UNL     1      27.829   0.297  53.769  1.00  0.00     0.269 C 
BRANCH  23  24
HETATM   24  N4  UNL     1      28.604  -0.674  54.530  1.00  0.00     0.086 N 
HETATM   25  H14 UNL     1      29.626  -0.619  54.355  1.00  0.00     0.313 HD
HETATM   26  H15 UNL     1      28.452  -0.458  55.541  1.00  0.00     0.313 HD
ENDBRANCH  23  24
BRANCH  23  27
HETATM   27  C18 UNL     1      28.577   1.543  53.509  1.00  0.00     0.304 C 
BRANCH  27  28
HETATM   28  N5  UNL     1      27.812   2.728  53.917  1.00  0.00     0.080 N 
HETATM   29  H18 UNL     1      26.863   2.646  53.503  1.00  0.00     0.312 HD
HETATM   30  H19 UNL     1      28.308   3.544  53.505  1.00  0.00     0.312 HD
ENDBRANCH  27  28
ENDBRANCH  23  27
ENDBRANCH  22  23
ENDBRANCH  21  22
ENDBRANCH  10  21
BRANCH   1  31
HETATM   31  O1  UNL     1      23.278  -0.602  53.526  1.00  0.00    -0.353 OA
HETATM   32  C1  UNL     1      22.483  -1.060  54.572  1.00  0.00     0.210 C 
ENDBRANCH   1  31
TORSDOF 9
ENDMDL
MODEL 8
REMARK VINA RESULT:      -7.3      1.851      2.611
REMARK  9 active torsions:
REMARK  status: ('A' for Active; 'I' for Inactive)
REMARK    1  A    between atoms: O1_2  and  C2_3 
REMARK    2  A    between atoms: C6_9  and  N3_10 
REMARK    3  A    between atoms: N3_10  and  C7_11 
REMARK    4  A    between atoms: C15_21  and  O2_22 
REMARK    5  A    between atoms: O2_22  and  C16_23 
REMARK    6  A    between atoms: C16_23  and  C17_24 
REMARK    7  A    between atoms: C17_24  and  N4_25 
REMARK    8  A    between atoms: C17_24  and  C18_26 
REMARK    9  A    between atoms: C18_26  and  N5_27 
ROOT
HETATM    1  C2  UNL     1      24.019   0.336  53.122  1.00  0.00     0.103 A 
HETATM    2  C3  UNL     1      22.960   0.770  52.316  1.00  0.00     0.072 A 
HETATM    3  C4  UNL     1      23.263   1.641  51.293  1.00  0.00     0.075 A 
HETATM    4  N1  UNL     1      22.245   2.055  50.521  1.00  0.00    -0.241 NA
HETATM    5  C5  UNL     1      22.464   2.905  49.504  1.00  0.00     0.236 A 
HETATM    6  N2  UNL     1      23.692   3.351  49.242  1.00  0.00    -0.224 NA
HETATM    7  C6  UNL     1      24.747   2.975  49.973  1.00  0.00     0.142 A 
HETATM    8  C13 UNL     1      24.525   2.108  51.011  1.00  0.00     0.042 A 
HETATM    9  C14 UNL     1      25.489   1.625  51.857  1.00  0.00     0.057 A 
HETATM   10  C15 UNL     1      25.343   0.756  52.916  1.00  0.00     0.103 A 
ENDROOT
BRANCH   7  11
HETATM   11  N3  UNL     1      26.069   3.420  49.729  1.00  0.00    -0.340 N 
HETATM   12  H6  UNL     1      26.884   2.805  49.851  1.00  0.00     0.167 HD
BRANCH  11  13
HETATM   13  C7  UNL     1      26.536   4.688  49.306  1.00  0.00     0.035 A 
HETATM   14  C8  UNL     1      25.839   5.895  49.456  1.00  0.00     0.032 A 
HETATM   15  C9  UNL     1      26.341   7.096  49.020  1.00  0.00     0.046 A 
HETATM   16  C10 UNL     1      27.562   7.200  48.407  1.00  0.00     0.138 A 
HETATM   17  F1  UNL     1      27.968   8.410  48.018  1.00  0.00    -0.204 F 
HETATM   18  C11 UNL     1      28.291   6.018  48.238  1.00  0.00     0.074 A 
HETATM   19 CL1  UNL     1      29.842   6.199  47.452  1.00  0.00    -0.081 Cl
HETATM   20  C12 UNL     1      27.755   4.833  48.688  1.00  0.00     0.056 A 
ENDBRANCH  11  13
ENDBRANCH   7  11
BRANCH  10  21
HETATM   21  O2  UNL     1      26.126   0.210  53.795  1.00  0.00    -0.346 OA
BRANCH  21  22
HETATM   22  C16 UNL     1      26.853   0.199  54.898  1.00  0.00     0.213 C 
BRANCH  22  23
HETATM   23  C17 UNL     1      28.338   0.127  54.706  1.00  0.00     0.269 C 
BRANCH  23  24
HETATM   24  N4  UNL     1      28.975   1.424  54.893  1.00  0.00     0.086 N 
HETATM   25  H14 UNL     1      29.880   1.518  54.394  1.00  0.00     0.313 HD
HETATM   26  H15 UNL     1      28.327   2.140  54.494  1.00  0.00     0.313 HD
ENDBRANCH  23  24
BRANCH  23  27
HETATM   27  C18 UNL     1      28.713  -0.510  53.428  1.00  0.00     0.304 C 
BRANCH  27  28
HETATM   28  N5  UNL     1      28.352  -1.933  53.407  1.00  0.00     0.080 N 
HETATM   29  H18 UNL     1      29.050  -2.426  52.816  1.00  0.00     0.312 HD
HETATM   30  H19 UNL     1      27.413  -1.983  52.960  1.00  0.00     0.312 HD
ENDBRANCH  27  28
ENDBRANCH  23  27
ENDBRANCH  22  23
ENDBRANCH  21  22
ENDBRANCH  10  21
BRANCH   1  31
HETATM   31  O1  UNL     1      23.606  -0.538  54.123  1.00  0.00    -0.353 OA
HETATM   32  C1  UNL     1      22.287  -0.949  54.293  1.00  0.00     0.210 C 
ENDBRANCH   1  31
TORSDOF 9
ENDMDL
MODEL 9
REMARK VINA RESULT:      -7.3      6.172      8.690
REMARK  9 active torsions:
REMARK  status: ('A' for Active; 'I' for Inactive)
REMARK    1  A    between atoms: O1_2  and  C2_3 
REMARK    2  A    between atoms: C6_9  and  N3_10 
REMARK    3  A    between atoms: N3_10  and  C7_11 
REMARK    4  A    between atoms: C15_21  and  O2_22 
REMARK    5  A    between atoms: O2_22  and  C16_23 
REMARK    6  A    between atoms: C16_23  and  C17_24 
REMARK    7  A    between atoms: C17_24  and  N4_25 
REMARK    8  A    between atoms: C17_24  and  C18_26 
REMARK    9  A    between atoms: C18_26  and  N5_27 
ROOT
HETATM    1  C2  UNL     1      32.143   6.534  48.453  1.00  0.00     0.103 A 
HETATM    2  C3  UNL     1      31.617   7.757  48.886  1.00  0.00     0.072 A 
HETATM    3  C4  UNL     1      30.246   7.886  48.892  1.00  0.00     0.075 A 
HETATM    4  N1  UNL     1      29.745   9.060  49.308  1.00  0.00    -0.241 NA
HETATM    5  C5  UNL     1      28.417   9.260  49.341  1.00  0.00     0.236 A 
HETATM    6  N2  UNL     1      27.575   8.299  48.962  1.00  0.00    -0.224 NA
HETATM    7  C6  UNL     1      28.011   7.109  48.538  1.00  0.00     0.142 A 
HETATM    8  C13 UNL     1      29.366   6.904  48.504  1.00  0.00     0.042 A 
HETATM    9  C14 UNL     1      29.981   5.748  48.098  1.00  0.00     0.057 A 
HETATM   10  C15 UNL     1      31.328   5.469  48.037  1.00  0.00     0.103 A 
ENDROOT
BRANCH   7  11
HETATM   11  N3  UNL     1      27.154   6.058  48.130  1.00  0.00    -0.340 N 
HETATM   12  H6  UNL     1      27.050   5.790  47.143  1.00  0.00     0.167 HD
BRANCH  11  13
HETATM   13  C7  UNL     1      26.321   5.215  48.904  1.00  0.00     0.035 A 
HETATM   14  C8  UNL     1      24.941   5.388  49.083  1.00  0.00     0.032 A 
HETATM   15  C9  UNL     1      24.185   4.539  49.851  1.00  0.00     0.046 A 
HETATM   16  C10 UNL     1      24.725   3.459  50.498  1.00  0.00     0.138 A 
HETATM   17  F1  UNL     1      23.911   2.689  51.222  1.00  0.00    -0.204 F 
HETATM   18  C11 UNL     1      26.099   3.250  50.345  1.00  0.00     0.074 A 
HETATM   19 CL1  UNL     1      26.745   1.859  51.188  1.00  0.00    -0.081 Cl
HETATM   20  C12 UNL     1      26.826   4.122  49.567  1.00  0.00     0.056 A 
ENDBRANCH  11  13
ENDBRANCH   7  11
BRANCH  10  21
HETATM   21  O2  UNL     1      32.061   4.457  47.688  1.00  0.00    -0.346 OA
BRANCH  21  22
HETATM   22  C16 UNL     1      32.474   3.517  46.857  1.00  0.00     0.213 C 
BRANCH  22  23
HETATM   23  C17 UNL     1      33.623   2.678  47.331  1.00  0.00     0.269 C 
BRANCH  23  24
HETATM   24  N4  UNL     1      33.283   1.916  48.526  1.00  0.00     0.086 N 
HETATM   25  H14 UNL     1      32.653   1.112  48.341  1.00  0.00     0.313 HD
HETATM   26  H15 UNL     1      34.176   1.528  48.903  1.00  0.00     0.313 HD
ENDBRANCH  23  24
BRANCH  23  27
HETATM   27  C18 UNL     1      34.866   3.458  47.491  1.00  0.00     0.304 C 
BRANCH  27  28
HETATM   28  N5  UNL     1      35.005   3.980  48.856  1.00  0.00     0.080 N 
HETATM   29  H18 UNL     1      34.146   4.522  49.074  1.00  0.00     0.312 HD
HETATM   30  H19 UNL     1      35.829   4.616  48.837  1.00  0.00     0.312 HD
ENDBRANCH  27  28
ENDBRANCH  23  27
ENDBRANCH  22  23
ENDBRANCH  21  22
ENDBRANCH  10  21
BRANCH   1  31
HETATM   31  O1  UNL     1      33.535   6.508  48.486  1.00  0.00    -0.353 OA
HETATM   32  C1  UNL     1      34.340   7.369  47.745  1.00  0.00     0.210 C 
ENDBRANCH   1  31
TORSDOF 9
ENDMDL
