MODEL 1
REMARK VINA RESULT:      -8.3      0.000      0.000
REMARK  7 active torsions:
REMARK  status: ('A' for Active; 'I' for Inactive)
REMARK    1  A    between atoms: N1_2  and  C3_4 
REMARK    2  A    between atoms: C3_4  and  C4_5 
REMARK    3  A    between atoms: C5_6  and  C6_7 
REMARK       I    between atoms: C6_7  and  N2_9 
REMARK    4  A    between atoms: N2_9  and  C7_10 
REMARK    5  A    between atoms: C7_10  and  C8_11 
REMARK    6  A    between atoms: C12_17  and  N5_18 
REMARK    7  A    between atoms: N5_18  and  C13_19 
ROOT
HETATM    1  C8  UNL     1      23.450   4.178  50.173  1.00  0.00     0.032 A 
HETATM    2  N3  UNL     1      23.747   5.208  49.432  1.00  0.00    -0.267 NA
HETATM    3  C9  UNL     1      25.119   5.284  49.056  1.00  0.00     0.137 A 
HETATM    4  C10 UNL     1      26.026   4.366  49.438  1.00  0.00     0.062 A 
HETATM    5  C11 UNL     1      27.323   4.690  48.921  1.00  0.00     0.098 C 
HETATM    6  N4  UNL     1      28.400   4.940  48.502  1.00  0.00    -0.192 NA
HETATM    7  C12 UNL     1      25.752   3.171  50.277  1.00  0.00     0.132 A 
HETATM    8  C19 UNL     1      24.311   3.092  50.688  1.00  0.00     0.087 A 
ENDROOT
BRANCH   7   9
HETATM    9  N5  UNL     1      26.619   3.108  51.429  1.00  0.00    -0.380 N 
HETATM   10  H16 UNL     1      26.848   4.072  51.817  1.00  0.00     0.160 HD
BRANCH   9  11
HETATM   11  C13 UNL     1      27.257   2.116  52.186  1.00  0.00     0.030 A 
HETATM   12  C14 UNL     1      28.271   2.352  53.122  1.00  0.00     0.032 A 
HETATM   13  C15 UNL     1      28.791   1.286  53.815  1.00  0.00     0.046 A 
HETATM   14  C16 UNL     1      28.392  -0.023  53.666  1.00  0.00     0.138 A 
HETATM   15  F1  UNL     1      29.002  -0.965  54.422  1.00  0.00    -0.204 F 
HETATM   16  C17 UNL     1      27.384  -0.255  52.736  1.00  0.00     0.074 A 
HETATM   17 CL1  UNL     1      26.912  -1.935  52.581  1.00  0.00    -0.081 Cl
HETATM   18  C18 UNL     1      26.853   0.806  52.032  1.00  0.00     0.056 A 
ENDBRANCH   9  11
ENDBRANCH   7   9
BRANCH   1  19
HETATM   19  C7  UNL     1      22.022   4.011  50.621  1.00  0.00     0.177 C 
BRANCH  19  20
HETATM   20  N2  UNL     1      21.872   2.768  51.364  1.00  0.00    -0.352 N 
HETATM   21  C6  UNL     1      20.718   2.713  52.227  1.00  0.00     0.241 C 
HETATM   22  O1  UNL     1      19.903   3.686  52.317  1.00  0.00    -0.269 OA
HETATM   23  H11 UNL     1      22.506   1.924  51.337  1.00  0.00     0.163 HD
BRANCH  21  24
HETATM   24  C5  UNL     1      20.493   1.487  53.019  1.00  0.00     0.072 C 
HETATM   25  C4  UNL     1      21.388   0.755  53.703  1.00  0.00     0.008 C 
BRANCH  25  26
HETATM   26  C3  UNL     1      21.013  -0.483  54.472  1.00  0.00     0.299 C 
BRANCH  26  27
HETATM   27  N1  UNL     1      22.045  -1.484  54.345  1.00  0.00     0.083 N 
HETATM   28  C1  UNL     1      22.738  -1.307  53.081  1.00  0.00     0.309 C 
HETATM   29  C2  UNL     1      22.934  -1.413  55.470  1.00  0.00     0.309 C 
ENDBRANCH  26  27
ENDBRANCH  25  26
ENDBRANCH  21  24
ENDBRANCH  19  20
ENDBRANCH   1  19
TORSDOF 7
ENDMDL
MODEL 2
REMARK VINA RESULT:      -8.2      2.322      6.894
REMARK  7 active torsions:
REMARK  status: ('A' for Active; 'I' for Inactive)
REMARK    1  A    between atoms: N1_2  and  C3_4 
REMARK    2  A    between atoms: C3_4  and  C4_5 
REMARK    3  A    between atoms: C5_6  and  C6_7 
REMARK       I    between atoms: C6_7  and  N2_9 
REMARK    4  A    between atoms: N2_9  and  C7_10 
REMARK    5  A    between atoms: C7_10  and  C8_11 
REMARK    6  A    between atoms: C12_17  and  N5_18 
REMARK    7  A    between atoms: N5_18  and  C13_19 
ROOT
HETATM    1  C8  UNL     1      23.044   1.761  51.187  1.00  0.00     0.032 A 
HETATM    2  N3  UNL     1      21.850   1.247  51.276  1.00  0.00    -0.267 NA
HETATM    3  C9  UNL     1      21.685   0.326  52.349  1.00  0.00     0.137 A 
HETATM    4  C10 UNL     1      22.684   0.018  53.198  1.00  0.00     0.062 A 
HETATM    5  C11 UNL     1      22.242  -0.932  54.176  1.00  0.00     0.098 C 
HETATM    6  N4  UNL     1      21.895  -1.713  54.993  1.00  0.00    -0.192 NA
HETATM    7  C12 UNL     1      24.062   0.569  53.155  1.00  0.00     0.132 A 
HETATM    8  C19 UNL     1      24.247   1.530  52.017  1.00  0.00     0.087 A 
ENDROOT
BRANCH   7   9
HETATM    9  N5  UNL     1      25.061  -0.471  53.115  1.00  0.00    -0.380 N 
HETATM   10  H16 UNL     1      24.639  -1.431  52.930  1.00  0.00     0.160 HD
BRANCH   9  11
HETATM   11  C13 UNL     1      26.451  -0.572  53.261  1.00  0.00     0.030 A 
HETATM   12  C14 UNL     1      27.215  -1.687  52.898  1.00  0.00     0.032 A 
HETATM   13  C15 UNL     1      28.577  -1.640  53.071  1.00  0.00     0.046 A 
HETATM   14  C16 UNL     1      29.271  -0.566  53.581  1.00  0.00     0.138 A 
HETATM   15  F1  UNL     1      30.615  -0.672  53.692  1.00  0.00    -0.204 F 
HETATM   16  C17 UNL     1      28.510   0.542  53.940  1.00  0.00     0.074 A 
HETATM   17 CL1  UNL     1      29.438   1.880  54.585  1.00  0.00    -0.081 Cl
HETATM   18  C18 UNL     1      27.141   0.508  53.772  1.00  0.00     0.056 A 
ENDBRANCH   9  11
ENDBRANCH   7   9
BRANCH   1  19
HETATM   19  C7  UNL     1      23.316   2.747  50.081  1.00  0.00     0.177 C 
BRANCH  19  20
HETATM   20  N2  UNL     1      24.750   2.886  49.875  1.00  0.00    -0.352 N 
HETATM   21  C6  UNL     1      25.189   4.221  49.557  1.00  0.00     0.241 C 
HETATM   22  O1  UNL     1      24.372   5.192  49.471  1.00  0.00    -0.269 OA
HETATM   23  H11 UNL     1      25.483   2.128  49.932  1.00  0.00     0.163 HD
BRANCH  21  24
HETATM   24  C5  UNL     1      26.632   4.449  49.330  1.00  0.00     0.072 C 
HETATM   25  C4  UNL     1      27.222   5.366  48.545  1.00  0.00     0.008 C 
BRANCH  25  26
HETATM   26  C3  UNL     1      28.716   5.483  48.410  1.00  0.00     0.299 C 
BRANCH  26  27
HETATM   27  N1  UNL     1      29.061   6.681  47.681  1.00  0.00     0.083 N 
HETATM   28  C1  UNL     1      28.734   7.847  48.484  1.00  0.00     0.309 C 
HETATM   29  C2  UNL     1      30.447   6.644  47.312  1.00  0.00     0.309 C 
ENDBRANCH  26  27
ENDBRANCH  25  26
ENDBRANCH  21  24
ENDBRANCH  19  20
ENDBRANCH   1  19
TORSDOF 7
ENDMDL
MODEL 3
REMARK VINA RESULT:      -8.0      3.737      8.138
REMARK  7 active torsions:
REMARK  status: ('A' for Active; 'I' for Inactive)
REMARK    1  A    between atoms: N1_2  and  C3_4 
REMARK    2  A    between atoms: C3_4  and  C4_5 
REMARK    3  A    between atoms: C5_6  and  C6_7 
REMARK       I    between atoms: C6_7  and  N2_9 
REMARK    4  A    between atoms: N2_9  and  C7_10 
REMARK    5  A    between atoms: C7_10  and  C8_11 
REMARK    6  A    between atoms: C12_17  and  N5_18 
REMARK    7  A    between atoms: N5_18  and  C13_19 
ROOT
HETATM    1  C8  UNL     1      26.014   2.979  50.808  1.00  0.00     0.032 A 
HETATM    2  N3  UNL     1      27.147   2.859  51.440  1.00  0.00    -0.267 NA
HETATM    3  C9  UNL     1      27.190   1.783  52.371  1.00  0.00     0.137 A 
HETATM    4  C10 UNL     1      26.142   0.962  52.577  1.00  0.00     0.062 A 
HETATM    5  C11 UNL     1      26.460  -0.026  53.566  1.00  0.00     0.098 C 
HETATM    6  N4  UNL     1      26.704  -0.850  54.377  1.00  0.00    -0.192 NA
HETATM    7  C12 UNL     1      24.829   1.042  51.889  1.00  0.00     0.132 A 
HETATM    8  C19 UNL     1      24.772   2.183  50.916  1.00  0.00     0.087 A 
ENDROOT
BRANCH   7   9
HETATM    9  N5  UNL     1      23.731   1.110  52.824  1.00  0.00    -0.380 N 
HETATM   10  H16 UNL     1      23.773   1.981  53.435  1.00  0.00     0.160 HD
BRANCH   9  11
HETATM   11  C13 UNL     1      22.613   0.334  53.160  1.00  0.00     0.030 A 
HETATM   12  C14 UNL     1      22.568  -0.593  54.207  1.00  0.00     0.032 A 
HETATM   13  C15 UNL     1      21.394  -1.267  54.443  1.00  0.00     0.046 A 
HETATM   14  C16 UNL     1      20.232  -1.104  53.723  1.00  0.00     0.138 A 
HETATM   15  F1  UNL     1      19.156  -1.843  54.076  1.00  0.00    -0.204 F 
HETATM   16  C17 UNL     1      20.279  -0.181  52.683  1.00  0.00     0.074 A 
HETATM   17 CL1  UNL     1      18.778  -0.011  51.796  1.00  0.00    -0.081 Cl
HETATM   18  C18 UNL     1      21.452   0.503  52.435  1.00  0.00     0.056 A 
ENDBRANCH   9  11
ENDBRANCH   7   9
BRANCH   1  19
HETATM   19  C7  UNL     1      25.873   4.090  49.801  1.00  0.00     0.177 C 
BRANCH  19  20
HETATM   20  N2  UNL     1      27.183   4.484  49.303  1.00  0.00    -0.352 N 
HETATM   21  C6  UNL     1      27.212   5.746  48.607  1.00  0.00     0.241 C 
HETATM   22  O1  UNL     1      26.163   6.450  48.453  1.00  0.00    -0.269 OA
HETATM   23  H11 UNL     1      28.091   3.953  49.396  1.00  0.00     0.163 HD
BRANCH  21  24
HETATM   24  C5  UNL     1      28.503   6.220  48.068  1.00  0.00     0.072 C 
HETATM   25  C4  UNL     1      29.696   5.602  48.086  1.00  0.00     0.008 C 
BRANCH  25  26
HETATM   26  C3  UNL     1      30.938   6.209  47.492  1.00  0.00     0.299 C 
BRANCH  26  27
HETATM   27  N1  UNL     1      32.101   5.816  48.252  1.00  0.00     0.083 N 
HETATM   28  C1  UNL     1      31.855   6.048  49.665  1.00  0.00     0.309 C 
HETATM   29  C2  UNL     1      32.427   4.447  47.972  1.00  0.00     0.309 C 
ENDBRANCH  26  27
ENDBRANCH  25  26
ENDBRANCH  21  24
ENDBRANCH  19  20
ENDBRANCH   1  19
TORSDOF 7
ENDMDL
MODEL 4
REMARK VINA RESULT:      -7.7      2.256      6.661
REMARK  7 active torsions:
REMARK  status: ('A' for Active; 'I' for Inactive)
REMARK    1  A    between atoms: N1_2  and  C3_4 
REMARK    2  A    between atoms: C3_4  and  C4_5 
REMARK    3  A    between atoms: C5_6  and  C6_7 
REMARK       I    between atoms: C6_7  and  N2_9 
REMARK    4  A    between atoms: N2_9  and  C7_10 
REMARK    5  A    between atoms: C7_10  and  C8_11 
REMARK    6  A    between atoms: C12_17  and  N5_18 
REMARK    7  A    between atoms: N5_18  and  C13_19 
ROOT
HETATM    1  C8  UNL     1      23.393   3.980  51.782  1.00  0.00     0.032 A 
HETATM    2  N3  UNL     1      22.194   3.519  51.565  1.00  0.00    -0.267 NA
HETATM    3  C9  UNL     1      21.976   2.198  52.048  1.00  0.00     0.137 A 
HETATM    4  C10 UNL     1      22.933   1.490  52.677  1.00  0.00     0.062 A 
HETATM    5  C11 UNL     1      22.442   0.197  53.053  1.00  0.00     0.098 C 
HETATM    6  N4  UNL     1      22.054  -0.873  53.373  1.00  0.00    -0.192 NA
HETATM    7  C12 UNL     1      24.314   1.957  52.959  1.00  0.00     0.132 A 
HETATM    8  C19 UNL     1      24.556   3.344  52.440  1.00  0.00     0.087 A 
ENDROOT
BRANCH   7   9
HETATM    9  N5  UNL     1      25.309   1.040  52.457  1.00  0.00    -0.380 N 
HETATM   10  H16 UNL     1      24.986   0.533  51.578  1.00  0.00     0.160 HD
BRANCH   9  11
HETATM   11  C13 UNL     1      26.599   0.621  52.812  1.00  0.00     0.030 A 
HETATM   12  C14 UNL     1      27.614   1.465  53.278  1.00  0.00     0.032 A 
HETATM   13  C15 UNL     1      28.826   0.915  53.617  1.00  0.00     0.046 A 
HETATM   14  C16 UNL     1      29.135  -0.424  53.538  1.00  0.00     0.138 A 
HETATM   15  F1  UNL     1      30.377  -0.814  53.907  1.00  0.00    -0.204 F 
HETATM   16  C17 UNL     1      28.124  -1.261  53.075  1.00  0.00     0.074 A 
HETATM   17 CL1  UNL     1      28.566  -2.954  52.990  1.00  0.00    -0.081 Cl
HETATM   18  C18 UNL     1      26.902  -0.722  52.731  1.00  0.00     0.056 A 
ENDBRANCH   9  11
ENDBRANCH   7   9
BRANCH   1  19
HETATM   19  C7  UNL     1      23.720   5.371  51.306  1.00  0.00     0.177 C 
BRANCH  19  20
HETATM   20  N2  UNL     1      25.095   5.429  50.833  1.00  0.00    -0.352 N 
HETATM   21  C6  UNL     1      25.252   5.282  49.408  1.00  0.00     0.241 C 
HETATM   22  O1  UNL     1      24.253   5.120  48.638  1.00  0.00    -0.269 OA
HETATM   23  H11 UNL     1      25.968   5.561  51.412  1.00  0.00     0.163 HD
BRANCH  21  24
HETATM   24  C5  UNL     1      26.618   5.326  48.845  1.00  0.00     0.072 C 
HETATM   25  C4  UNL     1      27.371   6.401  48.555  1.00  0.00     0.008 C 
BRANCH  25  26
HETATM   26  C3  UNL     1      28.757   6.294  47.981  1.00  0.00     0.299 C 
BRANCH  26  27
HETATM   27  N1  UNL     1      29.577   7.388  48.445  1.00  0.00     0.083 N 
HETATM   28  C1  UNL     1      30.915   6.901  48.732  1.00  0.00     0.309 C 
HETATM   29  C2  UNL     1      29.578   8.443  47.472  1.00  0.00     0.309 C 
ENDBRANCH  26  27
ENDBRANCH  25  26
ENDBRANCH  21  24
ENDBRANCH  19  20
ENDBRANCH   1  19
TORSDOF 7
ENDMDL
MODEL 5
REMARK VINA RESULT:      -7.7      1.864      2.236
REMARK  7 active torsions:
REMARK  status: ('A' for Active; 'I' for Inactive)
REMARK    1  A    between atoms: N1_2  and  C3_4 
REMARK    2  A    between atoms: C3_4  and  C4_5 
REMARK    3  A    between atoms: C5_6  and  C6_7 
REMARK       I    between atoms: C6_7  and  N2_9 
REMARK    4  A    between atoms: N2_9  and  C7_10 
REMARK    5  A    between atoms: C7_10  and  C8_11 
REMARK    6  A    between atoms: C12_17  and  N5_18 
REMARK    7  A    between atoms: N5_18  and  C13_19 
ROOT
HETATM    1  C8  UNL     1      23.233   4.351  50.324  1.00  0.00     0.032 A 
HETATM    2  N3  UNL     1      23.597   5.342  49.559  1.00  0.00    -0.267 NA
HETATM    3  C9  UNL     1      24.963   5.304  49.160  1.00  0.00     0.137 A 
HETATM    4  C10 UNL     1      25.803   4.324  49.544  1.00  0.00     0.062 A 
HETATM    5  C11 UNL     1      27.112   4.537  49.000  1.00  0.00     0.098 C 
HETATM    6  N4  UNL     1      28.197   4.694  48.560  1.00  0.00    -0.192 NA
HETATM    7  C12 UNL     1      25.451   3.169  50.408  1.00  0.00     0.132 A 
HETATM    8  C19 UNL     1      24.016   3.209  50.844  1.00  0.00     0.087 A 
ENDROOT
BRANCH   7   9
HETATM    9  N5  UNL     1      26.330   3.057  51.547  1.00  0.00    -0.380 N 
HETATM   10  H16 UNL     1      26.485   3.991  52.033  1.00  0.00     0.160 HD
BRANCH   9  11
HETATM   11  C13 UNL     1      27.052   2.046  52.197  1.00  0.00     0.030 A 
HETATM   12  C14 UNL     1      28.140   2.262  53.051  1.00  0.00     0.032 A 
HETATM   13  C15 UNL     1      28.739   1.179  53.645  1.00  0.00     0.046 A 
HETATM   14  C16 UNL     1      28.353  -0.131  53.470  1.00  0.00     0.138 A 
HETATM   15  F1  UNL     1      29.046  -1.092  54.124  1.00  0.00    -0.204 F 
HETATM   16  C17 UNL     1      27.271  -0.344  52.622  1.00  0.00     0.074 A 
HETATM   17 CL1  UNL     1      26.819  -2.025  52.431  1.00  0.00    -0.081 Cl
HETATM   18  C18 UNL     1      26.659   0.736  52.018  1.00  0.00     0.056 A 
ENDBRANCH   9  11
ENDBRANCH   7   9
BRANCH   1  19
HETATM   19  C7  UNL     1      21.804   4.305  50.798  1.00  0.00     0.177 C 
BRANCH  19  20
HETATM   20  N2  UNL     1      21.273   2.957  50.654  1.00  0.00    -0.352 N 
HETATM   21  C6  UNL     1      20.388   2.539  51.713  1.00  0.00     0.241 C 
HETATM   22  O1  UNL     1      20.103   3.304  52.688  1.00  0.00    -0.269 OA
HETATM   23  H11 UNL     1      21.465   2.271  49.875  1.00  0.00     0.163 HD
BRANCH  21  24
HETATM   24  C5  UNL     1      19.806   1.182  51.645  1.00  0.00     0.072 C 
HETATM   25  C4  UNL     1      18.570   0.782  51.988  1.00  0.00     0.008 C 
BRANCH  25  26
HETATM   26  C3  UNL     1      18.112  -0.645  51.864  1.00  0.00     0.299 C 
BRANCH  26  27
HETATM   27  N1  UNL     1      17.322  -1.020  53.013  1.00  0.00     0.083 N 
HETATM   28  C1  UNL     1      15.911  -0.943  52.676  1.00  0.00     0.309 C 
HETATM   29  C2  UNL     1      17.706  -2.328  53.462  1.00  0.00     0.309 C 
ENDBRANCH  26  27
ENDBRANCH  25  26
ENDBRANCH  21  24
ENDBRANCH  19  20
ENDBRANCH   1  19
TORSDOF 7
ENDMDL
MODEL 6
REMARK VINA RESULT:      -7.6      3.123      7.213
REMARK  7 active torsions:
REMARK  status: ('A' for Active; 'I' for Inactive)
REMARK    1  A    between atoms: N1_2  and  C3_4 
REMARK    2  A    between atoms: C3_4  and  C4_5 
REMARK    3  A    between atoms: C5_6  and  C6_7 
REMARK       I    between atoms: C6_7  and  N2_9 
REMARK    4  A    between atoms: N2_9  and  C7_10 
REMARK    5  A    between atoms: C7_10  and  C8_11 
REMARK    6  A    between atoms: C12_17  and  N5_18 
REMARK    7  A    between atoms: N5_18  and  C13_19 
ROOT
HETATM    1  C8  UNL     1      24.284   4.238  50.107  1.00  0.00     0.032 A 
HETATM    2  N3  UNL     1      23.768   3.491  49.172  1.00  0.00    -0.267 NA
HETATM    3  C9  UNL     1      22.964   2.420  49.653  1.00  0.00     0.137 A 
HETATM    4  C10 UNL     1      22.758   2.202  50.966  1.00  0.00     0.062 A 
HETATM    5  C11 UNL     1      21.915   1.060  51.163  1.00  0.00     0.098 C 
HETATM    6  N4  UNL     1      21.219   0.122  51.346  1.00  0.00    -0.192 NA
HETATM    7  C12 UNL     1      23.312   3.015  52.078  1.00  0.00     0.132 A 
HETATM    8  C19 UNL     1      24.172   4.138  51.579  1.00  0.00     0.087 A 
ENDROOT
BRANCH   7   9
HETATM    9  N5  UNL     1      24.028   2.207  53.035  1.00  0.00    -0.380 N 
HETATM   10  H16 UNL     1      23.535   2.163  53.978  1.00  0.00     0.160 HD
BRANCH   9  11
HETATM   11  C13 UNL     1      25.212   1.458  53.072  1.00  0.00     0.030 A 
HETATM   12  C14 UNL     1      25.323   0.117  52.684  1.00  0.00     0.032 A 
HETATM   13  C15 UNL     1      26.554  -0.488  52.746  1.00  0.00     0.046 A 
HETATM   14  C16 UNL     1      27.715   0.123  53.164  1.00  0.00     0.138 A 
HETATM   15  F1  UNL     1      28.853  -0.608  53.170  1.00  0.00    -0.204 F 
HETATM   16  C17 UNL     1      27.603   1.456  53.548  1.00  0.00     0.074 A 
HETATM   17 CL1  UNL     1      29.104   2.188  54.073  1.00  0.00    -0.081 Cl
HETATM   18  C18 UNL     1      26.371   2.076  53.492  1.00  0.00     0.056 A 
ENDBRANCH   9  11
ENDBRANCH   7   9
BRANCH   1  19
HETATM   19  C7  UNL     1      25.151   5.399  49.695  1.00  0.00     0.177 C 
BRANCH  19  20
HETATM   20  N2  UNL     1      26.526   4.957  49.513  1.00  0.00    -0.352 N 
HETATM   21  C6  UNL     1      27.296   5.741  48.580  1.00  0.00     0.241 C 
HETATM   22  O1  UNL     1      26.795   6.742  47.975  1.00  0.00    -0.269 OA
HETATM   23  H11 UNL     1      27.006   4.140  49.981  1.00  0.00     0.163 HD
BRANCH  21  24
HETATM   24  C5  UNL     1      28.701   5.358  48.334  1.00  0.00     0.072 C 
HETATM   25  C4  UNL     1      29.779   6.153  48.219  1.00  0.00     0.008 C 
BRANCH  25  26
HETATM   26  C3  UNL     1      31.163   5.619  47.968  1.00  0.00     0.299 C 
BRANCH  26  27
HETATM   27  N1  UNL     1      32.036   5.952  49.068  1.00  0.00     0.083 N 
HETATM   28  C1  UNL     1      33.420   5.814  48.646  1.00  0.00     0.309 C 
HETATM   29  C2  UNL     1      31.739   7.273  49.543  1.00  0.00     0.309 C 
ENDBRANCH  26  27
ENDBRANCH  25  26
ENDBRANCH  21  24
ENDBRANCH  19  20
ENDBRANCH   1  19
TORSDOF 7
ENDMDL
MODEL 7
REMARK VINA RESULT:      -7.4      1.623      5.874
REMARK  7 active torsions:
REMARK  status: ('A' for Active; 'I' for Inactive)
REMARK    1  A    between atoms: N1_2  and  C3_4 
REMARK    2  A    between atoms: C3_4  and  C4_5 
REMARK    3  A    between atoms: C5_6  and  C6_7 
REMARK       I    between atoms: C6_7  and  N2_9 
REMARK    4  A    between atoms: N2_9  and  C7_10 
REMARK    5  A    between atoms: C7_10  and  C8_11 
REMARK    6  A    between atoms: C12_17  and  N5_18 
REMARK    7  A    between atoms: N5_18  and  C13_19 
ROOT
HETATM    1  C8  UNL     1      21.164   1.349  51.897  1.00  0.00     0.032 A 
HETATM    2  N3  UNL     1      20.364   0.462  52.418  1.00  0.00    -0.267 NA
HETATM    3  C9  UNL     1      20.954  -0.330  53.444  1.00  0.00     0.137 A 
HETATM    4  C10 UNL     1      22.231  -0.170  53.838  1.00  0.00     0.062 A 
HETATM    5  C11 UNL     1      22.560  -1.097  54.881  1.00  0.00     0.098 C 
HETATM    6  N4  UNL     1      22.849  -1.853  55.742  1.00  0.00    -0.192 NA
HETATM    7  C12 UNL     1      23.191   0.822  53.290  1.00  0.00     0.132 A 
HETATM    8  C19 UNL     1      22.580   1.650  52.198  1.00  0.00     0.087 A 
ENDROOT
BRANCH   7   9
HETATM    9  N5  UNL     1      24.414   0.201  52.840  1.00  0.00    -0.380 N 
HETATM   10  H16 UNL     1      24.237  -0.586  52.145  1.00  0.00     0.160 HD
BRANCH   9  11
HETATM   11  C13 UNL     1      25.789   0.344  53.070  1.00  0.00     0.030 A 
HETATM   12  C14 UNL     1      26.423   1.546  53.408  1.00  0.00     0.032 A 
HETATM   13  C15 UNL     1      27.777   1.537  53.633  1.00  0.00     0.046 A 
HETATM   14  C16 UNL     1      28.584   0.424  53.556  1.00  0.00     0.138 A 
HETATM   15  F1  UNL     1      29.905   0.576  53.805  1.00  0.00    -0.204 F 
HETATM   16  C17 UNL     1      27.952  -0.770  53.222  1.00  0.00     0.074 A 
HETATM   17 CL1  UNL     1      29.019  -2.156  53.135  1.00  0.00    -0.081 Cl
HETATM   18  C18 UNL     1      26.591  -0.775  52.992  1.00  0.00     0.056 A 
ENDBRANCH   9  11
ENDBRANCH   7   9
BRANCH   1  19
HETATM   19  C7  UNL     1      20.630   2.235  50.803  1.00  0.00     0.177 C 
BRANCH  19  20
HETATM   20  N2  UNL     1      21.729   2.804  50.037  1.00  0.00    -0.352 N 
HETATM   21  C6  UNL     1      21.839   4.239  50.109  1.00  0.00     0.241 C 
HETATM   22  O1  UNL     1      21.029   4.939  50.797  1.00  0.00    -0.269 OA
HETATM   23  H11 UNL     1      22.436   2.286  49.448  1.00  0.00     0.163 HD
BRANCH  21  24
HETATM   24  C5  UNL     1      22.927   4.898  49.358  1.00  0.00     0.072 C 
HETATM   25  C4  UNL     1      24.225   5.011  49.689  1.00  0.00     0.008 C 
BRANCH  25  26
HETATM   26  C3  UNL     1      25.230   5.715  48.819  1.00  0.00     0.299 C 
BRANCH  26  27
HETATM   27  N1  UNL     1      26.571   5.430  49.270  1.00  0.00     0.083 N 
HETATM   28  C1  UNL     1      26.767   3.992  49.326  1.00  0.00     0.309 C 
HETATM   29  C2  UNL     1      27.522   6.078  48.412  1.00  0.00     0.309 C 
ENDBRANCH  26  27
ENDBRANCH  25  26
ENDBRANCH  21  24
ENDBRANCH  19  20
ENDBRANCH   1  19
TORSDOF 7
ENDMDL
MODEL 8
REMARK VINA RESULT:      -7.3      2.786      6.263
REMARK  7 active torsions:
REMARK  status: ('A' for Active; 'I' for Inactive)
REMARK    1  A    between atoms: N1_2  and  C3_4 
REMARK    2  A    between atoms: C3_4  and  C4_5 
REMARK    3  A    between atoms: C5_6  and  C6_7 
REMARK       I    between atoms: C6_7  and  N2_9 
REMARK    4  A    between atoms: N2_9  and  C7_10 
REMARK    5  A    between atoms: C7_10  and  C8_11 
REMARK    6  A    between atoms: C12_17  and  N5_18 
REMARK    7  A    between atoms: N5_18  and  C13_19 
ROOT
HETATM    1  C8  UNL     1      23.246   1.596  51.183  1.00  0.00     0.032 A 
HETATM    2  N3  UNL     1      22.061   1.058  51.131  1.00  0.00    -0.267 NA
HETATM    3  C9  UNL     1      21.758   0.197  52.224  1.00  0.00     0.137 A 
HETATM    4  C10 UNL     1      22.629  -0.036  53.224  1.00  0.00     0.062 A 
HETATM    5  C11 UNL     1      22.066  -0.939  54.185  1.00  0.00     0.098 C 
HETATM    6  N4  UNL     1      21.619  -1.680  54.989  1.00  0.00    -0.192 NA
HETATM    7  C12 UNL     1      23.990   0.546  53.344  1.00  0.00     0.132 A 
HETATM    8  C19 UNL     1      24.321   1.444  52.188  1.00  0.00     0.087 A 
ENDROOT
BRANCH   7   9
HETATM    9  N5  UNL     1      25.001  -0.469  53.511  1.00  0.00    -0.380 N 
HETATM   10  H16 UNL     1      24.583  -1.433  53.684  1.00  0.00     0.160 HD
BRANCH   9  11
HETATM   11  C13 UNL     1      26.401  -0.540  53.515  1.00  0.00     0.030 A 
HETATM   12  C14 UNL     1      27.150  -1.610  53.010  1.00  0.00     0.032 A 
HETATM   13  C15 UNL     1      28.520  -1.535  53.053  1.00  0.00     0.046 A 
HETATM   14  C16 UNL     1      29.238  -0.475  53.560  1.00  0.00     0.138 A 
HETATM   15  F1  UNL     1      30.588  -0.550  53.533  1.00  0.00    -0.204 F 
HETATM   16  C17 UNL     1      28.492   0.588  54.060  1.00  0.00     0.074 A 
HETATM   17 CL1  UNL     1      29.449   1.911  54.694  1.00  0.00    -0.081 Cl
HETATM   18  C18 UNL     1      27.114   0.526  54.023  1.00  0.00     0.056 A 
ENDBRANCH   9  11
ENDBRANCH   7   9
BRANCH   1  19
HETATM   19  C7  UNL     1      23.658   2.523  50.069  1.00  0.00     0.177 C 
BRANCH  19  20
HETATM   20  N2  UNL     1      22.961   3.795  50.193  1.00  0.00    -0.352 N 
HETATM   21  C6  UNL     1      23.819   4.944  50.346  1.00  0.00     0.241 C 
HETATM   22  O1  UNL     1      25.086   4.834  50.366  1.00  0.00    -0.269 OA
HETATM   23  H11 UNL     1      21.918   3.959  50.183  1.00  0.00     0.163 HD
BRANCH  21  24
HETATM   24  C5  UNL     1      23.191   6.274  50.481  1.00  0.00     0.072 C 
HETATM   25  C4  UNL     1      21.914   6.626  50.252  1.00  0.00     0.008 C 
BRANCH  25  26
HETATM   26  C3  UNL     1      21.411   8.032  50.433  1.00  0.00     0.299 C 
BRANCH  26  27
HETATM   27  N1  UNL     1      20.299   8.284  49.546  1.00  0.00     0.083 N 
HETATM   28  C1  UNL     1      19.679   7.024  49.178  1.00  0.00     0.309 C 
HETATM   29  C2  UNL     1      19.374   9.187  50.171  1.00  0.00     0.309 C 
ENDBRANCH  26  27
ENDBRANCH  25  26
ENDBRANCH  21  24
ENDBRANCH  19  20
ENDBRANCH   1  19
TORSDOF 7
ENDMDL
MODEL 9
REMARK VINA RESULT:      -7.2      2.372      3.404
REMARK  7 active torsions:
REMARK  status: ('A' for Active; 'I' for Inactive)
REMARK    1  A    between atoms: N1_2  and  C3_4 
REMARK    2  A    between atoms: C3_4  and  C4_5 
REMARK    3  A    between atoms: C5_6  and  C6_7 
REMARK       I    between atoms: C6_7  and  N2_9 
REMARK    4  A    between atoms: N2_9  and  C7_10 
REMARK    5  A    between atoms: C7_10  and  C8_11 
REMARK    6  A    between atoms: C12_17  and  N5_18 
REMARK    7  A    between atoms: N5_18  and  C13_19 
ROOT
HETATM    1  C8  UNL     1      23.474   4.403  51.412  1.00  0.00     0.032 A 
HETATM    2  N3  UNL     1      23.688   5.382  50.579  1.00  0.00    -0.267 NA
HETATM    3  C9  UNL     1      24.923   5.297  49.877  1.00  0.00     0.137 A 
HETATM    4  C10 UNL     1      25.793   4.287  50.062  1.00  0.00     0.062 A 
HETATM    5  C11 UNL     1      26.949   4.454  49.231  1.00  0.00     0.098 C 
HETATM    6  N4  UNL     1      27.908   4.574  48.551  1.00  0.00    -0.192 NA
HETATM    7  C12 UNL     1      25.609   3.141  50.989  1.00  0.00     0.132 A 
HETATM    8  C19 UNL     1      24.315   3.232  51.744  1.00  0.00     0.087 A 
ENDROOT
BRANCH   7   9
HETATM    9  N5  UNL     1      26.721   2.994  51.896  1.00  0.00    -0.380 N 
HETATM   10  H16 UNL     1      27.134   3.931  52.188  1.00  0.00     0.160 HD
BRANCH   9  11
HETATM   11  C13 UNL     1      27.425   1.944  52.503  1.00  0.00     0.030 A 
HETATM   12  C14 UNL     1      28.518   2.105  53.362  1.00  0.00     0.032 A 
HETATM   13  C15 UNL     1      29.098   0.988  53.910  1.00  0.00     0.046 A 
HETATM   14  C16 UNL     1      28.686  -0.307  53.684  1.00  0.00     0.138 A 
HETATM   15  F1  UNL     1      29.362  -1.306  54.297  1.00  0.00    -0.204 F 
HETATM   16  C17 UNL     1      27.599  -0.465  52.831  1.00  0.00     0.074 A 
HETATM   17 CL1  UNL     1      27.115  -2.128  52.574  1.00  0.00    -0.081 Cl
HETATM   18  C18 UNL     1      27.007   0.650  52.273  1.00  0.00     0.056 A 
ENDBRANCH   9  11
ENDBRANCH   7   9
BRANCH   1  19
HETATM   19  C7  UNL     1      22.192   4.405  52.202  1.00  0.00     0.177 C 
BRANCH  19  20
HETATM   20  N2  UNL     1      21.053   4.244  51.310  1.00  0.00    -0.352 N 
HETATM   21  C6  UNL     1      20.008   3.386  51.810  1.00  0.00     0.241 C 
HETATM   22  O1  UNL     1      20.091   2.825  52.948  1.00  0.00    -0.269 OA
HETATM   23  H11 UNL     1      20.918   4.679  50.357  1.00  0.00     0.163 HD
BRANCH  21  24
HETATM   24  C5  UNL     1      18.817   3.167  50.964  1.00  0.00     0.072 C 
HETATM   25  C4  UNL     1      17.659   2.565  51.286  1.00  0.00     0.008 C 
BRANCH  25  26
HETATM   26  C3  UNL     1      16.522   2.412  50.314  1.00  0.00     0.299 C 
BRANCH  26  27
HETATM   27  N1  UNL     1      16.862   1.453  49.289  1.00  0.00     0.083 N 
HETATM   28  C1  UNL     1      16.883   0.119  49.864  1.00  0.00     0.309 C 
HETATM   29  C2  UNL     1      15.940   1.563  48.195  1.00  0.00     0.309 C 
ENDBRANCH  26  27
ENDBRANCH  25  26
ENDBRANCH  21  24
ENDBRANCH  19  20
ENDBRANCH   1  19
TORSDOF 7
ENDMDL
