MODEL 1
REMARK VINA RESULT:      -8.3      0.000      0.000
REMARK  2 active torsions:
REMARK  status: ('A' for Active; 'I' for Inactive)
REMARK    1  A    between atoms: C3_5  and  C4_6 
REMARK    2  A    between atoms: C4_6  and  C5_8 
ROOT
HETATM    1  C1  UNL     1      23.011   4.153  51.094  1.00  0.00     0.157 C 
HETATM    2  N1  UNL     1      23.776   2.950  51.454  1.00  0.00    -0.344 N 
HETATM    3  C2  UNL     1      25.129   2.514  51.204  1.00  0.00     0.096 A 
HETATM    4  S1  UNL     1      26.026   3.568  50.334  1.00  0.00    -0.064 SA
HETATM    5  C3  UNL     1      25.319   1.178  51.838  1.00  0.00     0.157 A 
HETATM    6  C11 UNL     1      23.963   0.944  52.438  1.00  0.00    -0.011 A 
HETATM    7  C12 UNL     1      23.633  -0.191  53.149  1.00  0.00     0.034 A 
HETATM    8  C13 UNL     1      22.368  -0.344  53.675  1.00  0.00     0.034 A 
HETATM    9 CL1  UNL     1      21.860  -1.748  54.590  1.00  0.00    -0.084 Cl
HETATM   10  C14 UNL     1      21.453   0.668  53.469  1.00  0.00     0.026 A 
HETATM   11  C15 UNL     1      21.823   1.772  52.760  1.00  0.00     0.032 A 
HETATM   12  C16 UNL     1      23.074   1.974  52.213  1.00  0.00     0.042 A 
ENDROOT
BRANCH   5  13
HETATM   13  C4  UNL     1      26.366   1.144  52.858  1.00  0.00     0.174 C 
HETATM   14  O1  UNL     1      25.925   2.110  53.489  1.00  0.00    -0.291 OA
BRANCH  13  15
HETATM   15  C5  UNL     1      27.521   0.307  53.090  1.00  0.00     0.011 A 
HETATM   16  C6  UNL     1      28.792   0.635  53.512  1.00  0.00     0.015 A 
HETATM   17  C7  UNL     1      29.749  -0.344  53.668  1.00  0.00     0.001 A 
HETATM   18  C8  UNL     1      29.423  -1.657  53.399  1.00  0.00     0.000 A 
HETATM   19  C9  UNL     1      28.163  -2.024  52.975  1.00  0.00     0.001 A 
HETATM   20  C10 UNL     1      27.220  -1.031  52.825  1.00  0.00     0.015 A 
ENDBRANCH  13  15
ENDBRANCH   5  13
TORSDOF 2
ENDMDL
MODEL 2
REMARK VINA RESULT:      -7.8      2.752      5.062
REMARK  2 active torsions:
REMARK  status: ('A' for Active; 'I' for Inactive)
REMARK    1  A    between atoms: C3_5  and  C4_6 
REMARK    2  A    between atoms: C4_6  and  C5_8 
ROOT
HETATM    1  C1  UNL     1      21.333   0.290  53.910  1.00  0.00     0.157 C 
HETATM    2  N1  UNL     1      22.387   0.756  52.997  1.00  0.00    -0.344 N 
HETATM    3  C2  UNL     1      22.404   1.644  51.860  1.00  0.00     0.096 A 
HETATM    4  S1  UNL     1      20.947   2.283  51.483  1.00  0.00    -0.064 SA
HETATM    5  C3  UNL     1      23.800   1.720  51.341  1.00  0.00     0.157 A 
HETATM    6  C11 UNL     1      24.515   0.803  52.291  1.00  0.00    -0.011 A 
HETATM    7  C12 UNL     1      25.866   0.539  52.219  1.00  0.00     0.034 A 
HETATM    8  C13 UNL     1      26.462  -0.313  53.124  1.00  0.00     0.034 A 
HETATM    9 CL1  UNL     1      28.168  -0.707  53.108  1.00  0.00    -0.084 Cl
HETATM   10  C14 UNL     1      25.668  -0.886  54.095  1.00  0.00     0.026 A 
HETATM   11  C15 UNL     1      24.336  -0.596  54.129  1.00  0.00     0.032 A 
HETATM   12  C16 UNL     1      23.691   0.248  53.248  1.00  0.00     0.042 A 
ENDROOT
BRANCH   5  13
HETATM   13  C4  UNL     1      24.374   3.065  51.365  1.00  0.00     0.174 C 
HETATM   14  O1  UNL     1      23.833   3.387  52.428  1.00  0.00    -0.291 OA
BRANCH  13  15
HETATM   15  C5  UNL     1      25.256   3.800  50.489  1.00  0.00     0.011 A 
HETATM   16  C6  UNL     1      26.405   3.402  49.838  1.00  0.00     0.015 A 
HETATM   17  C7  UNL     1      27.094   4.287  49.038  1.00  0.00     0.001 A 
HETATM   18  C8  UNL     1      26.624   5.576  48.893  1.00  0.00     0.000 A 
HETATM   19  C9  UNL     1      25.480   6.011  49.528  1.00  0.00     0.001 A 
HETATM   20  C10 UNL     1      24.805   5.112  50.323  1.00  0.00     0.015 A 
ENDBRANCH  13  15
ENDBRANCH   5  13
TORSDOF 2
ENDMDL
MODEL 3
REMARK VINA RESULT:      -7.7      2.963      3.810
REMARK  2 active torsions:
REMARK  status: ('A' for Active; 'I' for Inactive)
REMARK    1  A    between atoms: C3_5  and  C4_6 
REMARK    2  A    between atoms: C4_6  and  C5_8 
ROOT
HETATM    1  C1  UNL     1      20.983   0.665  51.148  1.00  0.00     0.157 C 
HETATM    2  N1  UNL     1      22.300   0.994  51.713  1.00  0.00    -0.344 N 
HETATM    3  C2  UNL     1      22.968   0.664  52.949  1.00  0.00     0.096 A 
HETATM    4  S1  UNL     1      22.091  -0.278  53.957  1.00  0.00    -0.064 SA
HETATM    5  C3  UNL     1      24.315   1.304  52.942  1.00  0.00     0.157 A 
HETATM    6  C11 UNL     1      24.302   1.997  51.611  1.00  0.00    -0.011 A 
HETATM    7  C12 UNL     1      25.359   2.746  51.135  1.00  0.00     0.034 A 
HETATM    8  C13 UNL     1      25.284   3.356  49.902  1.00  0.00     0.034 A 
HETATM    9 CL1  UNL     1      26.572   4.325  49.218  1.00  0.00    -0.084 Cl
HETATM   10  C14 UNL     1      24.128   3.194  49.166  1.00  0.00     0.026 A 
HETATM   11  C15 UNL     1      23.109   2.444  49.676  1.00  0.00     0.032 A 
HETATM   12  C16 UNL     1      23.133   1.813  50.903  1.00  0.00     0.042 A 
ENDROOT
BRANCH   5  13
HETATM   13  C4  UNL     1      25.426   0.359  53.042  1.00  0.00     0.174 C 
HETATM   14  O1  UNL     1      24.729  -0.640  52.833  1.00  0.00    -0.291 OA
BRANCH  13  15
HETATM   15  C5  UNL     1      26.843   0.491  53.292  1.00  0.00     0.011 A 
HETATM   16  C6  UNL     1      27.597   1.605  53.592  1.00  0.00     0.015 A 
HETATM   17  C7  UNL     1      28.955   1.493  53.797  1.00  0.00     0.001 A 
HETATM   18  C8  UNL     1      29.554   0.254  53.700  1.00  0.00     0.000 A 
HETATM   19  C9  UNL     1      28.833  -0.884  53.401  1.00  0.00     0.001 A 
HETATM   20  C10 UNL     1      27.477  -0.751  53.200  1.00  0.00     0.015 A 
ENDBRANCH  13  15
ENDBRANCH   5  13
TORSDOF 2
ENDMDL
MODEL 4
REMARK VINA RESULT:      -7.4      2.455      5.386
REMARK  2 active torsions:
REMARK  status: ('A' for Active; 'I' for Inactive)
REMARK    1  A    between atoms: C3_5  and  C4_6 
REMARK    2  A    between atoms: C4_6  and  C5_8 
ROOT
HETATM    1  C1  UNL     1      26.595   3.652  49.415  1.00  0.00     0.157 C 
HETATM    2  N1  UNL     1      25.659   3.603  50.548  1.00  0.00    -0.344 N 
HETATM    3  C2  UNL     1      24.616   4.481  51.020  1.00  0.00     0.096 A 
HETATM    4  S1  UNL     1      24.412   5.830  50.119  1.00  0.00    -0.064 SA
HETATM    5  C3  UNL     1      24.008   3.877  52.240  1.00  0.00     0.157 A 
HETATM    6  C11 UNL     1      24.812   2.616  52.373  1.00  0.00    -0.011 A 
HETATM    7  C12 UNL     1      24.616   1.694  53.380  1.00  0.00     0.034 A 
HETATM    8  C13 UNL     1      25.389   0.555  53.445  1.00  0.00     0.034 A 
HETATM    9 CL1  UNL     1      25.213  -0.668  54.686  1.00  0.00    -0.084 Cl
HETATM   10  C14 UNL     1      26.354   0.369  52.477  1.00  0.00     0.026 A 
HETATM   11  C15 UNL     1      26.511   1.307  51.499  1.00  0.00     0.032 A 
HETATM   12  C16 UNL     1      25.766   2.463  51.389  1.00  0.00     0.042 A 
ENDROOT
BRANCH   5  13
HETATM   13  C4  UNL     1      22.579   3.588  52.114  1.00  0.00     0.174 C 
HETATM   14  O1  UNL     1      22.215   4.667  52.593  1.00  0.00    -0.291 OA
BRANCH  13  15
HETATM   15  C5  UNL     1      21.817   2.464  51.620  1.00  0.00     0.011 A 
HETATM   16  C6  UNL     1      21.924   1.764  50.437  1.00  0.00     0.015 A 
HETATM   17  C7  UNL     1      21.078   0.709  50.174  1.00  0.00     0.001 A 
HETATM   18  C8  UNL     1      20.123   0.358  51.106  1.00  0.00     0.000 A 
HETATM   19  C9  UNL     1      19.986   1.035  52.300  1.00  0.00     0.001 A 
HETATM   20  C10 UNL     1      20.841   2.087  52.544  1.00  0.00     0.015 A 
ENDBRANCH  13  15
ENDBRANCH   5  13
TORSDOF 2
ENDMDL
MODEL 5
REMARK VINA RESULT:      -7.3      2.570      5.804
REMARK  2 active torsions:
REMARK  status: ('A' for Active; 'I' for Inactive)
REMARK    1  A    between atoms: C3_5  and  C4_6 
REMARK    2  A    between atoms: C4_6  and  C5_8 
ROOT
HETATM    1  C1  UNL     1      24.894   4.874  50.439  1.00  0.00     0.157 C 
HETATM    2  N1  UNL     1      24.208   3.773  51.130  1.00  0.00    -0.344 N 
HETATM    3  C2  UNL     1      22.848   3.558  51.562  1.00  0.00     0.096 A 
HETATM    4  S1  UNL     1      21.830   4.792  51.222  1.00  0.00    -0.064 SA
HETATM    5  C3  UNL     1      22.767   2.221  52.218  1.00  0.00     0.157 A 
HETATM    6  C11 UNL     1      24.188   1.752  52.100  1.00  0.00    -0.011 A 
HETATM    7  C12 UNL     1      24.626   0.533  52.574  1.00  0.00     0.034 A 
HETATM    8  C13 UNL     1      25.945   0.161  52.433  1.00  0.00     0.034 A 
HETATM    9 CL1  UNL     1      26.591  -1.363  53.004  1.00  0.00    -0.084 Cl
HETATM   10  C14 UNL     1      26.804   1.041  51.805  1.00  0.00     0.026 A 
HETATM   11  C15 UNL     1      26.326   2.234  51.351  1.00  0.00     0.032 A 
HETATM   12  C16 UNL     1      25.017   2.654  51.468  1.00  0.00     0.042 A 
ENDROOT
BRANCH   5  13
HETATM   13  C4  UNL     1      21.842   1.293  51.570  1.00  0.00     0.174 C 
HETATM   14  O1  UNL     1      22.382   1.370  50.461  1.00  0.00    -0.291 OA
BRANCH  13  15
HETATM   15  C5  UNL     1      20.696   0.534  52.016  1.00  0.00     0.011 A 
HETATM   16  C6  UNL     1      19.427   0.438  51.486  1.00  0.00     0.015 A 
HETATM   17  C7  UNL     1      18.479  -0.361  52.089  1.00  0.00     0.001 A 
HETATM   18  C8  UNL     1      18.813  -1.065  53.227  1.00  0.00     0.000 A 
HETATM   19  C9  UNL     1      20.071  -0.994  53.787  1.00  0.00     0.001 A 
HETATM   20  C10 UNL     1      21.004  -0.190  53.170  1.00  0.00     0.015 A 
ENDBRANCH  13  15
ENDBRANCH   5  13
TORSDOF 2
ENDMDL
MODEL 6
REMARK VINA RESULT:      -6.9      3.610      4.863
REMARK  2 active torsions:
REMARK  status: ('A' for Active; 'I' for Inactive)
REMARK    1  A    between atoms: C3_5  and  C4_6 
REMARK    2  A    between atoms: C4_6  and  C5_8 
ROOT
HETATM    1  C1  UNL     1      18.878   1.938  51.603  1.00  0.00     0.157 C 
HETATM    2  N1  UNL     1      20.301   2.046  51.249  1.00  0.00    -0.344 N 
HETATM    3  C2  UNL     1      21.020   2.721  50.196  1.00  0.00     0.096 A 
HETATM    4  S1  UNL     1      20.069   3.550  49.155  1.00  0.00    -0.064 SA
HETATM    5  C3  UNL     1      22.477   2.452  50.372  1.00  0.00     0.157 A 
HETATM    6  C11 UNL     1      22.467   1.584  51.597  1.00  0.00    -0.011 A 
HETATM    7  C12 UNL     1      23.611   1.066  52.168  1.00  0.00     0.034 A 
HETATM    8  C13 UNL     1      23.533   0.276  53.295  1.00  0.00     0.034 A 
HETATM    9 CL1  UNL     1      24.929  -0.425  54.087  1.00  0.00    -0.084 Cl
HETATM   10  C14 UNL     1      22.285   0.024  53.826  1.00  0.00     0.026 A 
HETATM   11  C15 UNL     1      21.182   0.558  53.228  1.00  0.00     0.032 A 
HETATM   12  C16 UNL     1      21.205   1.353  52.101  1.00  0.00     0.042 A 
ENDROOT
BRANCH   5  13
HETATM   13  C4  UNL     1      23.286   3.654  50.575  1.00  0.00     0.174 C 
HETATM   14  O1  UNL     1      22.576   4.101  51.482  1.00  0.00    -0.291 OA
BRANCH  13  15
HETATM   15  C5  UNL     1      24.486   4.176  49.965  1.00  0.00     0.011 A 
HETATM   16  C6  UNL     1      24.732   5.402  49.383  1.00  0.00     0.015 A 
HETATM   17  C7  UNL     1      25.974   5.687  48.858  1.00  0.00     0.001 A 
HETATM   18  C8  UNL     1      26.970   4.735  48.920  1.00  0.00     0.000 A 
HETATM   19  C9  UNL     1      26.762   3.497  49.493  1.00  0.00     0.001 A 
HETATM   20  C10 UNL     1      25.514   3.231  50.013  1.00  0.00     0.015 A 
ENDBRANCH  13  15
ENDBRANCH   5  13
TORSDOF 2
ENDMDL
MODEL 7
REMARK VINA RESULT:      -6.8      8.936     10.946
REMARK  2 active torsions:
REMARK  status: ('A' for Active; 'I' for Inactive)
REMARK    1  A    between atoms: C3_5  and  C4_6 
REMARK    2  A    between atoms: C4_6  and  C5_8 
ROOT
HETATM    1  C1  UNL     1      32.366   7.824  44.167  1.00  0.00     0.157 C 
HETATM    2  N1  UNL     1      32.396   7.489  45.598  1.00  0.00    -0.344 N 
HETATM    3  C2  UNL     1      32.252   8.263  46.808  1.00  0.00     0.096 A 
HETATM    4  S1  UNL     1      32.001   9.859  46.560  1.00  0.00    -0.064 SA
HETATM    5  C3  UNL     1      32.379   7.342  47.974  1.00  0.00     0.157 A 
HETATM    6  C11 UNL     1      32.603   6.027  47.285  1.00  0.00    -0.011 A 
HETATM    7  C12 UNL     1      32.782   4.838  47.960  1.00  0.00     0.034 A 
HETATM    8  C13 UNL     1      32.983   3.664  47.266  1.00  0.00     0.034 A 
HETATM    9 CL1  UNL     1      33.220   2.109  48.037  1.00  0.00    -0.084 Cl
HETATM   10  C14 UNL     1      32.997   3.718  45.888  1.00  0.00     0.026 A 
HETATM   11  C15 UNL     1      32.815   4.917  45.263  1.00  0.00     0.032 A 
HETATM   12  C16 UNL     1      32.611   6.119  45.909  1.00  0.00     0.042 A 
ENDROOT
BRANCH   5  13
HETATM   13  C4  UNL     1      31.196   7.299  48.833  1.00  0.00     0.174 C 
HETATM   14  O1  UNL     1      31.786   7.709  49.839  1.00  0.00    -0.291 OA
BRANCH  13  15
HETATM   15  C5  UNL     1      29.816   6.922  48.631  1.00  0.00     0.011 A 
HETATM   16  C6  UNL     1      29.248   5.680  48.440  1.00  0.00     0.015 A 
HETATM   17  C7  UNL     1      27.887   5.556  48.267  1.00  0.00     0.001 A 
HETATM   18  C8  UNL     1      27.097   6.686  48.287  1.00  0.00     0.000 A 
HETATM   19  C9  UNL     1      27.628   7.945  48.474  1.00  0.00     0.001 A 
HETATM   20  C10 UNL     1      28.991   8.049  48.646  1.00  0.00     0.015 A 
ENDBRANCH  13  15
ENDBRANCH   5  13
TORSDOF 2
ENDMDL
MODEL 8
REMARK VINA RESULT:      -6.8      1.549      2.210
REMARK  2 active torsions:
REMARK  status: ('A' for Active; 'I' for Inactive)
REMARK    1  A    between atoms: C3_5  and  C4_6 
REMARK    2  A    between atoms: C4_6  and  C5_8 
ROOT
HETATM    1  C1  UNL     1      22.434   5.487  50.100  1.00  0.00     0.157 C 
HETATM    2  N1  UNL     1      22.928   4.188  50.582  1.00  0.00    -0.344 N 
HETATM    3  C2  UNL     1      24.202   3.514  50.509  1.00  0.00     0.096 A 
HETATM    4  S1  UNL     1      25.364   4.355  49.725  1.00  0.00    -0.064 SA
HETATM    5  C3  UNL     1      24.078   2.197  51.197  1.00  0.00     0.157 A 
HETATM    6  C11 UNL     1      22.642   2.230  51.635  1.00  0.00    -0.011 A 
HETATM    7  C12 UNL     1      22.038   1.204  52.332  1.00  0.00     0.034 A 
HETATM    8  C13 UNL     1      20.715   1.297  52.705  1.00  0.00     0.034 A 
HETATM    9 CL1  UNL     1      19.865   0.047  53.589  1.00  0.00    -0.084 Cl
HETATM   10  C14 UNL     1      20.023   2.441  52.363  1.00  0.00     0.026 A 
HETATM   11  C15 UNL     1      20.661   3.430  51.674  1.00  0.00     0.032 A 
HETATM   12  C16 UNL     1      21.982   3.386  51.276  1.00  0.00     0.042 A 
ENDROOT
BRANCH   5  13
HETATM   13  C4  UNL     1      24.980   2.031  52.337  1.00  0.00     0.174 C 
HETATM   14  O1  UNL     1      24.630   3.076  52.896  1.00  0.00    -0.291 OA
BRANCH  13  15
HETATM   15  C5  UNL     1      25.950   1.030  52.718  1.00  0.00     0.011 A 
HETATM   16  C6  UNL     1      26.404  -0.079  52.036  1.00  0.00     0.015 A 
HETATM   17  C7  UNL     1      27.350  -0.906  52.603  1.00  0.00     0.001 A 
HETATM   18  C8  UNL     1      27.838  -0.614  53.860  1.00  0.00     0.000 A 
HETATM   19  C9  UNL     1      27.406   0.485  54.573  1.00  0.00     0.001 A 
HETATM   20  C10 UNL     1      26.461   1.300  53.989  1.00  0.00     0.015 A 
ENDBRANCH  13  15
ENDBRANCH   5  13
TORSDOF 2
ENDMDL
MODEL 9
REMARK VINA RESULT:      -6.7      3.806      7.090
REMARK  2 active torsions:
REMARK  status: ('A' for Active; 'I' for Inactive)
REMARK    1  A    between atoms: C3_5  and  C4_6 
REMARK    2  A    between atoms: C4_6  and  C5_8 
ROOT
HETATM    1  C1  UNL     1      27.871   4.942  48.519  1.00  0.00     0.157 C 
HETATM    2  N1  UNL     1      26.549   5.162  49.123  1.00  0.00    -0.344 N 
HETATM    3  C2  UNL     1      25.567   6.215  49.021  1.00  0.00     0.096 A 
HETATM    4  S1  UNL     1      25.994   7.439  48.026  1.00  0.00    -0.064 SA
HETATM    5  C3  UNL     1      24.407   5.862  49.889  1.00  0.00     0.157 A 
HETATM    6  C11 UNL     1      24.855   4.546  50.455  1.00  0.00    -0.011 A 
HETATM    7  C12 UNL     1      24.099   3.803  51.338  1.00  0.00     0.034 A 
HETATM    8  C13 UNL     1      24.569   2.600  51.821  1.00  0.00     0.034 A 
HETATM    9 CL1  UNL     1      23.681   1.591  52.944  1.00  0.00    -0.084 Cl
HETATM   10  C14 UNL     1      25.808   2.169  51.394  1.00  0.00     0.026 A 
HETATM   11  C15 UNL     1      26.520   2.936  50.519  1.00  0.00     0.032 A 
HETATM   12  C16 UNL     1      26.096   4.145  50.007  1.00  0.00     0.042 A 
ENDROOT
BRANCH   5  13
HETATM   13  C4  UNL     1      23.141   5.729  49.169  1.00  0.00     0.174 C 
HETATM   14  O1  UNL     1      22.550   6.579  49.844  1.00  0.00    -0.291 OA
BRANCH  13  15
HETATM   15  C5  UNL     1      22.690   4.915  48.063  1.00  0.00     0.011 A 
HETATM   16  C6  UNL     1      22.465   3.557  47.987  1.00  0.00     0.015 A 
HETATM   17  C7  UNL     1      22.028   2.988  46.811  1.00  0.00     0.001 A 
HETATM   18  C8  UNL     1      21.817   3.790  45.709  1.00  0.00     0.000 A 
HETATM   19  C9  UNL     1      22.032   5.153  45.746  1.00  0.00     0.001 A 
HETATM   20  C10 UNL     1      22.468   5.702  46.931  1.00  0.00     0.015 A 
ENDBRANCH  13  15
ENDBRANCH   5  13
TORSDOF 2
ENDMDL
