MODEL 1
REMARK VINA RESULT:      -8.3      0.000      0.000
REMARK  8 active torsions:
REMARK  status: ('A' for Active; 'I' for Inactive)
REMARK    1  A    between atoms: C6_6  and  N1_7 
REMARK    2  A    between atoms: N1_7  and  C7_8 
REMARK    3  A    between atoms: C11_14  and  O1_15 
REMARK    4  A    between atoms: O1_15  and  C12_16 
REMARK    5  A    between atoms: C12_16  and  C13_17 
REMARK    6  A    between atoms: C13_17  and  C14_18 
REMARK    7  A    between atoms: C14_18  and  C15_19 
REMARK    8  A    between atoms: C15_19  and  N4_20 
ROOT
HETATM    1  C7  UNL     1      23.178   3.699  49.184  1.00  0.00     0.142 A 
HETATM    2  N2  UNL     1      22.677   3.302  48.030  1.00  0.00    -0.224 NA
HETATM    3  C8  UNL     1      21.993   2.168  47.895  1.00  0.00     0.236 A 
HETATM    4  N3  UNL     1      21.780   1.361  48.947  1.00  0.00    -0.241 NA
HETATM    5  C9  UNL     1      22.274   1.715  50.170  1.00  0.00     0.074 A 
HETATM    6  C10 UNL     1      22.027   0.852  51.213  1.00  0.00     0.069 A 
HETATM    7  C11 UNL     1      22.499   1.153  52.471  1.00  0.00     0.071 A 
HETATM    8  C20 UNL     1      23.210   2.320  52.641  1.00  0.00     0.038 A 
HETATM    9  C21 UNL     1      23.417   3.134  51.549  1.00  0.00     0.020 A 
HETATM   10  C22 UNL     1      22.977   2.894  50.277  1.00  0.00     0.039 A 
ENDROOT
BRANCH   7  11
HETATM   11  O1  UNL     1      22.283   0.326  53.562  1.00  0.00    -0.351 OA
BRANCH  11  12
HETATM   12  C12 UNL     1      22.968  -0.906  53.697  1.00  0.00     0.175 C 
BRANCH  12  13
HETATM   13  C13 UNL     1      24.129  -0.675  54.628  1.00  0.00     0.028 C 
BRANCH  13  14
HETATM   14  C14 UNL     1      25.476  -0.820  53.913  1.00  0.00     0.032 C 
BRANCH  14  15
HETATM   15  C15 UNL     1      26.150   0.529  53.968  1.00  0.00     0.272 C 
BRANCH  15  16
HETATM   16  N4  UNL     1      27.160   0.597  52.952  1.00  0.00     0.092 N 
HETATM   17  C16 UNL     1      27.542   1.987  52.704  1.00  0.00     0.298 C 
HETATM   18  C17 UNL     1      28.622   2.380  53.674  1.00  0.00     0.198 C 
HETATM   19  O2  UNL     1      28.691   1.597  54.800  1.00  0.00    -0.388 OA
HETATM   20  C18 UNL     1      28.912   0.249  54.551  1.00  0.00     0.198 C 
HETATM   21  C19 UNL     1      28.337  -0.201  53.248  1.00  0.00     0.298 C 
ENDBRANCH  15  16
ENDBRANCH  14  15
ENDBRANCH  13  14
ENDBRANCH  12  13
ENDBRANCH  11  12
ENDBRANCH   7  11
BRANCH   1  22
HETATM   22  N1  UNL     1      23.910   4.898  49.373  1.00  0.00    -0.340 N 
HETATM   23  H7  UNL     1      23.494   5.738  49.801  1.00  0.00     0.167 HD
BRANCH  22  24
HETATM   24  C6  UNL     1      25.258   5.188  49.047  1.00  0.00     0.034 A 
HETATM   25  C5  UNL     1      26.321   4.303  49.163  1.00  0.00     0.029 A 
HETATM   26  C4  UNL     1      27.621   4.601  48.841  1.00  0.00     0.003 A 
HETATM   27  C3  UNL     1      27.951   5.833  48.370  1.00  0.00     0.007 A 
HETATM   28  C2  UNL     1      26.924   6.744  48.240  1.00  0.00    -0.060 A 
HETATM   29  C1  UNL     1      27.344   8.088  47.714  1.00  0.00     0.048 C 
HETATM   30  C23 UNL     1      25.632   6.409  48.573  1.00  0.00     0.036 A 
ENDBRANCH  22  24
ENDBRANCH   1  22
TORSDOF 8
ENDMDL
MODEL 2
REMARK VINA RESULT:      -8.2      2.319      5.671
REMARK  8 active torsions:
REMARK  status: ('A' for Active; 'I' for Inactive)
REMARK    1  A    between atoms: C6_6  and  N1_7 
REMARK    2  A    between atoms: N1_7  and  C7_8 
REMARK    3  A    between atoms: C11_14  and  O1_15 
REMARK    4  A    between atoms: O1_15  and  C12_16 
REMARK    5  A    between atoms: C12_16  and  C13_17 
REMARK    6  A    between atoms: C13_17  and  C14_18 
REMARK    7  A    between atoms: C14_18  and  C15_19 
REMARK    8  A    between atoms: C15_19  and  N4_20 
ROOT
HETATM    1  C7  UNL     1      27.049   1.902  51.992  1.00  0.00     0.142 A 
HETATM    2  N2  UNL     1      28.166   2.290  52.576  1.00  0.00    -0.224 NA
HETATM    3  C8  UNL     1      28.469   1.974  53.833  1.00  0.00     0.236 A 
HETATM    4  N3  UNL     1      27.633   1.233  54.578  1.00  0.00    -0.241 NA
HETATM    5  C9  UNL     1      26.459   0.800  54.033  1.00  0.00     0.074 A 
HETATM    6  C10 UNL     1      25.641   0.044  54.840  1.00  0.00     0.069 A 
HETATM    7  C11 UNL     1      24.442  -0.423  54.348  1.00  0.00     0.071 A 
HETATM    8  C20 UNL     1      24.103  -0.112  53.050  1.00  0.00     0.038 A 
HETATM    9  C21 UNL     1      24.974   0.649  52.302  1.00  0.00     0.020 A 
HETATM   10  C22 UNL     1      26.175   1.143  52.730  1.00  0.00     0.039 A 
ENDROOT
BRANCH   7  11
HETATM   11  O1  UNL     1      23.575  -1.189  55.111  1.00  0.00    -0.351 OA
BRANCH  11  12
HETATM   12  C12 UNL     1      22.293  -1.546  54.630  1.00  0.00     0.175 C 
BRANCH  12  13
HETATM   13  C13 UNL     1      21.354  -0.417  54.965  1.00  0.00     0.028 C 
BRANCH  13  14
HETATM   14  C14 UNL     1      20.368  -0.133  53.829  1.00  0.00     0.032 C 
BRANCH  14  15
HETATM   15  C15 UNL     1      20.665   1.258  53.326  1.00  0.00     0.272 C 
BRANCH  15  16
HETATM   16  N4  UNL     1      20.508   1.291  51.900  1.00  0.00     0.092 N 
HETATM   17  C16 UNL     1      19.092   1.224  51.541  1.00  0.00     0.298 C 
HETATM   18  C17 UNL     1      18.518   2.614  51.544  1.00  0.00     0.198 C 
HETATM   19  O2  UNL     1      19.236   3.527  52.277  1.00  0.00    -0.388 OA
HETATM   20  C18 UNL     1      20.553   3.687  51.865  1.00  0.00     0.198 C 
HETATM   21  C19 UNL     1      21.130   2.444  51.273  1.00  0.00     0.298 C 
ENDBRANCH  15  16
ENDBRANCH  14  15
ENDBRANCH  13  14
ENDBRANCH  12  13
ENDBRANCH  11  12
ENDBRANCH   7  11
BRANCH   1  22
HETATM   22  N1  UNL     1      26.688   2.213  50.657  1.00  0.00    -0.340 N 
HETATM   23  H7  UNL     1      26.740   1.522  49.895  1.00  0.00     0.167 HD
BRANCH  22  24
HETATM   24  C6  UNL     1      26.216   3.435  50.116  1.00  0.00     0.034 A 
HETATM   25  C5  UNL     1      24.911   3.902  50.206  1.00  0.00     0.029 A 
HETATM   26  C4  UNL     1      24.472   5.089  49.678  1.00  0.00     0.003 A 
HETATM   27  C3  UNL     1      25.328   5.905  49.008  1.00  0.00     0.007 A 
HETATM   28  C2  UNL     1      26.634   5.479  48.895  1.00  0.00    -0.060 A 
HETATM   29  C1  UNL     1      27.536   6.420  48.146  1.00  0.00     0.048 C 
HETATM   30  C23 UNL     1      27.039   4.282  49.438  1.00  0.00     0.036 A 
ENDBRANCH  22  24
ENDBRANCH   1  22
TORSDOF 8
ENDMDL
MODEL 3
REMARK VINA RESULT:      -7.9      3.395      7.657
REMARK  8 active torsions:
REMARK  status: ('A' for Active; 'I' for Inactive)
REMARK    1  A    between atoms: C6_6  and  N1_7 
REMARK    2  A    between atoms: N1_7  and  C7_8 
REMARK    3  A    between atoms: C11_14  and  O1_15 
REMARK    4  A    between atoms: O1_15  and  C12_16 
REMARK    5  A    between atoms: C12_16  and  C13_17 
REMARK    6  A    between atoms: C13_17  and  C14_18 
REMARK    7  A    between atoms: C14_18  and  C15_19 
REMARK    8  A    between atoms: C15_19  and  N4_20 
ROOT
HETATM    1  C7  UNL     1      24.938   2.229  51.849  1.00  0.00     0.142 A 
HETATM    2  N2  UNL     1      23.878   2.539  52.570  1.00  0.00    -0.224 NA
HETATM    3  C8  UNL     1      23.254   3.710  52.466  1.00  0.00     0.236 A 
HETATM    4  N3  UNL     1      23.686   4.647  51.606  1.00  0.00    -0.241 NA
HETATM    5  C9  UNL     1      24.780   4.389  50.831  1.00  0.00     0.074 A 
HETATM    6  C10 UNL     1      25.179   5.383  49.968  1.00  0.00     0.069 A 
HETATM    7  C11 UNL     1      26.275   5.182  49.159  1.00  0.00     0.071 A 
HETATM    8  C20 UNL     1      26.940   3.980  49.245  1.00  0.00     0.038 A 
HETATM    9  C21 UNL     1      26.481   3.032  50.133  1.00  0.00     0.020 A 
HETATM   10  C22 UNL     1      25.402   3.167  50.961  1.00  0.00     0.039 A 
ENDROOT
BRANCH   7  11
HETATM   11  O1  UNL     1      26.726   6.145  48.269  1.00  0.00    -0.351 OA
BRANCH  11  12
HETATM   12  C12 UNL     1      28.104   6.450  48.153  1.00  0.00     0.175 C 
BRANCH  12  13
HETATM   13  C13 UNL     1      28.233   7.951  48.148  1.00  0.00     0.028 C 
BRANCH  13  14
HETATM   14  C14 UNL     1      29.661   8.404  47.827  1.00  0.00     0.032 C 
BRANCH  14  15
HETATM   15  C15 UNL     1      30.373   7.216  47.229  1.00  0.00     0.272 C 
BRANCH  15  16
HETATM   16  N4  UNL     1      31.760   7.261  47.596  1.00  0.00     0.092 N 
HETATM   17  C16 UNL     1      31.900   7.439  49.041  1.00  0.00     0.298 C 
HETATM   18  C17 UNL     1      31.862   6.092  49.709  1.00  0.00     0.198 C 
HETATM   19  O2  UNL     1      31.279   5.100  48.959  1.00  0.00    -0.388 OA
HETATM   20  C18 UNL     1      31.889   4.871  47.733  1.00  0.00     0.198 C 
HETATM   21  C19 UNL     1      32.514   6.100  47.159  1.00  0.00     0.298 C 
ENDBRANCH  15  16
ENDBRANCH  14  15
ENDBRANCH  13  14
ENDBRANCH  12  13
ENDBRANCH  11  12
ENDBRANCH   7  11
BRANCH   1  22
HETATM   22  N1  UNL     1      25.630   0.994  51.926  1.00  0.00    -0.340 N 
HETATM   23  H7  UNL     1      25.303   0.145  51.442  1.00  0.00     0.167 HD
BRANCH  22  24
HETATM   24  C6  UNL     1      26.823   0.675  52.623  1.00  0.00     0.034 A 
HETATM   25  C5  UNL     1      27.570   1.564  53.383  1.00  0.00     0.029 A 
HETATM   26  C4  UNL     1      28.722   1.237  54.052  1.00  0.00     0.003 A 
HETATM   27  C3  UNL     1      29.214  -0.030  54.004  1.00  0.00     0.007 A 
HETATM   28  C2  UNL     1      28.501  -0.945  53.258  1.00  0.00    -0.060 A 
HETATM   29  C1  UNL     1      29.088  -2.329  53.239  1.00  0.00     0.048 C 
HETATM   30  C23 UNL     1      27.349  -0.580  52.600  1.00  0.00     0.036 A 
ENDBRANCH  22  24
ENDBRANCH   1  22
TORSDOF 8
ENDMDL
MODEL 4
REMARK VINA RESULT:      -7.8      4.502      8.610
REMARK  8 active torsions:
REMARK  status: ('A' for Active; 'I' for Inactive)
REMARK    1  A    between atoms: C6_6  and  N1_7 
REMARK    2  A    between atoms: N1_7  and  C7_8 
REMARK    3  A    between atoms: C11_14  and  O1_15 
REMARK    4  A    between atoms: O1_15  and  C12_16 
REMARK    5  A    between atoms: C12_16  and  C13_17 
REMARK    6  A    between atoms: C13_17  and  C14_18 
REMARK    7  A    between atoms: C14_18  and  C15_19 
REMARK    8  A    between atoms: C15_19  and  N4_20 
ROOT
HETATM    1  C7  UNL     1      24.084  -0.313  53.654  1.00  0.00     0.142 A 
HETATM    2  N2  UNL     1      24.353  -0.893  54.808  1.00  0.00    -0.224 NA
HETATM    3  C8  UNL     1      23.410  -1.408  55.592  1.00  0.00     0.236 A 
HETATM    4  N3  UNL     1      22.115  -1.360  55.237  1.00  0.00    -0.241 NA
HETATM    5  C9  UNL     1      21.769  -0.774  54.054  1.00  0.00     0.074 A 
HETATM    6  C10 UNL     1      20.430  -0.752  53.739  1.00  0.00     0.069 A 
HETATM    7  C11 UNL     1      20.018  -0.174  52.559  1.00  0.00     0.071 A 
HETATM    8  C20 UNL     1      20.972   0.368  51.727  1.00  0.00     0.038 A 
HETATM    9  C21 UNL     1      22.294   0.308  52.110  1.00  0.00     0.020 A 
HETATM   10  C22 UNL     1      22.769  -0.249  53.264  1.00  0.00     0.039 A 
ENDROOT
BRANCH   7  11
HETATM   11  O1  UNL     1      18.684  -0.121  52.186  1.00  0.00    -0.351 OA
BRANCH  11  12
HETATM   12  C12 UNL     1      18.172   0.969  51.442  1.00  0.00     0.175 C 
BRANCH  12  13
HETATM   13  C13 UNL     1      17.407   0.400  50.276  1.00  0.00     0.028 C 
BRANCH  13  14
HETATM   14  C14 UNL     1      16.008   1.011  50.153  1.00  0.00     0.032 C 
BRANCH  14  15
HETATM   15  C15 UNL     1      15.685   1.641  51.485  1.00  0.00     0.272 C 
BRANCH  15  16
HETATM   16  N4  UNL     1      14.740   2.703  51.291  1.00  0.00     0.092 N 
HETATM   17  C16 UNL     1      14.181   3.129  52.574  1.00  0.00     0.298 C 
HETATM   18  C17 UNL     1      15.083   4.167  53.183  1.00  0.00     0.198 C 
HETATM   19  O2  UNL     1      16.368   4.161  52.699  1.00  0.00    -0.388 OA
HETATM   20  C18 UNL     1      16.468   4.363  51.328  1.00  0.00     0.198 C 
HETATM   21  C19 UNL     1      15.286   3.845  50.579  1.00  0.00     0.298 C 
ENDBRANCH  15  16
ENDBRANCH  14  15
ENDBRANCH  13  14
ENDBRANCH  12  13
ENDBRANCH  11  12
ENDBRANCH   7  11
BRANCH   1  22
HETATM   22  N1  UNL     1      25.056   0.247  52.788  1.00  0.00    -0.340 N 
HETATM   23  H7  UNL     1      24.858   0.463  51.800  1.00  0.00     0.167 HD
BRANCH  22  24
HETATM   24  C6  UNL     1      26.400   0.606  53.060  1.00  0.00     0.034 A 
HETATM   25  C5  UNL     1      26.870   1.903  53.213  1.00  0.00     0.029 A 
HETATM   26  C4  UNL     1      28.174   2.232  53.478  1.00  0.00     0.003 A 
HETATM   27  C3  UNL     1      29.118   1.262  53.609  1.00  0.00     0.007 A 
HETATM   28  C2  UNL     1      28.694  -0.042  53.463  1.00  0.00    -0.060 A 
HETATM   29  C1  UNL     1      29.778  -1.072  53.619  1.00  0.00     0.048 C 
HETATM   30  C23 UNL     1      27.376  -0.333  53.198  1.00  0.00     0.036 A 
ENDBRANCH  22  24
ENDBRANCH   1  22
TORSDOF 8
ENDMDL
MODEL 5
REMARK VINA RESULT:      -7.7      3.544      6.995
REMARK  8 active torsions:
REMARK  status: ('A' for Active; 'I' for Inactive)
REMARK    1  A    between atoms: C6_6  and  N1_7 
REMARK    2  A    between atoms: N1_7  and  C7_8 
REMARK    3  A    between atoms: C11_14  and  O1_15 
REMARK    4  A    between atoms: O1_15  and  C12_16 
REMARK    5  A    between atoms: C12_16  and  C13_17 
REMARK    6  A    between atoms: C13_17  and  C14_18 
REMARK    7  A    between atoms: C14_18  and  C15_19 
REMARK    8  A    between atoms: C15_19  and  N4_20 
ROOT
HETATM    1  C7  UNL     1      24.082  -0.355  53.555  1.00  0.00     0.142 A 
HETATM    2  N2  UNL     1      24.259  -0.939  54.724  1.00  0.00    -0.224 NA
HETATM    3  C8  UNL     1      23.248  -1.357  55.481  1.00  0.00     0.236 A 
HETATM    4  N3  UNL     1      21.975  -1.199  55.079  1.00  0.00    -0.241 NA
HETATM    5  C9  UNL     1      21.724  -0.602  53.878  1.00  0.00     0.074 A 
HETATM    6  C10 UNL     1      20.404  -0.465  53.516  1.00  0.00     0.069 A 
HETATM    7  C11 UNL     1      20.085   0.130  52.315  1.00  0.00     0.071 A 
HETATM    8  C20 UNL     1      21.112   0.572  51.512  1.00  0.00     0.038 A 
HETATM    9  C21 UNL     1      22.409   0.400  51.942  1.00  0.00     0.020 A 
HETATM   10  C22 UNL     1      22.793  -0.180  53.118  1.00  0.00     0.039 A 
ENDROOT
BRANCH   7  11
HETATM   11  O1  UNL     1      18.775   0.295  51.895  1.00  0.00    -0.351 OA
BRANCH  11  12
HETATM   12  C12 UNL     1      18.433   1.263  50.919  1.00  0.00     0.175 C 
BRANCH  12  13
HETATM   13  C13 UNL     1      17.750   2.400  51.633  1.00  0.00     0.028 C 
BRANCH  13  14
HETATM   14  C14 UNL     1      18.242   3.764  51.142  1.00  0.00     0.032 C 
BRANCH  14  15
HETATM   15  C15 UNL     1      19.683   3.590  50.731  1.00  0.00     0.272 C 
BRANCH  15  16
HETATM   16  N4  UNL     1      20.446   4.717  51.186  1.00  0.00     0.092 N 
HETATM   17  C16 UNL     1      21.616   4.270  51.940  1.00  0.00     0.298 C 
HETATM   18  C17 UNL     1      22.747   4.007  50.984  1.00  0.00     0.198 C 
HETATM   19  O2  UNL     1      22.357   3.794  49.685  1.00  0.00    -0.388 OA
HETATM   20  C18 UNL     1      21.649   4.845  49.116  1.00  0.00     0.198 C 
HETATM   21  C19 UNL     1      20.851   5.613  50.118  1.00  0.00     0.298 C 
ENDBRANCH  15  16
ENDBRANCH  14  15
ENDBRANCH  13  14
ENDBRANCH  12  13
ENDBRANCH  11  12
ENDBRANCH   7  11
BRANCH   1  22
HETATM   22  N1  UNL     1      25.130   0.103  52.717  1.00  0.00    -0.340 N 
HETATM   23  H7  UNL     1      25.018   0.206  51.698  1.00  0.00     0.167 HD
BRANCH  22  24
HETATM   24  C6  UNL     1      26.449   0.491  53.060  1.00  0.00     0.034 A 
HETATM   25  C5  UNL     1      26.870   1.794  53.287  1.00  0.00     0.029 A 
HETATM   26  C4  UNL     1      28.152   2.151  53.620  1.00  0.00     0.003 A 
HETATM   27  C3  UNL     1      29.120   1.205  53.751  1.00  0.00     0.007 A 
HETATM   28  C2  UNL     1      28.745  -0.104  53.533  1.00  0.00    -0.060 A 
HETATM   29  C1  UNL     1      29.853  -1.106  53.692  1.00  0.00     0.048 C 
HETATM   30  C23 UNL     1      27.449  -0.423  53.201  1.00  0.00     0.036 A 
ENDBRANCH  22  24
ENDBRANCH   1  22
TORSDOF 8
ENDMDL
MODEL 6
REMARK VINA RESULT:      -7.7      4.286      8.037
REMARK  8 active torsions:
REMARK  status: ('A' for Active; 'I' for Inactive)
REMARK    1  A    between atoms: C6_6  and  N1_7 
REMARK    2  A    between atoms: N1_7  and  C7_8 
REMARK    3  A    between atoms: C11_14  and  O1_15 
REMARK    4  A    between atoms: O1_15  and  C12_16 
REMARK    5  A    between atoms: C12_16  and  C13_17 
REMARK    6  A    between atoms: C13_17  and  C14_18 
REMARK    7  A    between atoms: C14_18  and  C15_19 
REMARK    8  A    between atoms: C15_19  and  N4_20 
ROOT
HETATM    1  C7  UNL     1      24.728   3.678  50.818  1.00  0.00     0.142 A 
HETATM    2  N2  UNL     1      23.793   4.298  51.512  1.00  0.00    -0.224 NA
HETATM    3  C8  UNL     1      23.665   5.623  51.525  1.00  0.00     0.236 A 
HETATM    4  N3  UNL     1      24.501   6.403  50.818  1.00  0.00    -0.241 NA
HETATM    5  C9  UNL     1      25.491   5.823  50.079  1.00  0.00     0.074 A 
HETATM    6  C10 UNL     1      26.317   6.668  49.376  1.00  0.00     0.069 A 
HETATM    7  C11 UNL     1      27.335   6.143  48.610  1.00  0.00     0.071 A 
HETATM    8  C20 UNL     1      27.491   4.776  48.578  1.00  0.00     0.038 A 
HETATM    9  C21 UNL     1      26.624   3.994  49.309  1.00  0.00     0.020 A 
HETATM   10  C22 UNL     1      25.596   4.450  50.086  1.00  0.00     0.039 A 
ENDROOT
BRANCH   7  11
HETATM   11  O1  UNL     1      28.200   6.942  47.879  1.00  0.00    -0.351 OA
BRANCH  11  12
HETATM   12  C12 UNL     1      29.425   7.393  48.427  1.00  0.00     0.175 C 
BRANCH  12  13
HETATM   13  C13 UNL     1      30.526   6.940  47.504  1.00  0.00     0.028 C 
BRANCH  13  14
HETATM   14  C14 UNL     1      31.056   5.553  47.879  1.00  0.00     0.032 C 
BRANCH  14  15
HETATM   15  C15 UNL     1      32.369   5.764  48.592  1.00  0.00     0.272 C 
BRANCH  15  16
HETATM   16  N4  UNL     1      33.296   6.400  47.701  1.00  0.00     0.092 N 
HETATM   17  C16 UNL     1      34.312   7.131  48.459  1.00  0.00     0.298 C 
HETATM   18  C17 UNL     1      35.434   6.192  48.809  1.00  0.00     0.198 C 
HETATM   19  O2  UNL     1      35.097   4.861  48.774  1.00  0.00    -0.388 OA
HETATM   20  C18 UNL     1      34.634   4.417  47.542  1.00  0.00     0.198 C 
HETATM   21  C19 UNL     1      33.929   5.484  46.770  1.00  0.00     0.298 C 
ENDBRANCH  15  16
ENDBRANCH  14  15
ENDBRANCH  13  14
ENDBRANCH  12  13
ENDBRANCH  11  12
ENDBRANCH   7  11
BRANCH   1  22
HETATM   22  N1  UNL     1      24.898   2.271  50.774  1.00  0.00    -0.340 N 
HETATM   23  H7  UNL     1      24.832   1.733  49.898  1.00  0.00     0.167 HD
BRANCH  22  24
HETATM   24  C6  UNL     1      25.174   1.367  51.830  1.00  0.00     0.034 A 
HETATM   25  C5  UNL     1      24.234   0.848  52.710  1.00  0.00     0.029 A 
HETATM   26  C4  UNL     1      24.519  -0.028  53.725  1.00  0.00     0.003 A 
HETATM   27  C3  UNL     1      25.793  -0.452  53.934  1.00  0.00     0.007 A 
HETATM   28  C2  UNL     1      26.760   0.040  53.082  1.00  0.00    -0.060 A 
HETATM   29  C1  UNL     1      28.150  -0.463  53.357  1.00  0.00     0.048 C 
HETATM   30  C23 UNL     1      26.436   0.917  52.074  1.00  0.00     0.036 A 
ENDBRANCH  22  24
ENDBRANCH   1  22
TORSDOF 8
ENDMDL
MODEL 7
REMARK VINA RESULT:      -7.7      3.995      7.754
REMARK  8 active torsions:
REMARK  status: ('A' for Active; 'I' for Inactive)
REMARK    1  A    between atoms: C6_6  and  N1_7 
REMARK    2  A    between atoms: N1_7  and  C7_8 
REMARK    3  A    between atoms: C11_14  and  O1_15 
REMARK    4  A    between atoms: O1_15  and  C12_16 
REMARK    5  A    between atoms: C12_16  and  C13_17 
REMARK    6  A    between atoms: C13_17  and  C14_18 
REMARK    7  A    between atoms: C14_18  and  C15_19 
REMARK    8  A    between atoms: C15_19  and  N4_20 
ROOT
HETATM    1  C7  UNL     1      24.027   3.553  50.788  1.00  0.00     0.142 A 
HETATM    2  N2  UNL     1      23.070   4.276  51.337  1.00  0.00    -0.224 NA
HETATM    3  C8  UNL     1      23.064   5.607  51.306  1.00  0.00     0.236 A 
HETATM    4  N3  UNL     1      24.054   6.286  50.702  1.00  0.00    -0.241 NA
HETATM    5  C9  UNL     1      25.075   5.596  50.114  1.00  0.00     0.074 A 
HETATM    6  C10 UNL     1      26.061   6.342  49.511  1.00  0.00     0.069 A 
HETATM    7  C11 UNL     1      27.119   5.704  48.900  1.00  0.00     0.071 A 
HETATM    8  C20 UNL     1      27.150   4.328  48.918  1.00  0.00     0.038 A 
HETATM    9  C21 UNL     1      26.126   3.650  49.542  1.00  0.00     0.020 A 
HETATM   10  C22 UNL     1      25.051   4.220  50.164  1.00  0.00     0.039 A 
ENDROOT
BRANCH   7  11
HETATM   11  O1  UNL     1      28.142   6.398  48.275  1.00  0.00    -0.351 OA
BRANCH  11  12
HETATM   12  C12 UNL     1      29.400   5.794  48.034  1.00  0.00     0.175 C 
BRANCH  12  13
HETATM   13  C13 UNL     1      30.456   6.719  48.579  1.00  0.00     0.028 C 
BRANCH  13  14
HETATM   14  C14 UNL     1      31.845   6.074  48.571  1.00  0.00     0.032 C 
BRANCH  14  15
HETATM   15  C15 UNL     1      31.726   4.786  47.793  1.00  0.00     0.272 C 
BRANCH  15  16
HETATM   16  N4  UNL     1      32.756   4.738  46.795  1.00  0.00     0.092 N 
HETATM   17  C16 UNL     1      34.073   4.881  47.415  1.00  0.00     0.298 C 
HETATM   18  C17 UNL     1      34.561   3.527  47.852  1.00  0.00     0.198 C 
HETATM   19  O2  UNL     1      33.572   2.587  48.006  1.00  0.00    -0.388 OA
HETATM   20  C18 UNL     1      32.825   2.343  46.861  1.00  0.00     0.198 C 
HETATM   21  C19 UNL     1      32.715   3.540  45.976  1.00  0.00     0.298 C 
ENDBRANCH  15  16
ENDBRANCH  14  15
ENDBRANCH  13  14
ENDBRANCH  12  13
ENDBRANCH  11  12
ENDBRANCH   7  11
BRANCH   1  22
HETATM   22  N1  UNL     1      24.070   2.136  50.797  1.00  0.00    -0.340 N 
HETATM   23  H7  UNL     1      23.838   1.571  49.968  1.00  0.00     0.167 HD
BRANCH  22  24
HETATM   24  C6  UNL     1      24.415   1.255  51.853  1.00  0.00     0.034 A 
HETATM   25  C5  UNL     1      25.708   0.931  52.239  1.00  0.00     0.029 A 
HETATM   26  C4  UNL     1      26.022   0.077  53.265  1.00  0.00     0.003 A 
HETATM   27  C3  UNL     1      25.041  -0.524  53.988  1.00  0.00     0.007 A 
HETATM   28  C2  UNL     1      23.740  -0.230  53.637  1.00  0.00    -0.060 A 
HETATM   29  C1  UNL     1      22.697  -0.921  54.470  1.00  0.00     0.048 C 
HETATM   30  C23 UNL     1      23.463   0.632  52.602  1.00  0.00     0.036 A 
ENDBRANCH  22  24
ENDBRANCH   1  22
TORSDOF 8
ENDMDL
MODEL 8
REMARK VINA RESULT:      -7.6      3.982      7.971
REMARK  8 active torsions:
REMARK  status: ('A' for Active; 'I' for Inactive)
REMARK    1  A    between atoms: C6_6  and  N1_7 
REMARK    2  A    between atoms: N1_7  and  C7_8 
REMARK    3  A    between atoms: C11_14  and  O1_15 
REMARK    4  A    between atoms: O1_15  and  C12_16 
REMARK    5  A    between atoms: C12_16  and  C13_17 
REMARK    6  A    between atoms: C13_17  and  C14_18 
REMARK    7  A    between atoms: C14_18  and  C15_19 
REMARK    8  A    between atoms: C15_19  and  N4_20 
ROOT
HETATM    1  C7  UNL     1      20.209  -0.799  53.754  1.00  0.00     0.142 A 
HETATM    2  N2  UNL     1      20.831  -1.551  54.641  1.00  0.00    -0.224 NA
HETATM    3  C8  UNL     1      22.157  -1.630  54.715  1.00  0.00     0.236 A 
HETATM    4  N3  UNL     1      22.937  -0.934  53.871  1.00  0.00    -0.241 NA
HETATM    5  C9  UNL     1      22.355  -0.137  52.928  1.00  0.00     0.074 A 
HETATM    6  C10 UNL     1      23.201   0.552  52.090  1.00  0.00     0.069 A 
HETATM    7  C11 UNL     1      22.675   1.374  51.118  1.00  0.00     0.071 A 
HETATM    8  C20 UNL     1      21.305   1.475  51.018  1.00  0.00     0.038 A 
HETATM    9  C21 UNL     1      20.523   0.754  51.893  1.00  0.00     0.020 A 
HETATM   10  C22 UNL     1      20.980  -0.076  52.878  1.00  0.00     0.039 A 
ENDROOT
BRANCH   7  11
HETATM   11  O1  UNL     1      23.473   2.095  50.244  1.00  0.00    -0.351 OA
BRANCH  11  12
HETATM   12  C12 UNL     1      24.258   3.183  50.694  1.00  0.00     0.175 C 
BRANCH  12  13
HETATM   13  C13 UNL     1      25.098   2.688  51.843  1.00  0.00     0.028 C 
BRANCH  13  14
HETATM   14  C14 UNL     1      26.532   2.370  51.411  1.00  0.00     0.032 C 
BRANCH  14  15
HETATM   15  C15 UNL     1      27.317   2.089  52.669  1.00  0.00     0.272 C 
BRANCH  15  16
HETATM   16  N4  UNL     1      27.806   0.741  52.631  1.00  0.00     0.092 N 
HETATM   17  C16 UNL     1      29.003   0.609  53.461  1.00  0.00     0.298 C 
HETATM   18  C17 UNL     1      28.589   0.322  54.878  1.00  0.00     0.198 C 
HETATM   19  O2  UNL     1      27.299   0.682  55.180  1.00  0.00    -0.388 OA
HETATM   20  C18 UNL     1      26.331   0.067  54.396  1.00  0.00     0.198 C 
HETATM   21  C19 UNL     1      26.816  -0.248  53.020  1.00  0.00     0.298 C 
ENDBRANCH  15  16
ENDBRANCH  14  15
ENDBRANCH  13  14
ENDBRANCH  12  13
ENDBRANCH  11  12
ENDBRANCH   7  11
BRANCH   1  22
HETATM   22  N1  UNL     1      18.800  -0.684  53.642  1.00  0.00    -0.340 N 
HETATM   23  H7  UNL     1      18.307   0.212  53.769  1.00  0.00     0.167 HD
BRANCH  22  24
HETATM   24  C6  UNL     1      17.838  -1.683  53.354  1.00  0.00     0.034 A 
HETATM   25  C5  UNL     1      17.874  -2.991  53.819  1.00  0.00     0.029 A 
HETATM   26  C4  UNL     1      16.932  -3.945  53.532  1.00  0.00     0.003 A 
HETATM   27  C3  UNL     1      15.867  -3.648  52.742  1.00  0.00     0.007 A 
HETATM   28  C2  UNL     1      15.792  -2.359  52.257  1.00  0.00    -0.060 A 
HETATM   29  C1  UNL     1      14.594  -2.086  51.391  1.00  0.00     0.048 C 
HETATM   30  C23 UNL     1      16.756  -1.428  52.567  1.00  0.00     0.036 A 
ENDBRANCH  22  24
ENDBRANCH   1  22
TORSDOF 8
ENDMDL
MODEL 9
REMARK VINA RESULT:      -7.4      3.589      7.850
REMARK  8 active torsions:
REMARK  status: ('A' for Active; 'I' for Inactive)
REMARK    1  A    between atoms: C6_6  and  N1_7 
REMARK    2  A    between atoms: N1_7  and  C7_8 
REMARK    3  A    between atoms: C11_14  and  O1_15 
REMARK    4  A    between atoms: O1_15  and  C12_16 
REMARK    5  A    between atoms: C12_16  and  C13_17 
REMARK    6  A    between atoms: C13_17  and  C14_18 
REMARK    7  A    between atoms: C14_18  and  C15_19 
REMARK    8  A    between atoms: C15_19  and  N4_20 
ROOT
HETATM    1  C7  UNL     1      23.965   3.461  51.005  1.00  0.00     0.142 A 
HETATM    2  N2  UNL     1      23.013   4.098  51.659  1.00  0.00    -0.224 NA
HETATM    3  C8  UNL     1      22.923   5.425  51.688  1.00  0.00     0.236 A 
HETATM    4  N3  UNL     1      23.817   6.191  51.040  1.00  0.00    -0.241 NA
HETATM    5  C9  UNL     1      24.828   5.593  50.345  1.00  0.00     0.074 A 
HETATM    6  C10 UNL     1      25.715   6.424  49.701  1.00  0.00     0.069 A 
HETATM    7  C11 UNL     1      26.757   5.881  48.982  1.00  0.00     0.071 A 
HETATM    8  C20 UNL     1      26.875   4.511  48.934  1.00  0.00     0.038 A 
HETATM    9  C21 UNL     1      25.948   3.743  49.604  1.00  0.00     0.020 A 
HETATM   10  C22 UNL     1      24.893   4.217  50.334  1.00  0.00     0.039 A 
ENDROOT
BRANCH   7  11
HETATM   11  O1  UNL     1      27.683   6.665  48.311  1.00  0.00    -0.351 OA
BRANCH  11  12
HETATM   12  C12 UNL     1      27.276   7.763  47.515  1.00  0.00     0.175 C 
BRANCH  12  13
HETATM   13  C13 UNL     1      28.496   8.271  46.791  1.00  0.00     0.028 C 
BRANCH  13  14
HETATM   14  C14 UNL     1      29.631   7.242  46.787  1.00  0.00     0.032 C 
BRANCH  14  15
HETATM   15  C15 UNL     1      30.835   7.915  47.398  1.00  0.00     0.272 C 
BRANCH  15  16
HETATM   16  N4  UNL     1      30.965   7.503  48.766  1.00  0.00     0.092 N 
HETATM   17  C16 UNL     1      31.062   6.046  48.853  1.00  0.00     0.298 C 
HETATM   18  C17 UNL     1      32.501   5.639  48.690  1.00  0.00     0.198 C 
HETATM   19  O2  UNL     1      33.293   6.575  48.072  1.00  0.00    -0.388 OA
HETATM   20  C18 UNL     1      33.343   7.803  48.719  1.00  0.00     0.198 C 
HETATM   21  C19 UNL     1      32.084   8.121  49.456  1.00  0.00     0.298 C 
ENDBRANCH  15  16
ENDBRANCH  14  15
ENDBRANCH  13  14
ENDBRANCH  12  13
ENDBRANCH  11  12
ENDBRANCH   7  11
BRANCH   1  22
HETATM   22  N1  UNL     1      24.096   2.050  50.946  1.00  0.00    -0.340 N 
HETATM   23  H7  UNL     1      23.858   1.508  50.103  1.00  0.00     0.167 HD
BRANCH  22  24
HETATM   24  C6  UNL     1      24.545   1.148  51.943  1.00  0.00     0.034 A 
HETATM   25  C5  UNL     1      23.741   0.540  52.896  1.00  0.00     0.029 A 
HETATM   26  C4  UNL     1      24.194  -0.333  53.853  1.00  0.00     0.003 A 
HETATM   27  C3  UNL     1      25.511  -0.662  53.920  1.00  0.00     0.007 A 
HETATM   28  C2  UNL     1      26.346  -0.079  52.990  1.00  0.00    -0.060 A 
HETATM   29  C1  UNL     1      27.790  -0.478  53.110  1.00  0.00     0.048 C 
HETATM   30  C23 UNL     1      25.856   0.792  52.046  1.00  0.00     0.036 A 
ENDBRANCH  22  24
ENDBRANCH   1  22
TORSDOF 8
ENDMDL
