MODEL 1
REMARK VINA RESULT:      -8.7      0.000      0.000
REMARK  6 active torsions:
REMARK  status: ('A' for Active; 'I' for Inactive)
REMARK    1  A    between atoms: C1_2  and  C2_3 
REMARK    2  A    between atoms: C1_2  and  C17_22 
REMARK    3  A    between atoms: C3_4  and  N2_5 
REMARK    4  A    between atoms: N3_6  and  C4_7 
REMARK    5  A    between atoms: C8_11  and  N4_12 
REMARK       I    between atoms: N4_12  and  C9_13 
REMARK    6  A    between atoms: C9_13  and  C10_15 
ROOT
HETATM    1  C4  UNL     1      21.792   2.755  51.928  1.00  0.00     0.081 A 
HETATM    2  C5  UNL     1      20.812   1.817  51.661  1.00  0.00     0.033 A 
HETATM    3  C6  UNL     1      21.165   0.487  51.759  1.00  0.00     0.005 A 
HETATM    4  C7  UNL     1      22.442   0.107  52.108  1.00  0.00     0.029 A 
HETATM    5  C8  UNL     1      23.437   1.025  52.379  1.00  0.00     0.036 A 
HETATM    6  C16 UNL     1      23.054   2.318  52.273  1.00  0.00     0.063 A 
ENDROOT
BRANCH   1   7
HETATM    7  N3  UNL     1      21.505   4.167  51.848  1.00  0.00    -0.151 NA
HETATM    8  N2  UNL     1      21.809   4.828  50.835  1.00  0.00    -0.162 NA
BRANCH   8   9
HETATM    9  C3  UNL     1      22.432   4.408  49.659  1.00  0.00     0.143 C 
HETATM   10  C2  UNL     1      23.660   4.360  49.244  1.00  0.00     0.053 C 
BRANCH  10  11
HETATM   11  C1  UNL     1      24.827   4.780  49.997  1.00  0.00     0.061 C 
HETATM   12  N1  UNL     1      24.897   4.812  51.284  1.00  0.00    -0.299 NA
HETATM   13  H1  UNL     1      24.113   4.536  51.871  1.00  0.00     0.187 HD
BRANCH  11  14
HETATM   14  C17 UNL     1      26.048   5.212  49.338  1.00  0.00     0.009 A 
HETATM   15  C18 UNL     1      26.254   6.493  48.848  1.00  0.00     0.016 A 
HETATM   16  C19 UNL     1      27.407   6.910  48.224  1.00  0.00     0.020 A 
HETATM   17  C20 UNL     1      28.451   6.029  48.053  1.00  0.00     0.116 A 
HETATM   18  N5  UNL     1      28.274   4.782  48.519  1.00  0.00    -0.272 NA
HETATM   19  C21 UNL     1      27.141   4.402  49.124  1.00  0.00     0.130 A 
ENDBRANCH  11  14
ENDBRANCH  10  11
ENDBRANCH   8   9
ENDBRANCH   1   7
BRANCH   5  20
HETATM   20  N4  UNL     1      24.713   0.522  52.728  1.00  0.00    -0.327 N 
HETATM   21  C9  UNL     1      25.977   0.896  52.230  1.00  0.00     0.226 C 
HETATM   22  O1  UNL     1      26.047   1.794  51.355  1.00  0.00    -0.273 OA
HETATM   23  H7  UNL     1      24.798  -0.231  53.447  1.00  0.00     0.169 HD
BRANCH  21  24
HETATM   24  C10 UNL     1      27.253   0.296  52.674  1.00  0.00     0.078 C 
HETATM   25  C11 UNL     1      27.637   0.848  54.031  1.00  0.00     0.014 C 
HETATM   26  C12 UNL     1      28.907   0.274  54.549  1.00  0.00     0.001 C 
HETATM   27  C13 UNL     1      29.458  -0.891  53.818  1.00  0.00     0.000 C 
HETATM   28  C14 UNL     1      28.516  -1.713  53.034  1.00  0.00     0.001 C 
HETATM   29  C15 UNL     1      27.117  -1.192  52.922  1.00  0.00     0.014 C 
ENDBRANCH  21  24
ENDBRANCH   5  20
TORSDOF 6
ENDMDL
MODEL 2
REMARK VINA RESULT:      -8.7      2.584      5.640
REMARK  6 active torsions:
REMARK  status: ('A' for Active; 'I' for Inactive)
REMARK    1  A    between atoms: C1_2  and  C2_3 
REMARK    2  A    between atoms: C1_2  and  C17_22 
REMARK    3  A    between atoms: C3_4  and  N2_5 
REMARK    4  A    between atoms: N3_6  and  C4_7 
REMARK    5  A    between atoms: C8_11  and  N4_12 
REMARK       I    between atoms: N4_12  and  C9_13 
REMARK    6  A    between atoms: C9_13  and  C10_15 
ROOT
HETATM    1  C4  UNL     1      21.909   3.404  51.906  1.00  0.00     0.081 A 
HETATM    2  C5  UNL     1      22.051   4.072  50.704  1.00  0.00     0.033 A 
HETATM    3  C6  UNL     1      23.233   3.894  50.017  1.00  0.00     0.005 A 
HETATM    4  C7  UNL     1      24.234   3.084  50.506  1.00  0.00     0.029 A 
HETATM    5  C8  UNL     1      24.115   2.407  51.704  1.00  0.00     0.036 A 
HETATM    6  C16 UNL     1      22.942   2.605  52.349  1.00  0.00     0.063 A 
ENDROOT
BRANCH   1   7
HETATM    7  N3  UNL     1      20.702   3.535  52.687  1.00  0.00    -0.151 NA
HETATM    8  N2  UNL     1      19.735   2.769  52.509  1.00  0.00    -0.162 NA
BRANCH   8   9
HETATM    9  C3  UNL     1      19.598   1.712  51.609  1.00  0.00     0.143 C 
HETATM   10  C2  UNL     1      19.626   0.419  51.708  1.00  0.00     0.053 C 
BRANCH  10  11
HETATM   11  C1  UNL     1      19.829  -0.333  52.933  1.00  0.00     0.061 C 
HETATM   12  N1  UNL     1      18.884  -0.845  53.645  1.00  0.00    -0.299 NA
HETATM   13  H1  UNL     1      17.906  -0.752  53.384  1.00  0.00     0.187 HD
BRANCH  11  14
HETATM   14  C17 UNL     1      21.158  -0.575  53.471  1.00  0.00     0.009 A 
HETATM   15  C18 UNL     1      21.427  -0.757  54.819  1.00  0.00     0.016 A 
HETATM   16  C19 UNL     1      22.681  -0.986  55.336  1.00  0.00     0.020 A 
HETATM   17  C20 UNL     1      23.770  -1.047  54.495  1.00  0.00     0.116 A 
HETATM   18  N5  UNL     1      23.532  -0.874  53.184  1.00  0.00    -0.272 NA
HETATM   19  C21 UNL     1      22.300  -0.653  52.707  1.00  0.00     0.130 A 
ENDBRANCH  11  14
ENDBRANCH  10  11
ENDBRANCH   8   9
ENDBRANCH   1   7
BRANCH   5  20
HETATM   20  N4  UNL     1      25.205   1.601  52.111  1.00  0.00    -0.327 N 
HETATM   21  C9  UNL     1      26.008   1.718  53.263  1.00  0.00     0.226 C 
HETATM   22  O1  UNL     1      25.773   2.641  54.081  1.00  0.00    -0.273 OA
HETATM   23  H7  UNL     1      25.507   0.795  51.519  1.00  0.00     0.169 HD
BRANCH  21  24
HETATM   24  C10 UNL     1      27.130   0.810  53.586  1.00  0.00     0.078 C 
HETATM   25  C11 UNL     1      27.065  -0.421  52.707  1.00  0.00     0.014 C 
HETATM   26  C12 UNL     1      28.176  -1.375  52.966  1.00  0.00     0.001 C 
HETATM   27  C13 UNL     1      29.281  -0.891  53.825  1.00  0.00     0.000 C 
HETATM   28  C14 UNL     1      29.496   0.567  53.905  1.00  0.00     0.001 C 
HETATM   29  C15 UNL     1      28.468   1.425  53.235  1.00  0.00     0.014 C 
ENDBRANCH  21  24
ENDBRANCH   5  20
TORSDOF 6
ENDMDL
MODEL 3
REMARK VINA RESULT:      -8.5      1.545      2.046
REMARK  6 active torsions:
REMARK  status: ('A' for Active; 'I' for Inactive)
REMARK    1  A    between atoms: C1_2  and  C2_3 
REMARK    2  A    between atoms: C1_2  and  C17_22 
REMARK    3  A    between atoms: C3_4  and  N2_5 
REMARK    4  A    between atoms: N3_6  and  C4_7 
REMARK    5  A    between atoms: C8_11  and  N4_12 
REMARK       I    between atoms: N4_12  and  C9_13 
REMARK    6  A    between atoms: C9_13  and  C10_15 
ROOT
HETATM    1  C4  UNL     1      21.320   0.997  53.205  1.00  0.00     0.081 A 
HETATM    2  C5  UNL     1      20.448   0.027  53.661  1.00  0.00     0.033 A 
HETATM    3  C6  UNL     1      20.997  -1.134  54.164  1.00  0.00     0.005 A 
HETATM    4  C7  UNL     1      22.361  -1.321  54.211  1.00  0.00     0.029 A 
HETATM    5  C8  UNL     1      23.253  -0.367  53.761  1.00  0.00     0.036 A 
HETATM    6  C16 UNL     1      22.677   0.757  53.276  1.00  0.00     0.063 A 
ENDROOT
BRANCH   1   7
HETATM    7  N3  UNL     1      20.827   2.241  52.664  1.00  0.00    -0.151 NA
HETATM    8  N2  UNL     1      21.227   2.665  51.562  1.00  0.00    -0.162 NA
BRANCH   8   9
HETATM    9  C3  UNL     1      22.149   2.102  50.679  1.00  0.00     0.143 C 
HETATM   10  C2  UNL     1      23.380   2.356  50.360  1.00  0.00     0.053 C 
BRANCH  10  11
HETATM   11  C1  UNL     1      24.198   3.419  50.915  1.00  0.00     0.061 C 
HETATM   12  N1  UNL     1      24.076   3.891  52.109  1.00  0.00    -0.299 NA
HETATM   13  H1  UNL     1      23.377   3.535  52.757  1.00  0.00     0.187 HD
BRANCH  11  14
HETATM   14  C17 UNL     1      25.253   4.056  50.144  1.00  0.00     0.009 A 
HETATM   15  C18 UNL     1      25.212   5.375  49.716  1.00  0.00     0.016 A 
HETATM   16  C19 UNL     1      26.205   5.985  48.986  1.00  0.00     0.020 A 
HETATM   17  C20 UNL     1      27.333   5.277  48.635  1.00  0.00     0.116 A 
HETATM   18  N5  UNL     1      27.393   3.997  49.039  1.00  0.00    -0.272 NA
HETATM   19  C21 UNL     1      26.412   3.427  49.750  1.00  0.00     0.130 A 
ENDBRANCH  11  14
ENDBRANCH  10  11
ENDBRANCH   8   9
ENDBRANCH   1   7
BRANCH   5  20
HETATM   20  N4  UNL     1      24.633  -0.665  53.857  1.00  0.00    -0.327 N 
HETATM   21  C9  UNL     1      25.736   0.199  53.708  1.00  0.00     0.226 C 
HETATM   22  O1  UNL     1      25.532   1.412  53.454  1.00  0.00    -0.273 OA
HETATM   23  H7  UNL     1      24.942  -1.641  54.065  1.00  0.00     0.169 HD
BRANCH  21  24
HETATM   24  C10 UNL     1      27.146  -0.228  53.832  1.00  0.00     0.078 C 
HETATM   25  C11 UNL     1      27.400  -1.427  52.942  1.00  0.00     0.014 C 
HETATM   26  C12 UNL     1      28.807  -1.904  53.004  1.00  0.00     0.001 C 
HETATM   27  C13 UNL     1      29.778  -1.024  53.695  1.00  0.00     0.000 C 
HETATM   28  C14 UNL     1      29.457   0.414  53.777  1.00  0.00     0.001 C 
HETATM   29  C15 UNL     1      28.099   0.819  53.295  1.00  0.00     0.014 C 
ENDBRANCH  21  24
ENDBRANCH   5  20
TORSDOF 6
ENDMDL
MODEL 4
REMARK VINA RESULT:      -8.5      1.804      5.559
REMARK  6 active torsions:
REMARK  status: ('A' for Active; 'I' for Inactive)
REMARK    1  A    between atoms: C1_2  and  C2_3 
REMARK    2  A    between atoms: C1_2  and  C17_22 
REMARK    3  A    between atoms: C3_4  and  N2_5 
REMARK    4  A    between atoms: N3_6  and  C4_7 
REMARK    5  A    between atoms: C8_11  and  N4_12 
REMARK       I    between atoms: N4_12  and  C9_13 
REMARK    6  A    between atoms: C9_13  and  C10_15 
ROOT
HETATM    1  C4  UNL     1      23.291   3.992  49.108  1.00  0.00     0.081 A 
HETATM    2  C5  UNL     1      23.716   5.245  48.707  1.00  0.00     0.033 A 
HETATM    3  C6  UNL     1      25.033   5.575  48.947  1.00  0.00     0.005 A 
HETATM    4  C7  UNL     1      25.894   4.691  49.560  1.00  0.00     0.029 A 
HETATM    5  C8  UNL     1      25.493   3.434  49.970  1.00  0.00     0.036 A 
HETATM    6  C16 UNL     1      24.195   3.148  49.718  1.00  0.00     0.063 A 
ENDROOT
BRANCH   1   7
HETATM    7  N3  UNL     1      21.927   3.570  48.894  1.00  0.00    -0.151 NA
HETATM    8  N2  UNL     1      21.115   3.520  49.839  1.00  0.00    -0.162 NA
BRANCH   8   9
HETATM    9  C3  UNL     1      21.306   3.827  51.187  1.00  0.00     0.143 C 
HETATM   10  C2  UNL     1      21.153   3.181  52.301  1.00  0.00     0.053 C 
BRANCH  10  11
HETATM   11  C1  UNL     1      20.692   1.811  52.430  1.00  0.00     0.061 C 
HETATM   12  N1  UNL     1      19.628   1.339  51.875  1.00  0.00    -0.299 NA
HETATM   13  H1  UNL     1      19.027   1.916  51.291  1.00  0.00     0.187 HD
BRANCH  11  14
HETATM   14  C17 UNL     1      21.416   0.832  53.223  1.00  0.00     0.009 A 
HETATM   15  C18 UNL     1      22.730   0.458  52.984  1.00  0.00     0.016 A 
HETATM   16  C19 UNL     1      23.422  -0.469  53.730  1.00  0.00     0.020 A 
HETATM   17  C20 UNL     1      22.807  -1.090  54.794  1.00  0.00     0.116 A 
HETATM   18  N5  UNL     1      21.534  -0.744  55.043  1.00  0.00    -0.272 NA
HETATM   19  C21 UNL     1      20.883   0.162  54.301  1.00  0.00     0.130 A 
ENDBRANCH  11  14
ENDBRANCH  10  11
ENDBRANCH   8   9
ENDBRANCH   1   7
BRANCH   5  20
HETATM   20  N4  UNL     1      26.462   2.609  50.590  1.00  0.00    -0.327 N 
HETATM   21  C9  UNL     1      26.520   2.167  51.926  1.00  0.00     0.226 C 
HETATM   22  O1  UNL     1      25.619   2.519  52.726  1.00  0.00    -0.273 OA
HETATM   23  H7  UNL     1      27.269   2.246  50.035  1.00  0.00     0.169 HD
BRANCH  21  24
HETATM   24  C10 UNL     1      27.589   1.300  52.466  1.00  0.00     0.078 C 
HETATM   25  C11 UNL     1      28.216   1.951  53.681  1.00  0.00     0.014 C 
HETATM   26  C12 UNL     1      29.293   1.125  54.288  1.00  0.00     0.001 C 
HETATM   27  C13 UNL     1      29.420  -0.267  53.798  1.00  0.00     0.000 C 
HETATM   28  C14 UNL     1      28.223  -0.894  53.204  1.00  0.00     0.001 C 
HETATM   29  C15 UNL     1      27.037  -0.002  53.007  1.00  0.00     0.014 C 
ENDBRANCH  21  24
ENDBRANCH   5  20
TORSDOF 6
ENDMDL
MODEL 5
REMARK VINA RESULT:      -8.4      2.110      6.030
REMARK  6 active torsions:
REMARK  status: ('A' for Active; 'I' for Inactive)
REMARK    1  A    between atoms: C1_2  and  C2_3 
REMARK    2  A    between atoms: C1_2  and  C17_22 
REMARK    3  A    between atoms: C3_4  and  N2_5 
REMARK    4  A    between atoms: N3_6  and  C4_7 
REMARK    5  A    between atoms: C8_11  and  N4_12 
REMARK       I    between atoms: N4_12  and  C9_13 
REMARK    6  A    between atoms: C9_13  and  C10_15 
ROOT
HETATM    1  C4  UNL     1      21.921   1.167  51.958  1.00  0.00     0.081 A 
HETATM    2  C5  UNL     1      20.950   0.726  51.079  1.00  0.00     0.033 A 
HETATM    3  C6  UNL     1      21.095   1.069  49.751  1.00  0.00     0.005 A 
HETATM    4  C7  UNL     1      22.164   1.821  49.316  1.00  0.00     0.029 A 
HETATM    5  C8  UNL     1      23.146   2.273  50.176  1.00  0.00     0.036 A 
HETATM    6  C16 UNL     1      22.970   1.917  51.469  1.00  0.00     0.063 A 
ENDROOT
BRANCH   1   7
HETATM    7  N3  UNL     1      21.844   0.852  53.365  1.00  0.00    -0.151 NA
HETATM    8  N2  UNL     1      22.566  -0.033  53.865  1.00  0.00    -0.162 NA
BRANCH   8   9
HETATM    9  C3  UNL     1      23.521  -0.847  53.254  1.00  0.00     0.143 C 
HETATM   10  C2  UNL     1      24.774  -1.102  53.468  1.00  0.00     0.053 C 
BRANCH  10  11
HETATM   11  C1  UNL     1      25.586  -0.535  54.529  1.00  0.00     0.061 C 
HETATM   12  N1  UNL     1      25.438  -0.794  55.784  1.00  0.00    -0.299 NA
HETATM   13  H1  UNL     1      24.721  -1.432  56.118  1.00  0.00     0.187 HD
BRANCH  11  14
HETATM   14  C17 UNL     1      26.663   0.400  54.252  1.00  0.00     0.009 A 
HETATM   15  C18 UNL     1      26.591   1.409  53.303  1.00  0.00     0.016 A 
HETATM   16  C19 UNL     1      27.607   2.298  53.035  1.00  0.00     0.020 A 
HETATM   17  C20 UNL     1      28.791   2.217  53.733  1.00  0.00     0.116 A 
HETATM   18  N5  UNL     1      28.883   1.247  54.657  1.00  0.00    -0.272 NA
HETATM   19  C21 UNL     1      27.879   0.394  54.899  1.00  0.00     0.130 A 
ENDBRANCH  11  14
ENDBRANCH  10  11
ENDBRANCH   8   9
ENDBRANCH   1   7
BRANCH   5  20
HETATM   20  N4  UNL     1      24.200   3.038  49.620  1.00  0.00    -0.327 N 
HETATM   21  C9  UNL     1      24.422   4.427  49.704  1.00  0.00     0.226 C 
HETATM   22  O1  UNL     1      23.611   5.138  50.347  1.00  0.00    -0.273 OA
HETATM   23  H7  UNL     1      24.945   2.568  49.058  1.00  0.00     0.169 HD
BRANCH  21  24
HETATM   24  C10 UNL     1      25.567   5.121  49.077  1.00  0.00     0.078 C 
HETATM   25  C11 UNL     1      25.726   6.501  49.683  1.00  0.00     0.014 C 
HETATM   26  C12 UNL     1      26.873   7.254  49.109  1.00  0.00     0.001 C 
HETATM   27  C13 UNL     1      27.809   6.490  48.253  1.00  0.00     0.000 C 
HETATM   28  C14 UNL     1      27.883   5.030  48.455  1.00  0.00     0.001 C 
HETATM   29  C15 UNL     1      26.881   4.440  49.398  1.00  0.00     0.014 C 
ENDBRANCH  21  24
ENDBRANCH   5  20
TORSDOF 6
ENDMDL
MODEL 6
REMARK VINA RESULT:      -8.2      2.442      3.230
REMARK  6 active torsions:
REMARK  status: ('A' for Active; 'I' for Inactive)
REMARK    1  A    between atoms: C1_2  and  C2_3 
REMARK    2  A    between atoms: C1_2  and  C17_22 
REMARK    3  A    between atoms: C3_4  and  N2_5 
REMARK    4  A    between atoms: N3_6  and  C4_7 
REMARK    5  A    between atoms: C8_11  and  N4_12 
REMARK       I    between atoms: N4_12  and  C9_13 
REMARK    6  A    between atoms: C9_13  and  C10_15 
ROOT
HETATM    1  C4  UNL     1      20.947  -0.065  52.448  1.00  0.00     0.081 A 
HETATM    2  C5  UNL     1      20.221  -0.587  53.503  1.00  0.00     0.033 A 
HETATM    3  C6  UNL     1      20.930  -1.088  54.574  1.00  0.00     0.005 A 
HETATM    4  C7  UNL     1      22.308  -1.070  54.595  1.00  0.00     0.029 A 
HETATM    5  C8  UNL     1      23.055  -0.555  53.553  1.00  0.00     0.036 A 
HETATM    6  C16 UNL     1      22.324  -0.073  52.522  1.00  0.00     0.063 A 
ENDROOT
BRANCH   1   7
HETATM    7  N3  UNL     1      20.281   0.479  51.289  1.00  0.00    -0.151 NA
HETATM    8  N2  UNL     1      19.959   1.683  51.240  1.00  0.00    -0.162 NA
BRANCH   8   9
HETATM    9  C3  UNL     1      20.143   2.688  52.190  1.00  0.00     0.143 C 
HETATM   10  C2  UNL     1      21.027   3.619  52.374  1.00  0.00     0.053 C 
BRANCH  10  11
HETATM   11  C1  UNL     1      22.179   3.873  51.529  1.00  0.00     0.061 C 
HETATM   12  N1  UNL     1      22.887   2.959  50.958  1.00  0.00    -0.299 NA
HETATM   13  H1  UNL     1      22.675   1.970  51.068  1.00  0.00     0.187 HD
BRANCH  11  14
HETATM   14  C17 UNL     1      22.641   5.223  51.251  1.00  0.00     0.009 A 
HETATM   15  C18 UNL     1      21.815   6.255  50.831  1.00  0.00     0.016 A 
HETATM   16  C19 UNL     1      22.245   7.535  50.566  1.00  0.00     0.020 A 
HETATM   17  C20 UNL     1      23.576   7.856  50.714  1.00  0.00     0.116 A 
HETATM   18  N5  UNL     1      24.395   6.871  51.119  1.00  0.00    -0.272 NA
HETATM   19  C21 UNL     1      23.950   5.633  51.371  1.00  0.00     0.130 A 
ENDBRANCH  11  14
ENDBRANCH  10  11
ENDBRANCH   8   9
ENDBRANCH   1   7
BRANCH   5  20
HETATM   20  N4  UNL     1      24.464  -0.587  53.681  1.00  0.00    -0.327 N 
HETATM   21  C9  UNL     1      25.436   0.079  52.909  1.00  0.00     0.226 C 
HETATM   22  O1  UNL     1      25.065   0.819  51.965  1.00  0.00    -0.273 OA
HETATM   23  H7  UNL     1      24.906  -1.167  54.429  1.00  0.00     0.169 HD
BRANCH  21  24
HETATM   24  C10 UNL     1      26.893  -0.031  53.137  1.00  0.00     0.078 C 
HETATM   25  C11 UNL     1      27.227   0.399  54.550  1.00  0.00     0.014 C 
HETATM   26  C12 UNL     1      28.679   0.299  54.857  1.00  0.00     0.001 C 
HETATM   27  C13 UNL     1      29.519  -0.418  53.870  1.00  0.00     0.000 C 
HETATM   28  C14 UNL     1      28.855  -1.406  52.998  1.00  0.00     0.001 C 
HETATM   29  C15 UNL     1      27.362  -1.470  53.085  1.00  0.00     0.014 C 
ENDBRANCH  21  24
ENDBRANCH   5  20
TORSDOF 6
ENDMDL
MODEL 7
REMARK VINA RESULT:      -8.2      3.201      7.898
REMARK  6 active torsions:
REMARK  status: ('A' for Active; 'I' for Inactive)
REMARK    1  A    between atoms: C1_2  and  C2_3 
REMARK    2  A    between atoms: C1_2  and  C17_22 
REMARK    3  A    between atoms: C3_4  and  N2_5 
REMARK    4  A    between atoms: N3_6  and  C4_7 
REMARK    5  A    between atoms: C8_11  and  N4_12 
REMARK       I    between atoms: N4_12  and  C9_13 
REMARK    6  A    between atoms: C9_13  and  C10_15 
ROOT
HETATM    1  C4  UNL     1      23.704   2.646  50.928  1.00  0.00     0.081 A 
HETATM    2  C5  UNL     1      23.803   3.013  49.599  1.00  0.00     0.033 A 
HETATM    3  C6  UNL     1      22.864   2.500  48.729  1.00  0.00     0.005 A 
HETATM    4  C7  UNL     1      21.866   1.656  49.165  1.00  0.00     0.029 A 
HETATM    5  C8  UNL     1      21.747   1.276  50.487  1.00  0.00     0.036 A 
HETATM    6  C16 UNL     1      22.685   1.799  51.310  1.00  0.00     0.063 A 
ENDROOT
BRANCH   1   7
HETATM    7  N3  UNL     1      24.647   3.139  51.904  1.00  0.00    -0.151 NA
HETATM    8  N2  UNL     1      25.654   2.473  52.217  1.00  0.00    -0.162 NA
BRANCH   8   9
HETATM    9  C3  UNL     1      26.069   1.226  51.751  1.00  0.00     0.143 C 
HETATM   10  C2  UNL     1      26.200   0.050  52.282  1.00  0.00     0.053 C 
BRANCH  10  11
HETATM   11  C1  UNL     1      25.906  -0.295  53.661  1.00  0.00     0.061 C 
HETATM   12  N1  UNL     1      26.761  -0.258  54.625  1.00  0.00    -0.299 NA
HETATM   13  H1  UNL     1      27.727   0.026  54.475  1.00  0.00     0.187 HD
BRANCH  11  14
HETATM   14  C17 UNL     1      24.581  -0.725  54.077  1.00  0.00     0.009 A 
HETATM   15  C18 UNL     1      23.482  -0.776  53.233  1.00  0.00     0.016 A 
HETATM   16  C19 UNL     1      22.225  -1.181  53.620  1.00  0.00     0.020 A 
HETATM   17  C20 UNL     1      21.999  -1.571  54.921  1.00  0.00     0.116 A 
HETATM   18  N5  UNL     1      23.051  -1.529  55.755  1.00  0.00    -0.272 NA
HETATM   19  C21 UNL     1      24.265  -1.131  55.353  1.00  0.00     0.130 A 
ENDBRANCH  11  14
ENDBRANCH  10  11
ENDBRANCH   8   9
ENDBRANCH   1   7
BRANCH   5  20
HETATM   20  N4  UNL     1      20.683   0.405  50.823  1.00  0.00    -0.327 N 
HETATM   21  C9  UNL     1      19.401   0.725  51.311  1.00  0.00     0.226 C 
HETATM   22  O1  UNL     1      19.100   1.930  51.494  1.00  0.00    -0.273 OA
HETATM   23  H7  UNL     1      20.802  -0.628  50.718  1.00  0.00     0.169 HD
BRANCH  21  24
HETATM   24  C10 UNL     1      18.362  -0.278  51.630  1.00  0.00     0.078 C 
HETATM   25  C11 UNL     1      18.649  -0.905  52.978  1.00  0.00     0.014 C 
HETATM   26  C12 UNL     1      17.632  -1.916  53.373  1.00  0.00     0.001 C 
HETATM   27  C13 UNL     1      16.402  -1.978  52.551  1.00  0.00     0.000 C 
HETATM   28  C14 UNL     1      16.018  -0.765  51.803  1.00  0.00     0.001 C 
HETATM   29  C15 UNL     1      17.003   0.363  51.820  1.00  0.00     0.014 C 
ENDBRANCH  21  24
ENDBRANCH   5  20
TORSDOF 6
ENDMDL
MODEL 8
REMARK VINA RESULT:      -8.2      2.100      6.740
REMARK  6 active torsions:
REMARK  status: ('A' for Active; 'I' for Inactive)
REMARK    1  A    between atoms: C1_2  and  C2_3 
REMARK    2  A    between atoms: C1_2  and  C17_22 
REMARK    3  A    between atoms: C3_4  and  N2_5 
REMARK    4  A    between atoms: N3_6  and  C4_7 
REMARK    5  A    between atoms: C8_11  and  N4_12 
REMARK       I    between atoms: N4_12  and  C9_13 
REMARK    6  A    between atoms: C9_13  and  C10_15 
ROOT
HETATM    1  C4  UNL     1      23.846   5.137  50.878  1.00  0.00     0.081 A 
HETATM    2  C5  UNL     1      22.777   5.010  50.011  1.00  0.00     0.033 A 
HETATM    3  C6  UNL     1      22.981   5.372  48.696  1.00  0.00     0.005 A 
HETATM    4  C7  UNL     1      24.201   5.842  48.262  1.00  0.00     0.029 A 
HETATM    5  C8  UNL     1      25.283   5.979  49.109  1.00  0.00     0.036 A 
HETATM    6  C16 UNL     1      25.045   5.614  50.390  1.00  0.00     0.063 A 
ENDROOT
BRANCH   1   7
HETATM    7  N3  UNL     1      23.716   4.780  52.271  1.00  0.00    -0.151 NA
HETATM    8  N2  UNL     1      23.814   3.593  52.641  1.00  0.00    -0.162 NA
BRANCH   8   9
HETATM    9  C3  UNL     1      24.048   2.446  51.882  1.00  0.00     0.143 C 
HETATM   10  C2  UNL     1      25.110   1.835  51.456  1.00  0.00     0.053 C 
BRANCH  10  11
HETATM   11  C1  UNL     1      26.480   2.246  51.698  1.00  0.00     0.061 C 
HETATM   12  N1  UNL     1      27.078   3.208  51.081  1.00  0.00    -0.299 NA
HETATM   13  H1  UNL     1      26.611   3.756  50.363  1.00  0.00     0.187 HD
BRANCH  11  14
HETATM   14  C17 UNL     1      27.315   1.585  52.688  1.00  0.00     0.009 A 
HETATM   15  C18 UNL     1      27.388   0.209  52.846  1.00  0.00     0.016 A 
HETATM   16  C19 UNL     1      28.175  -0.425  53.779  1.00  0.00     0.020 A 
HETATM   17  C20 UNL     1      28.958   0.318  54.635  1.00  0.00     0.116 A 
HETATM   18  N5  UNL     1      28.902   1.653  54.500  1.00  0.00    -0.272 NA
HETATM   19  C21 UNL     1      28.127   2.245  53.581  1.00  0.00     0.130 A 
ENDBRANCH  11  14
ENDBRANCH  10  11
ENDBRANCH   8   9
ENDBRANCH   1   7
BRANCH   5  20
HETATM   20  N4  UNL     1      26.489   6.472  48.555  1.00  0.00    -0.327 N 
HETATM   21  C9  UNL     1      27.712   5.800  48.365  1.00  0.00     0.226 C 
HETATM   22  O1  UNL     1      27.810   4.598  48.713  1.00  0.00    -0.273 OA
HETATM   23  H7  UNL     1      26.544   7.462  48.225  1.00  0.00     0.169 HD
BRANCH  21  24
HETATM   24  C10 UNL     1      28.915   6.423  47.771  1.00  0.00     0.078 C 
HETATM   25  C11 UNL     1      29.184   7.758  48.434  1.00  0.00     0.014 C 
HETATM   26  C12 UNL     1      30.393   8.436  47.896  1.00  0.00     0.001 C 
HETATM   27  C13 UNL     1      31.268   7.633  47.011  1.00  0.00     0.000 C 
HETATM   28  C14 UNL     1      31.220   6.165  47.153  1.00  0.00     0.001 C 
HETATM   29  C15 UNL     1      30.166   5.622  48.067  1.00  0.00     0.014 C 
ENDBRANCH  21  24
ENDBRANCH   5  20
TORSDOF 6
ENDMDL
MODEL 9
REMARK VINA RESULT:      -8.1      1.686      2.022
REMARK  6 active torsions:
REMARK  status: ('A' for Active; 'I' for Inactive)
REMARK    1  A    between atoms: C1_2  and  C2_3 
REMARK    2  A    between atoms: C1_2  and  C17_22 
REMARK    3  A    between atoms: C3_4  and  N2_5 
REMARK    4  A    between atoms: N3_6  and  C4_7 
REMARK    5  A    between atoms: C8_11  and  N4_12 
REMARK       I    between atoms: N4_12  and  C9_13 
REMARK    6  A    between atoms: C9_13  and  C10_15 
ROOT
HETATM    1  C4  UNL     1      22.390   4.509  51.102  1.00  0.00     0.081 A 
HETATM    2  C5  UNL     1      21.652   3.713  50.247  1.00  0.00     0.033 A 
HETATM    3  C6  UNL     1      22.214   2.518  49.849  1.00  0.00     0.005 A 
HETATM    4  C7  UNL     1      23.462   2.132  50.285  1.00  0.00     0.029 A 
HETATM    5  C8  UNL     1      24.219   2.910  51.138  1.00  0.00     0.036 A 
HETATM    6  C16 UNL     1      23.635   4.073  51.507  1.00  0.00     0.063 A 
ENDROOT
BRANCH   1   7
HETATM    7  N3  UNL     1      21.874   5.775  51.566  1.00  0.00    -0.151 NA
HETATM    8  N2  UNL     1      21.919   6.790  50.844  1.00  0.00    -0.162 NA
BRANCH   8   9
HETATM    9  C3  UNL     1      22.425   6.935  49.551  1.00  0.00     0.143 C 
HETATM   10  C2  UNL     1      23.608   7.098  49.047  1.00  0.00     0.053 C 
BRANCH  10  11
HETATM   11  C1  UNL     1      24.847   7.175  49.799  1.00  0.00     0.061 C 
HETATM   12  N1  UNL     1      24.977   7.758  50.942  1.00  0.00    -0.299 NA
HETATM   13  H1  UNL     1      24.192   8.213  51.403  1.00  0.00     0.187 HD
BRANCH  11  14
HETATM   14  C17 UNL     1      26.080   6.585  49.305  1.00  0.00     0.009 A 
HETATM   15  C18 UNL     1      26.298   5.220  49.197  1.00  0.00     0.016 A 
HETATM   16  C19 UNL     1      27.462   4.653  48.731  1.00  0.00     0.020 A 
HETATM   17  C20 UNL     1      28.507   5.459  48.336  1.00  0.00     0.116 A 
HETATM   18  N5  UNL     1      28.318   6.785  48.433  1.00  0.00    -0.272 NA
HETATM   19  C21 UNL     1      27.174   7.311  48.890  1.00  0.00     0.130 A 
ENDBRANCH  11  14
ENDBRANCH  10  11
ENDBRANCH   8   9
ENDBRANCH   1   7
BRANCH   5  20
HETATM   20  N4  UNL     1      25.488   2.414  51.522  1.00  0.00    -0.327 N 
HETATM   21  C9  UNL     1      25.797   1.251  52.255  1.00  0.00     0.226 C 
HETATM   22  O1  UNL     1      24.862   0.511  52.649  1.00  0.00    -0.273 OA
HETATM   23  H7  UNL     1      26.354   2.936  51.258  1.00  0.00     0.169 HD
BRANCH  21  24
HETATM   24  C10 UNL     1      27.172   0.830  52.599  1.00  0.00     0.078 C 
HETATM   25  C11 UNL     1      27.765   1.787  53.612  1.00  0.00     0.014 C 
HETATM   26  C12 UNL     1      29.146   1.415  54.019  1.00  0.00     0.001 C 
HETATM   27  C13 UNL     1      29.628   0.082  53.592  1.00  0.00     0.000 C 
HETATM   28  C14 UNL     1      28.615  -0.953  53.308  1.00  0.00     0.001 C 
HETATM   29  C15 UNL     1      27.187  -0.502  53.320  1.00  0.00     0.014 C 
ENDBRANCH  21  24
ENDBRANCH   5  20
TORSDOF 6
ENDMDL
