MODEL 1
REMARK VINA RESULT:      -8.5      0.000      0.000
REMARK  4 active torsions:
REMARK  status: ('A' for Active; 'I' for Inactive)
REMARK    1  A    between atoms: C1_2  and  C2_3 
REMARK       I    between atoms: C1_2  and  N1_7 
REMARK    2  A    between atoms: C3_4  and  C4_5 
REMARK    3  A    between atoms: C4_5  and  O2_6 
REMARK    4  A    between atoms: N1_7  and  C5_8 
ROOT
HETATM    1  C5  UNL     1      23.016   0.649  53.174  1.00  0.00     0.036 A 
HETATM    2  C6  UNL     1      23.353   1.934  52.812  1.00  0.00     0.032 A 
HETATM    3  C7  UNL     1      24.681   2.306  52.829  1.00  0.00     0.034 A 
HETATM    4  C8  UNL     1      25.647   1.391  53.208  1.00  0.00     0.066 A 
HETATM    5  C9  UNL     1      25.360   0.091  53.581  1.00  0.00     0.001 A 
HETATM    6  C10 UNL     1      24.021  -0.246  53.551  1.00  0.00     0.041 A 
HETATM    7  C11 UNL     1      26.601  -0.606  53.920  1.00  0.00     0.169 A 
HETATM    8  N2  UNL     1      26.880  -1.670  52.976  1.00  0.00    -0.385 N 
HETATM    9  C12 UNL     1      28.071  -2.474  52.944  1.00  0.00     0.084 C 
HETATM   10  C13 UNL     1      29.334  -2.128  53.244  1.00  0.00     0.017 C 
HETATM   11  C14 UNL     1      29.799  -0.796  53.688  1.00  0.00     0.003 C 
HETATM   12  C15 UNL     1      29.077   0.320  53.883  1.00  0.00     0.029 C 
HETATM   13  C16 UNL     1      27.621   0.469  53.690  1.00  0.00     0.062 A 
HETATM   14  N3  UNL     1      27.070   1.584  53.291  1.00  0.00    -0.251 NA
HETATM   15  H9  UNL     1      26.181  -1.923  52.221  1.00  0.00     0.160 HD
ENDROOT
BRANCH   1  16
HETATM   16  N1  UNL     1      21.710   0.109  53.210  1.00  0.00    -0.316 N 
HETATM   17  C1  UNL     1      20.894  -0.772  53.967  1.00  0.00     0.301 C 
HETATM   18  O1  UNL     1      21.228  -1.401  54.995  1.00  0.00    -0.258 OA
HETATM   19  H4  UNL     1      21.329   0.595  52.351  1.00  0.00     0.170 HD
BRANCH  17  20
HETATM   20  C2  UNL     1      19.548  -0.955  53.500  1.00  0.00    -0.003 C 
HETATM   21  C3  UNL     1      18.396  -1.096  53.118  1.00  0.00    -0.071 C 
BRANCH  21  22
HETATM   22  C4  UNL     1      17.008  -1.262  52.681  1.00  0.00     0.258 C 
BRANCH  22  23
HETATM   23  O2  UNL     1      16.114  -0.620  53.520  1.00  0.00    -0.389 OA
HETATM   24  H3  UNL     1      16.621   0.035  54.079  1.00  0.00     0.210 HD
ENDBRANCH  22  23
ENDBRANCH  21  22
ENDBRANCH  17  20
ENDBRANCH   1  16
TORSDOF 4
ENDMDL
MODEL 2
REMARK VINA RESULT:      -8.0      4.488      8.128
REMARK  4 active torsions:
REMARK  status: ('A' for Active; 'I' for Inactive)
REMARK    1  A    between atoms: C1_2  and  C2_3 
REMARK       I    between atoms: C1_2  and  N1_7 
REMARK    2  A    between atoms: C3_4  and  C4_5 
REMARK    3  A    between atoms: C4_5  and  O2_6 
REMARK    4  A    between atoms: N1_7  and  C5_8 
ROOT
HETATM    1  C5  UNL     1      26.039   1.757  51.456  1.00  0.00     0.036 A 
HETATM    2  C6  UNL     1      26.749   0.732  52.038  1.00  0.00     0.032 A 
HETATM    3  C7  UNL     1      26.085  -0.161  52.854  1.00  0.00     0.034 A 
HETATM    4  C8  UNL     1      24.728  -0.013  53.075  1.00  0.00     0.066 A 
HETATM    5  C9  UNL     1      23.971   1.000  52.515  1.00  0.00     0.001 A 
HETATM    6  C10 UNL     1      24.669   1.873  51.704  1.00  0.00     0.041 A 
HETATM    7  C11 UNL     1      22.580   0.867  52.949  1.00  0.00     0.169 A 
HETATM    8  N2  UNL     1      21.711   0.543  51.835  1.00  0.00    -0.385 N 
HETATM    9  C12 UNL     1      20.312   0.229  51.925  1.00  0.00     0.084 C 
HETATM   10  C13 UNL     1      19.650  -0.419  52.898  1.00  0.00     0.017 C 
HETATM   11  C14 UNL     1      20.234  -0.976  54.138  1.00  0.00     0.003 C 
HETATM   12  C15 UNL     1      21.514  -0.951  54.545  1.00  0.00     0.029 C 
HETATM   13  C16 UNL     1      22.653  -0.348  53.824  1.00  0.00     0.062 A 
HETATM   14  N3  UNL     1      23.865  -0.830  53.885  1.00  0.00    -0.251 NA
HETATM   15  H9  UNL     1      22.085   0.518  50.844  1.00  0.00     0.160 HD
ENDROOT
BRANCH   1  16
HETATM   16  N1  UNL     1      26.563   2.752  50.599  1.00  0.00    -0.316 N 
HETATM   17  C1  UNL     1      26.167   3.672  49.593  1.00  0.00     0.301 C 
HETATM   18  O1  UNL     1      25.009   3.840  49.149  1.00  0.00    -0.258 OA
HETATM   19  H4  UNL     1      27.573   2.688  50.905  1.00  0.00     0.170 HD
BRANCH  17  20
HETATM   20  C2  UNL     1      27.205   4.492  49.033  1.00  0.00    -0.003 C 
HETATM   21  C3  UNL     1      28.086   5.201  48.574  1.00  0.00    -0.071 C 
BRANCH  21  22
HETATM   22  C4  UNL     1      29.134   6.071  48.033  1.00  0.00     0.258 C 
BRANCH  22  23
HETATM   23  O2  UNL     1      29.812   6.754  49.027  1.00  0.00    -0.389 OA
HETATM   24  H3  UNL     1      29.144   7.244  49.586  1.00  0.00     0.210 HD
ENDBRANCH  22  23
ENDBRANCH  21  22
ENDBRANCH  17  20
ENDBRANCH   1  16
TORSDOF 4
ENDMDL
MODEL 3
REMARK VINA RESULT:      -7.7      2.161      3.054
REMARK  4 active torsions:
REMARK  status: ('A' for Active; 'I' for Inactive)
REMARK    1  A    between atoms: C1_2  and  C2_3 
REMARK       I    between atoms: C1_2  and  N1_7 
REMARK    2  A    between atoms: C3_4  and  C4_5 
REMARK    3  A    between atoms: C4_5  and  O2_6 
REMARK    4  A    between atoms: N1_7  and  C5_8 
ROOT
HETATM    1  C5  UNL     1      21.907  -0.556  53.619  1.00  0.00     0.036 A 
HETATM    2  C6  UNL     1      21.997  -1.187  54.839  1.00  0.00     0.032 A 
HETATM    3  C7  UNL     1      23.234  -1.311  55.436  1.00  0.00     0.034 A 
HETATM    4  C8  UNL     1      24.356  -0.806  54.805  1.00  0.00     0.066 A 
HETATM    5  C9  UNL     1      24.318  -0.166  53.580  1.00  0.00     0.001 A 
HETATM    6  C10 UNL     1      23.063  -0.060  53.013  1.00  0.00     0.041 A 
HETATM    7  C11 UNL     1      25.671   0.242  53.199  1.00  0.00     0.169 A 
HETATM    8  N2  UNL     1      25.794   1.686  53.172  1.00  0.00    -0.385 N 
HETATM    9  C12 UNL     1      27.011   2.421  52.954  1.00  0.00     0.084 C 
HETATM   10  C13 UNL     1      28.264   2.113  53.326  1.00  0.00     0.017 C 
HETATM   11  C14 UNL     1      28.690   0.909  54.071  1.00  0.00     0.003 C 
HETATM   12  C15 UNL     1      27.934  -0.108  54.520  1.00  0.00     0.029 C 
HETATM   13  C16 UNL     1      26.473  -0.250  54.367  1.00  0.00     0.062 A 
HETATM   14  N3  UNL     1      25.721  -0.837  55.259  1.00  0.00    -0.251 NA
HETATM   15  H9  UNL     1      24.948   2.307  53.321  1.00  0.00     0.160 HD
ENDROOT
BRANCH   1  16
HETATM   16  N1  UNL     1      20.722  -0.347  52.875  1.00  0.00    -0.316 N 
HETATM   17  C1  UNL     1      19.874   0.691  52.408  1.00  0.00     0.301 C 
HETATM   18  O1  UNL     1      20.025   1.919  52.594  1.00  0.00    -0.258 OA
HETATM   19  H4  UNL     1      20.505  -1.360  52.662  1.00  0.00     0.170 HD
BRANCH  17  20
HETATM   20  C2  UNL     1      18.728   0.283  51.644  1.00  0.00    -0.003 C 
HETATM   21  C3  UNL     1      17.743  -0.065  51.012  1.00  0.00    -0.071 C 
BRANCH  21  22
HETATM   22  C4  UNL     1      16.555  -0.498  50.272  1.00  0.00     0.258 C 
BRANCH  22  23
HETATM   23  O2  UNL     1      16.752  -0.469  48.902  1.00  0.00    -0.389 OA
HETATM   24  H3  UNL     1      17.717  -0.276  48.726  1.00  0.00     0.210 HD
ENDBRANCH  22  23
ENDBRANCH  21  22
ENDBRANCH  17  20
ENDBRANCH   1  16
TORSDOF 4
ENDMDL
MODEL 4
REMARK VINA RESULT:      -7.6      3.027      8.031
REMARK  4 active torsions:
REMARK  status: ('A' for Active; 'I' for Inactive)
REMARK    1  A    between atoms: C1_2  and  C2_3 
REMARK       I    between atoms: C1_2  and  N1_7 
REMARK    2  A    between atoms: C3_4  and  C4_5 
REMARK    3  A    between atoms: C4_5  and  O2_6 
REMARK    4  A    between atoms: N1_7  and  C5_8 
ROOT
HETATM    1  C5  UNL     1      23.931   1.229  52.667  1.00  0.00     0.036 A 
HETATM    2  C6  UNL     1      23.706   2.585  52.592  1.00  0.00     0.032 A 
HETATM    3  C7  UNL     1      22.428   3.037  52.336  1.00  0.00     0.034 A 
HETATM    4  C8  UNL     1      21.401   2.128  52.158  1.00  0.00     0.066 A 
HETATM    5  C9  UNL     1      21.576   0.758  52.222  1.00  0.00     0.001 A 
HETATM    6  C10 UNL     1      22.867   0.344  52.481  1.00  0.00     0.041 A 
HETATM    7  C11 UNL     1      20.294   0.091  51.990  1.00  0.00     0.169 A 
HETATM    8  N2  UNL     1      19.843  -0.606  53.178  1.00  0.00    -0.385 N 
HETATM    9  C12 UNL     1      18.575  -1.265  53.335  1.00  0.00     0.084 C 
HETATM   10  C13 UNL     1      17.378  -0.931  52.825  1.00  0.00     0.017 C 
HETATM   11  C14 UNL     1      17.086   0.232  51.959  1.00  0.00     0.003 C 
HETATM   12  C15 UNL     1      17.931   1.173  51.508  1.00  0.00     0.029 C 
HETATM   13  C16 UNL     1      19.379   1.260  51.787  1.00  0.00     0.062 A 
HETATM   14  N3  UNL     1      20.014   2.397  51.883  1.00  0.00    -0.251 NA
HETATM   15  H9  UNL     1      20.459  -0.668  54.039  1.00  0.00     0.160 HD
ENDROOT
BRANCH   1  16
HETATM   16  N1  UNL     1      25.174   0.604  52.921  1.00  0.00    -0.316 N 
HETATM   17  C1  UNL     1      26.335   0.728  53.728  1.00  0.00     0.301 C 
HETATM   18  O1  UNL     1      26.560   1.616  54.581  1.00  0.00    -0.258 OA
HETATM   19  H4  UNL     1      25.081  -0.188  52.226  1.00  0.00     0.170 HD
BRANCH  17  20
HETATM   20  C2  UNL     1      27.351  -0.270  53.543  1.00  0.00    -0.003 C 
HETATM   21  C3  UNL     1      28.200  -1.134  53.386  1.00  0.00    -0.071 C 
BRANCH  21  22
HETATM   22  C4  UNL     1      29.206  -2.184  53.211  1.00  0.00     0.258 C 
BRANCH  22  23
HETATM   23  O2  UNL     1      28.685  -3.449  53.424  1.00  0.00    -0.389 OA
HETATM   24  H3  UNL     1      27.755  -3.472  53.060  1.00  0.00     0.210 HD
ENDBRANCH  22  23
ENDBRANCH  21  22
ENDBRANCH  17  20
ENDBRANCH   1  16
TORSDOF 4
ENDMDL
MODEL 5
REMARK VINA RESULT:      -7.4      4.842      7.918
REMARK  4 active torsions:
REMARK  status: ('A' for Active; 'I' for Inactive)
REMARK    1  A    between atoms: C1_2  and  C2_3 
REMARK       I    between atoms: C1_2  and  N1_7 
REMARK    2  A    between atoms: C3_4  and  C4_5 
REMARK    3  A    between atoms: C4_5  and  O2_6 
REMARK    4  A    between atoms: N1_7  and  C5_8 
ROOT
HETATM    1  C5  UNL     1      25.736   2.939  51.134  1.00  0.00     0.036 A 
HETATM    2  C6  UNL     1      26.701   1.968  51.284  1.00  0.00     0.032 A 
HETATM    3  C7  UNL     1      26.397   0.831  52.004  1.00  0.00     0.034 A 
HETATM    4  C8  UNL     1      25.140   0.685  52.562  1.00  0.00     0.066 A 
HETATM    5  C9  UNL     1      24.138   1.631  52.440  1.00  0.00     0.001 A 
HETATM    6  C10 UNL     1      24.478   2.755  51.713  1.00  0.00     0.041 A 
HETATM    7  C11 UNL     1      22.941   1.168  53.144  1.00  0.00     0.169 A 
HETATM    8  N2  UNL     1      21.857   0.908  52.217  1.00  0.00    -0.385 N 
HETATM    9  C12 UNL     1      20.583   0.334  52.555  1.00  0.00     0.084 C 
HETATM   10  C13 UNL     1      20.292  -0.596  53.480  1.00  0.00     0.017 C 
HETATM   11  C14 UNL     1      21.250  -1.262  54.388  1.00  0.00     0.003 C 
HETATM   12  C15 UNL     1      22.578  -1.083  54.481  1.00  0.00     0.029 C 
HETATM   13  C16 UNL     1      23.398  -0.157  53.675  1.00  0.00     0.062 A 
HETATM   14  N3  UNL     1      24.635  -0.414  53.341  1.00  0.00    -0.251 NA
HETATM   15  H9  UNL     1      21.954   1.141  51.188  1.00  0.00     0.160 HD
ENDROOT
BRANCH   1  16
HETATM   16  N1  UNL     1      25.883   4.156  50.430  1.00  0.00    -0.316 N 
HETATM   17  C1  UNL     1      26.668   4.765  49.418  1.00  0.00     0.301 C 
HETATM   18  O1  UNL     1      27.612   4.238  48.786  1.00  0.00    -0.258 OA
HETATM   19  H4  UNL     1      25.104   4.692  50.905  1.00  0.00     0.170 HD
BRANCH  17  20
HETATM   20  C2  UNL     1      26.342   6.124  49.087  1.00  0.00    -0.003 C 
HETATM   21  C3  UNL     1      26.068   7.286  48.826  1.00  0.00    -0.071 C 
BRANCH  21  22
HETATM   22  C4  UNL     1      25.728   8.681  48.534  1.00  0.00     0.258 C 
BRANCH  22  23
HETATM   23  O2  UNL     1      26.315   9.561  49.427  1.00  0.00    -0.389 OA
HETATM   24  H3  UNL     1      25.674   9.726  50.175  1.00  0.00     0.210 HD
ENDBRANCH  22  23
ENDBRANCH  21  22
ENDBRANCH  17  20
ENDBRANCH   1  16
TORSDOF 4
ENDMDL
MODEL 6
REMARK VINA RESULT:      -7.3      5.630      8.859
REMARK  4 active torsions:
REMARK  status: ('A' for Active; 'I' for Inactive)
REMARK    1  A    between atoms: C1_2  and  C2_3 
REMARK       I    between atoms: C1_2  and  N1_7 
REMARK    2  A    between atoms: C3_4  and  C4_5 
REMARK    3  A    between atoms: C4_5  and  O2_6 
REMARK    4  A    between atoms: N1_7  and  C5_8 
ROOT
HETATM    1  C5  UNL     1      25.712   4.569  50.085  1.00  0.00     0.036 A 
HETATM    2  C6  UNL     1      24.709   5.479  50.335  1.00  0.00     0.032 A 
HETATM    3  C7  UNL     1      23.563   5.051  50.972  1.00  0.00     0.034 A 
HETATM    4  C8  UNL     1      23.438   3.726  51.347  1.00  0.00     0.066 A 
HETATM    5  C9  UNL     1      24.415   2.774  51.118  1.00  0.00     0.001 A 
HETATM    6  C10 UNL     1      25.547   3.239  50.479  1.00  0.00     0.041 A 
HETATM    7  C11 UNL     1      23.967   1.481  51.635  1.00  0.00     0.169 A 
HETATM    8  N2  UNL     1      24.786   1.051  52.752  1.00  0.00    -0.385 N 
HETATM    9  C12 UNL     1      24.552  -0.110  53.566  1.00  0.00     0.084 C 
HETATM   10  C13 UNL     1      23.386  -0.661  53.941  1.00  0.00     0.017 C 
HETATM   11  C14 UNL     1      22.033  -0.180  53.589  1.00  0.00     0.003 C 
HETATM   12  C15 UNL     1      21.691   0.881  52.839  1.00  0.00     0.029 C 
HETATM   13  C16 UNL     1      22.616   1.827  52.183  1.00  0.00     0.062 A 
HETATM   14  N3  UNL     1      22.332   3.091  52.013  1.00  0.00    -0.251 NA
HETATM   15  H9  UNL     1      25.644   1.603  53.040  1.00  0.00     0.160 HD
ENDROOT
BRANCH   1  16
HETATM   16  N1  UNL     1      26.943   4.841  49.446  1.00  0.00    -0.316 N 
HETATM   17  C1  UNL     1      27.543   5.746  48.532  1.00  0.00     0.301 C 
HETATM   18  O1  UNL     1      26.988   6.716  47.969  1.00  0.00    -0.258 OA
HETATM   19  H4  UNL     1      27.503   4.049  49.868  1.00  0.00     0.170 HD
BRANCH  17  20
HETATM   20  C2  UNL     1      28.928   5.521  48.226  1.00  0.00    -0.003 C 
HETATM   21  C3  UNL     1      30.111   5.337  47.985  1.00  0.00    -0.071 C 
BRANCH  21  22
HETATM   22  C4  UNL     1      31.536   5.137  47.707  1.00  0.00     0.258 C 
BRANCH  22  23
HETATM   23  O2  UNL     1      32.170   4.426  48.710  1.00  0.00    -0.389 OA
HETATM   24  H3  UNL     1      33.134   4.325  48.465  1.00  0.00     0.210 HD
ENDBRANCH  22  23
ENDBRANCH  21  22
ENDBRANCH  17  20
ENDBRANCH   1  16
TORSDOF 4
ENDMDL
MODEL 7
REMARK VINA RESULT:      -7.3      3.119      8.308
REMARK  4 active torsions:
REMARK  status: ('A' for Active; 'I' for Inactive)
REMARK    1  A    between atoms: C1_2  and  C2_3 
REMARK       I    between atoms: C1_2  and  N1_7 
REMARK    2  A    between atoms: C3_4  and  C4_5 
REMARK    3  A    between atoms: C4_5  and  O2_6 
REMARK    4  A    between atoms: N1_7  and  C5_8 
ROOT
HETATM    1  C5  UNL     1      23.105  -0.467  53.948  1.00  0.00     0.036 A 
HETATM    2  C6  UNL     1      22.408  -1.485  54.558  1.00  0.00     0.032 A 
HETATM    3  C7  UNL     1      21.054  -1.603  54.321  1.00  0.00     0.034 A 
HETATM    4  C8  UNL     1      20.421  -0.702  53.483  1.00  0.00     0.066 A 
HETATM    5  C9  UNL     1      21.076   0.338  52.849  1.00  0.00     0.001 A 
HETATM    6  C10 UNL     1      22.430   0.423  53.109  1.00  0.00     0.041 A 
HETATM    7  C11 UNL     1      20.121   1.096  52.041  1.00  0.00     0.169 A 
HETATM    8  N2  UNL     1      20.411   0.966  50.626  1.00  0.00    -0.385 N 
HETATM    9  C12 UNL     1      19.606   1.483  49.554  1.00  0.00     0.084 C 
HETATM   10  C13 UNL     1      18.271   1.606  49.480  1.00  0.00     0.017 C 
HETATM   11  C14 UNL     1      17.294   1.222  50.522  1.00  0.00     0.003 C 
HETATM   12  C15 UNL     1      17.528   0.686  51.731  1.00  0.00     0.029 C 
HETATM   13  C16 UNL     1      18.847   0.351  52.303  1.00  0.00     0.062 A 
HETATM   14  N3  UNL     1      19.031  -0.656  53.115  1.00  0.00    -0.251 NA
HETATM   15  H9  UNL     1      21.278   0.455  50.295  1.00  0.00     0.160 HD
ENDROOT
BRANCH   1  16
HETATM   16  N1  UNL     1      24.488  -0.207  54.083  1.00  0.00    -0.316 N 
HETATM   17  C1  UNL     1      25.573  -0.408  54.975  1.00  0.00     0.301 C 
HETATM   18  O1  UNL     1      25.531  -0.990  56.083  1.00  0.00    -0.258 OA
HETATM   19  H4  UNL     1      24.630   0.300  53.166  1.00  0.00     0.170 HD
BRANCH  17  20
HETATM   20  C2  UNL     1      26.847   0.110  54.560  1.00  0.00    -0.003 C 
HETATM   21  C3  UNL     1      27.939   0.534  54.216  1.00  0.00    -0.071 C 
BRANCH  21  22
HETATM   22  C4  UNL     1      29.259   1.034  53.823  1.00  0.00     0.258 C 
BRANCH  22  23
HETATM   23  O2  UNL     1      29.189   2.279  53.221  1.00  0.00    -0.389 OA
HETATM   24  H3  UNL     1      28.361   2.738  53.541  1.00  0.00     0.210 HD
ENDBRANCH  22  23
ENDBRANCH  21  22
ENDBRANCH  17  20
ENDBRANCH   1  16
TORSDOF 4
ENDMDL
MODEL 8
REMARK VINA RESULT:      -7.0      4.930      6.791
REMARK  4 active torsions:
REMARK  status: ('A' for Active; 'I' for Inactive)
REMARK    1  A    between atoms: C1_2  and  C2_3 
REMARK       I    between atoms: C1_2  and  N1_7 
REMARK    2  A    between atoms: C3_4  and  C4_5 
REMARK    3  A    between atoms: C4_5  and  O2_6 
REMARK    4  A    between atoms: N1_7  and  C5_8 
ROOT
HETATM    1  C5  UNL     1      23.444   3.060  50.625  1.00  0.00     0.036 A 
HETATM    2  C6  UNL     1      22.442   3.478  49.779  1.00  0.00     0.032 A 
HETATM    3  C7  UNL     1      22.691   4.525  48.915  1.00  0.00     0.034 A 
HETATM    4  C8  UNL     1      23.932   5.135  48.913  1.00  0.00     0.066 A 
HETATM    5  C9  UNL     1      24.970   4.752  49.743  1.00  0.00     0.001 A 
HETATM    6  C10 UNL     1      24.685   3.702  50.593  1.00  0.00     0.041 A 
HETATM    7  C11 UNL     1      26.137   5.598  49.487  1.00  0.00     0.169 A 
HETATM    8  N2  UNL     1      27.226   4.828  48.918  1.00  0.00    -0.385 N 
HETATM    9  C12 UNL     1      28.471   5.364  48.440  1.00  0.00     0.084 C 
HETATM   10  C13 UNL     1      28.712   6.539  47.836  1.00  0.00     0.017 C 
HETATM   11  C14 UNL     1      27.715   7.583  47.516  1.00  0.00     0.003 C 
HETATM   12  C15 UNL     1      26.393   7.579  47.756  1.00  0.00     0.029 C 
HETATM   13  C16 UNL     1      25.622   6.502  48.408  1.00  0.00     0.062 A 
HETATM   14  N3  UNL     1      24.383   6.231  48.097  1.00  0.00    -0.251 NA
HETATM   15  H9  UNL     1      27.155   3.776  48.821  1.00  0.00     0.160 HD
ENDROOT
BRANCH   1  16
HETATM   16  N1  UNL     1      23.355   2.009  51.566  1.00  0.00    -0.316 N 
HETATM   17  C1  UNL     1      24.143   1.005  52.187  1.00  0.00     0.301 C 
HETATM   18  O1  UNL     1      25.360   0.784  51.992  1.00  0.00    -0.258 OA
HETATM   19  H4  UNL     1      22.329   2.113  51.802  1.00  0.00     0.170 HD
BRANCH  17  20
HETATM   20  C2  UNL     1      23.472   0.160  53.134  1.00  0.00    -0.003 C 
HETATM   21  C3  UNL     1      22.915  -0.553  53.955  1.00  0.00    -0.071 C 
BRANCH  21  22
HETATM   22  C4  UNL     1      22.267  -1.413  54.949  1.00  0.00     0.258 C 
BRANCH  22  23
HETATM   23  O2  UNL     1      23.150  -1.842  55.924  1.00  0.00    -0.389 OA
HETATM   24  H3  UNL     1      24.074  -1.575  55.654  1.00  0.00     0.210 HD
ENDBRANCH  22  23
ENDBRANCH  21  22
ENDBRANCH  17  20
ENDBRANCH   1  16
TORSDOF 4
ENDMDL
MODEL 9
REMARK VINA RESULT:      -7.0      3.171      4.026
REMARK  4 active torsions:
REMARK  status: ('A' for Active; 'I' for Inactive)
REMARK    1  A    between atoms: C1_2  and  C2_3 
REMARK       I    between atoms: C1_2  and  N1_7 
REMARK    2  A    between atoms: C3_4  and  C4_5 
REMARK    3  A    between atoms: C4_5  and  O2_6 
REMARK    4  A    between atoms: N1_7  and  C5_8 
ROOT
HETATM    1  C5  UNL     1      22.748   1.195  52.181  1.00  0.00     0.036 A 
HETATM    2  C6  UNL     1      22.419   0.074  52.909  1.00  0.00     0.032 A 
HETATM    3  C7  UNL     1      23.430  -0.681  53.467  1.00  0.00     0.034 A 
HETATM    4  C8  UNL     1      24.749  -0.304  53.286  1.00  0.00     0.066 A 
HETATM    5  C9  UNL     1      25.131   0.811  52.563  1.00  0.00     0.001 A 
HETATM    6  C10 UNL     1      24.091   1.542  52.021  1.00  0.00     0.041 A 
HETATM    7  C11 UNL     1      26.590   0.921  52.568  1.00  0.00     0.169 A 
HETATM    8  N2  UNL     1      27.024   2.097  53.295  1.00  0.00    -0.385 N 
HETATM    9  C12 UNL     1      28.387   2.444  53.593  1.00  0.00     0.084 C 
HETATM   10  C13 UNL     1      29.426   1.637  53.866  1.00  0.00     0.017 C 
HETATM   11  C14 UNL     1      29.400   0.159  53.924  1.00  0.00     0.003 C 
HETATM   12  C15 UNL     1      28.361  -0.668  53.719  1.00  0.00     0.029 C 
HETATM   13  C16 UNL     1      26.978  -0.275  53.385  1.00  0.00     0.062 A 
HETATM   14  N3  UNL     1      25.934  -0.953  53.780  1.00  0.00    -0.251 NA
HETATM   15  H9  UNL     1      26.321   2.799  53.664  1.00  0.00     0.160 HD
ENDROOT
BRANCH   1  16
HETATM   16  N1  UNL     1      21.839   2.073  51.547  1.00  0.00    -0.316 N 
HETATM   17  C1  UNL     1      20.686   2.858  51.812  1.00  0.00     0.301 C 
HETATM   18  O1  UNL     1      20.093   2.967  52.909  1.00  0.00    -0.258 OA
HETATM   19  H4  UNL     1      22.265   2.049  50.580  1.00  0.00     0.170 HD
BRANCH  17  20
HETATM   20  C2  UNL     1      20.151   3.600  50.705  1.00  0.00    -0.003 C 
HETATM   21  C3  UNL     1      19.715   4.230  49.754  1.00  0.00    -0.071 C 
BRANCH  21  22
HETATM   22  C4  UNL     1      19.212   4.997  48.611  1.00  0.00     0.258 C 
BRANCH  22  23
HETATM   23  O2  UNL     1      18.580   4.193  47.678  1.00  0.00    -0.389 OA
HETATM   24  H3  UNL     1      18.854   3.246  47.840  1.00  0.00     0.210 HD
ENDBRANCH  22  23
ENDBRANCH  21  22
ENDBRANCH  17  20
ENDBRANCH   1  16
TORSDOF 4
ENDMDL
