MODEL 1
REMARK VINA RESULT:      -8.5      0.000      0.000
REMARK  3 active torsions:
REMARK  status: ('A' for Active; 'I' for Inactive)
REMARK    1  A    between atoms: C4_4  and  C5_5 
REMARK    2  A    between atoms: N2_15  and  C13_16 
REMARK    3  A    between atoms: C14_18  and  O1_19 
ROOT
HETATM    1  C5  UNL     1      25.015   2.170  51.977  1.00  0.00     0.155 C 
HETATM    2  C6  UNL     1      24.676   3.563  51.553  1.00  0.00    -0.006 C 
HETATM    3  C7  UNL     1      23.821   4.530  51.842  1.00  0.00     0.012 C 
HETATM    4  C8  UNL     1      23.669   5.862  51.270  1.00  0.00     0.015 C 
HETATM    5  C9  UNL     1      24.023   6.100  50.019  1.00  0.00    -0.011 C 
HETATM    6 BR1  UNL     1      23.690   7.944  49.605  1.00  0.00    -0.056 Br
HETATM    7  C10 UNL     1      24.587   5.258  48.944  1.00  0.00     0.052 C 
HETATM    8  C11 UNL     1      25.851   4.558  49.287  1.00  0.00     0.067 C 
HETATM    9  C12 UNL     1      25.748   3.713  50.520  1.00  0.00     0.063 C 
HETATM   10  N1  UNL     1      26.753   2.932  50.848  1.00  0.00    -0.174 NA
HETATM   11  N2  UNL     1      26.429   2.266  52.037  1.00  0.00    -0.236 N 
ENDROOT
BRANCH  11  12
HETATM   12  C13 UNL     1      27.515   1.893  52.919  1.00  0.00     0.192 A 
HETATM   13  N3  UNL     1      28.274   2.389  53.622  1.00  0.00    -0.198 NA
HETATM   14  C14 UNL     1      29.195   1.751  54.340  1.00  0.00     0.171 A 
HETATM   15  C15 UNL     1      29.254   0.342  54.233  1.00  0.00     0.111 A 
HETATM   16  S1  UNL     1      27.849   0.027  52.996  1.00  0.00    -0.058 SA
BRANCH  14  17
HETATM   17  O1  UNL     1      30.056   2.494  55.158  1.00  0.00    -0.344 OA
HETATM   18  H13 UNL     1      31.056   2.392  55.162  1.00  0.00     0.219 HD
ENDBRANCH  14  17
ENDBRANCH  11  12
BRANCH   1  19
HETATM   19  C4  UNL     1      24.273   1.697  53.162  1.00  0.00     0.042 A 
HETATM   20  C3  UNL     1      22.858   1.428  52.801  1.00  0.00    -0.017 A 
HETATM   21  C2  UNL     1      22.884   0.151  53.049  1.00  0.00    -0.086 A 
HETATM   22  C1  UNL     1      22.116  -1.133  53.067  1.00  0.00     0.043 C 
HETATM   23  C16 UNL     1      24.300   0.241  53.453  1.00  0.00     0.044 A 
ENDBRANCH   1  19
TORSDOF 3
ENDMDL
MODEL 2
REMARK VINA RESULT:      -8.2      1.482      1.552
REMARK  3 active torsions:
REMARK  status: ('A' for Active; 'I' for Inactive)
REMARK    1  A    between atoms: C4_4  and  C5_5 
REMARK    2  A    between atoms: N2_15  and  C13_16 
REMARK    3  A    between atoms: C14_18  and  O1_19 
ROOT
HETATM    1  C5  UNL     1      24.585   1.528  52.193  1.00  0.00     0.155 C 
HETATM    2  C6  UNL     1      24.418   2.989  51.923  1.00  0.00    -0.006 C 
HETATM    3  C7  UNL     1      23.792   4.045  52.418  1.00  0.00     0.012 C 
HETATM    4  C8  UNL     1      23.773   5.431  51.966  1.00  0.00     0.015 C 
HETATM    5  C9  UNL     1      23.952   5.724  50.690  1.00  0.00    -0.011 C 
HETATM    6 BR1  UNL     1      23.867   7.627  50.457  1.00  0.00    -0.056 Br
HETATM    7  C10 UNL     1      24.186   4.906  49.482  1.00  0.00     0.052 C 
HETATM    8  C11 UNL     1      25.356   3.993  49.553  1.00  0.00     0.067 C 
HETATM    9  C12 UNL     1      25.317   3.066  50.730  1.00  0.00     0.063 C 
HETATM   10  N1  UNL     1      26.218   2.115  50.827  1.00  0.00    -0.174 NA
HETATM   11  N2  UNL     1      25.987   1.402  52.010  1.00  0.00    -0.236 N 
ENDROOT
BRANCH  11  12
HETATM   12  C13 UNL     1      27.124   0.789  52.663  1.00  0.00     0.192 A 
HETATM   13  N3  UNL     1      27.554  -0.257  52.861  1.00  0.00    -0.198 NA
HETATM   14  C14 UNL     1      28.679  -0.517  53.523  1.00  0.00     0.171 A 
HETATM   15  C15 UNL     1      29.414   0.579  54.030  1.00  0.00     0.111 A 
HETATM   16  S1  UNL     1      28.324   2.024  53.458  1.00  0.00    -0.058 SA
BRANCH  14  17
HETATM   17  O1  UNL     1      29.079  -1.850  53.686  1.00  0.00    -0.344 OA
HETATM   18  H13 UNL     1      28.602  -2.635  53.278  1.00  0.00     0.219 HD
ENDBRANCH  14  17
ENDBRANCH  11  12
BRANCH   1  19
HETATM   19  C4  UNL     1      23.978   1.069  53.457  1.00  0.00     0.042 A 
HETATM   20  C3  UNL     1      22.516   0.881  53.280  1.00  0.00    -0.017 A 
HETATM   21  C2  UNL     1      22.504  -0.400  53.504  1.00  0.00    -0.086 A 
HETATM   22  C1  UNL     1      21.676  -1.643  53.603  1.00  0.00     0.043 C 
HETATM   23  C16 UNL     1      23.963  -0.392  53.721  1.00  0.00     0.044 A 
ENDBRANCH   1  19
TORSDOF 3
ENDMDL
MODEL 3
REMARK VINA RESULT:      -8.1      3.875      6.040
REMARK  3 active torsions:
REMARK  status: ('A' for Active; 'I' for Inactive)
REMARK    1  A    between atoms: C4_4  and  C5_5 
REMARK    2  A    between atoms: N2_15  and  C13_16 
REMARK    3  A    between atoms: C14_18  and  O1_19 
ROOT
HETATM    1  C5  UNL     1      23.798   1.242  53.058  1.00  0.00     0.155 C 
HETATM    2  C6  UNL     1      25.154   0.615  52.995  1.00  0.00    -0.006 C 
HETATM    3  C7  UNL     1      25.757  -0.443  52.476  1.00  0.00     0.012 C 
HETATM    4  C8  UNL     1      27.149  -0.870  52.551  1.00  0.00     0.015 C 
HETATM    5  C9  UNL     1      27.898  -0.541  53.589  1.00  0.00    -0.011 C 
HETATM    6 BR1  UNL     1      29.661  -1.264  53.355  1.00  0.00    -0.056 Br
HETATM    7  C10 UNL     1      27.642   0.228  54.824  1.00  0.00     0.052 C 
HETATM    8  C11 UNL     1      27.128   1.606  54.616  1.00  0.00     0.067 C 
HETATM    9  C12 UNL     1      25.883   1.657  53.782  1.00  0.00     0.063 C 
HETATM   10  N1  UNL     1      25.250   2.800  53.645  1.00  0.00    -0.174 NA
HETATM   11  N2  UNL     1      24.141   2.597  52.813  1.00  0.00    -0.236 N 
ENDROOT
BRANCH  11  12
HETATM   12  C13 UNL     1      23.688   3.711  52.008  1.00  0.00     0.192 A 
HETATM   13  N3  UNL     1      23.117   4.699  52.133  1.00  0.00    -0.198 NA
HETATM   14  C14 UNL     1      22.842   5.561  51.158  1.00  0.00     0.171 A 
HETATM   15  C15 UNL     1      23.283   5.243  49.852  1.00  0.00     0.111 A 
HETATM   16  S1  UNL     1      24.137   3.577  50.170  1.00  0.00    -0.058 SA
BRANCH  14  17
HETATM   17  O1  UNL     1      22.135   6.731  51.463  1.00  0.00    -0.344 OA
HETATM   18  H13 UNL     1      22.093   7.537  50.864  1.00  0.00     0.219 HD
ENDBRANCH  14  17
ENDBRANCH  11  12
BRANCH   1  19
HETATM   19  C4  UNL     1      22.785   0.589  52.208  1.00  0.00     0.042 A 
HETATM   20  C3  UNL     1      22.277  -0.638  52.874  1.00  0.00    -0.017 A 
HETATM   21  C2  UNL     1      21.046  -0.236  53.001  1.00  0.00    -0.086 A 
HETATM   22  C1  UNL     1      19.669  -0.566  53.486  1.00  0.00     0.043 C 
HETATM   23  C16 UNL     1      21.378   1.042  52.345  1.00  0.00     0.044 A 
ENDBRANCH   1  19
TORSDOF 3
ENDMDL
MODEL 4
REMARK VINA RESULT:      -7.8      4.041      6.202
REMARK  3 active torsions:
REMARK  status: ('A' for Active; 'I' for Inactive)
REMARK    1  A    between atoms: C4_4  and  C5_5 
REMARK    2  A    between atoms: N2_15  and  C13_16 
REMARK    3  A    between atoms: C14_18  and  O1_19 
ROOT
HETATM    1  C5  UNL     1      23.735   0.862  52.945  1.00  0.00     0.155 C 
HETATM    2  C6  UNL     1      25.136   0.338  52.953  1.00  0.00    -0.006 C 
HETATM    3  C7  UNL     1      25.809  -0.756  52.636  1.00  0.00     0.012 C 
HETATM    4  C8  UNL     1      27.233  -1.053  52.737  1.00  0.00     0.015 C 
HETATM    5  C9  UNL     1      27.979  -0.462  53.653  1.00  0.00    -0.011 C 
HETATM    6 BR1  UNL     1      29.788  -1.084  53.497  1.00  0.00    -0.056 Br
HETATM    7  C10 UNL     1      27.694   0.525  54.715  1.00  0.00     0.052 C 
HETATM    8  C11 UNL     1      27.064   1.788  54.252  1.00  0.00     0.067 C 
HETATM    9  C12 UNL     1      25.797   1.572  53.480  1.00  0.00     0.063 C 
HETATM   10  N1  UNL     1      25.069   2.611  53.139  1.00  0.00    -0.174 NA
HETATM   11  N2  UNL     1      23.960   2.159  52.414  1.00  0.00    -0.236 N 
ENDROOT
BRANCH  11  12
HETATM   12  C13 UNL     1      23.396   3.046  51.419  1.00  0.00     0.192 A 
HETATM   13  N3  UNL     1      23.497   3.272  50.298  1.00  0.00    -0.198 NA
HETATM   14  C14 UNL     1      22.805   4.191  49.629  1.00  0.00     0.171 A 
HETATM   15  C15 UNL     1      21.863   4.960  50.350  1.00  0.00     0.111 A 
HETATM   16  S1  UNL     1      22.072   4.227  52.089  1.00  0.00    -0.058 SA
BRANCH  14  17
HETATM   17  O1  UNL     1      23.038   4.353  48.258  1.00  0.00    -0.344 OA
HETATM   18  H13 UNL     1      22.312   4.405  47.565  1.00  0.00     0.219 HD
ENDBRANCH  14  17
ENDBRANCH  11  12
BRANCH   1  19
HETATM   19  C4  UNL     1      22.756  -0.027  52.290  1.00  0.00     0.042 A 
HETATM   20  C3  UNL     1      22.208  -0.993  53.275  1.00  0.00    -0.017 A 
HETATM   21  C2  UNL     1      20.976  -0.579  53.216  1.00  0.00    -0.086 A 
HETATM   22  C1  UNL     1      19.576  -0.753  53.714  1.00  0.00     0.043 C 
HETATM   23  C16 UNL     1      21.348   0.439  52.216  1.00  0.00     0.044 A 
ENDBRANCH   1  19
TORSDOF 3
ENDMDL
MODEL 5
REMARK VINA RESULT:      -7.7      3.210      4.894
REMARK  3 active torsions:
REMARK  status: ('A' for Active; 'I' for Inactive)
REMARK    1  A    between atoms: C4_4  and  C5_5 
REMARK    2  A    between atoms: N2_15  and  C13_16 
REMARK    3  A    between atoms: C14_18  and  O1_19 
ROOT
HETATM    1  C5  UNL     1      24.691   2.073  52.331  1.00  0.00     0.155 C 
HETATM    2  C6  UNL     1      24.555   3.059  51.215  1.00  0.00    -0.006 C 
HETATM    3  C7  UNL     1      24.949   3.233  49.964  1.00  0.00     0.012 C 
HETATM    4  C8  UNL     1      24.684   4.321  49.031  1.00  0.00     0.015 C 
HETATM    5  C9  UNL     1      24.449   5.544  49.475  1.00  0.00    -0.011 C 
HETATM    6 BR1  UNL     1      24.142   6.712  47.983  1.00  0.00    -0.056 Br
HETATM    7  C10 UNL     1      24.389   6.142  50.824  1.00  0.00     0.052 C 
HETATM    8  C11 UNL     1      23.431   5.498  51.759  1.00  0.00     0.067 C 
HETATM    9  C12 UNL     1      23.660   4.025  51.924  1.00  0.00     0.063 C 
HETATM   10  N1  UNL     1      22.974   3.368  52.831  1.00  0.00    -0.174 NA
HETATM   11  N2  UNL     1      23.346   2.019  52.779  1.00  0.00    -0.236 N 
ENDROOT
BRANCH  11  12
HETATM   12  C13 UNL     1      22.358   1.030  53.157  1.00  0.00     0.192 A 
HETATM   13  N3  UNL     1      22.241   0.154  53.889  1.00  0.00    -0.198 NA
HETATM   14  C14 UNL     1      21.156  -0.607  54.016  1.00  0.00     0.171 A 
HETATM   15  C15 UNL     1      20.050  -0.322  53.184  1.00  0.00     0.111 A 
HETATM   16  S1  UNL     1      20.726   1.153  52.198  1.00  0.00    -0.058 SA
BRANCH  14  17
HETATM   17  O1  UNL     1      21.160  -1.644  54.958  1.00  0.00    -0.344 OA
HETATM   18  H13 UNL     1      20.769  -1.569  55.880  1.00  0.00     0.219 HD
ENDBRANCH  14  17
ENDBRANCH  11  12
BRANCH   1  19
HETATM   19  C4  UNL     1      25.379   0.822  51.957  1.00  0.00     0.042 A 
HETATM   20  C3  UNL     1      26.845   1.049  51.888  1.00  0.00    -0.017 A 
HETATM   21  C2  UNL     1      27.165   0.235  52.852  1.00  0.00    -0.086 A 
HETATM   22  C1  UNL     1      28.269  -0.360  53.668  1.00  0.00     0.043 C 
HETATM   23  C16 UNL     1      25.746  -0.113  53.051  1.00  0.00     0.044 A 
ENDBRANCH   1  19
TORSDOF 3
ENDMDL
MODEL 6
REMARK VINA RESULT:      -7.6      3.235      5.101
REMARK  3 active torsions:
REMARK  status: ('A' for Active; 'I' for Inactive)
REMARK    1  A    between atoms: C4_4  and  C5_5 
REMARK    2  A    between atoms: N2_15  and  C13_16 
REMARK    3  A    between atoms: C14_18  and  O1_19 
ROOT
HETATM    1  C5  UNL     1      24.008   2.352  51.237  1.00  0.00     0.155 C 
HETATM    2  C6  UNL     1      22.641   1.826  50.933  1.00  0.00    -0.006 C 
HETATM    3  C7  UNL     1      21.888   1.507  49.893  1.00  0.00     0.012 C 
HETATM    4  C8  UNL     1      20.525   0.992  49.835  1.00  0.00     0.015 C 
HETATM    5  C9  UNL     1      19.660   1.272  50.794  1.00  0.00    -0.011 C 
HETATM    6 BR1  UNL     1      17.978   0.437  50.395  1.00  0.00    -0.056 Br
HETATM    7  C10 UNL     1      19.742   2.066  52.037  1.00  0.00     0.052 C 
HETATM    8  C11 UNL     1      20.822   1.664  52.974  1.00  0.00     0.067 C 
HETATM    9  C12 UNL     1      22.183   1.659  52.347  1.00  0.00     0.063 C 
HETATM   10  N1  UNL     1      23.237   1.461  53.105  1.00  0.00    -0.174 NA
HETATM   11  N2  UNL     1      24.379   1.481  52.293  1.00  0.00    -0.236 N 
ENDROOT
BRANCH  11  12
HETATM   12  C13 UNL     1      25.516   0.688  52.708  1.00  0.00     0.192 A 
HETATM   13  N3  UNL     1      25.902  -0.390  52.624  1.00  0.00    -0.198 NA
HETATM   14  C14 UNL     1      27.045  -0.844  53.132  1.00  0.00     0.171 A 
HETATM   15  C15 UNL     1      27.862   0.070  53.837  1.00  0.00     0.111 A 
HETATM   16  S1  UNL     1      26.818   1.650  53.696  1.00  0.00    -0.058 SA
BRANCH  14  17
HETATM   17  O1  UNL     1      27.385  -2.190  52.948  1.00  0.00    -0.344 OA
HETATM   18  H13 UNL     1      28.328  -2.538  52.948  1.00  0.00     0.219 HD
ENDBRANCH  14  17
ENDBRANCH  11  12
BRANCH   1  19
HETATM   19  C4  UNL     1      24.889   2.476  50.059  1.00  0.00     0.042 A 
HETATM   20  C3  UNL     1      24.516   3.677  49.270  1.00  0.00    -0.017 A 
HETATM   21  C2  UNL     1      25.639   4.313  49.431  1.00  0.00    -0.086 A 
HETATM   22  C1  UNL     1      26.427   5.549  49.132  1.00  0.00     0.043 C 
HETATM   23  C16 UNL     1      26.174   3.199  50.236  1.00  0.00     0.044 A 
ENDBRANCH   1  19
TORSDOF 3
ENDMDL
MODEL 7
REMARK VINA RESULT:      -7.5      4.799      6.414
REMARK  3 active torsions:
REMARK  status: ('A' for Active; 'I' for Inactive)
REMARK    1  A    between atoms: C4_4  and  C5_5 
REMARK    2  A    between atoms: N2_15  and  C13_16 
REMARK    3  A    between atoms: C14_18  and  O1_19 
ROOT
HETATM    1  C5  UNL     1      22.200   1.179  52.950  1.00  0.00     0.155 C 
HETATM    2  C6  UNL     1      22.580   2.083  51.821  1.00  0.00    -0.006 C 
HETATM    3  C7  UNL     1      23.449   2.148  50.825  1.00  0.00     0.012 C 
HETATM    4  C8  UNL     1      23.645   3.172  49.806  1.00  0.00     0.015 C 
HETATM    5  C9  UNL     1      23.330   4.432  50.050  1.00  0.00    -0.011 C 
HETATM    6 BR1  UNL     1      23.715   5.495  48.499  1.00  0.00    -0.056 Br
HETATM    7  C10 UNL     1      22.777   5.132  51.228  1.00  0.00     0.052 C 
HETATM    8  C11 UNL     1      21.488   4.594  51.735  1.00  0.00     0.067 C 
HETATM    9  C12 UNL     1      21.540   3.131  52.058  1.00  0.00     0.063 C 
HETATM   10  N1  UNL     1      20.510   2.569  52.648  1.00  0.00    -0.174 NA
HETATM   11  N2  UNL     1      20.787   1.207  52.824  1.00  0.00    -0.236 N 
ENDROOT
BRANCH  11  12
HETATM   12  C13 UNL     1      19.670   0.286  52.828  1.00  0.00     0.192 A 
HETATM   13  N3  UNL     1      19.255  -0.575  53.464  1.00  0.00    -0.198 NA
HETATM   14  C14 UNL     1      18.148  -1.265  53.203  1.00  0.00     0.171 A 
HETATM   15  C15 UNL     1      17.413  -0.918  52.046  1.00  0.00     0.111 A 
HETATM   16  S1  UNL     1      18.476   0.503  51.371  1.00  0.00    -0.058 SA
BRANCH  14  17
HETATM   17  O1  UNL     1      17.765  -2.292  54.075  1.00  0.00    -0.344 OA
HETATM   18  H13 UNL     1      17.650  -2.176  55.066  1.00  0.00     0.219 HD
ENDBRANCH  14  17
ENDBRANCH  11  12
BRANCH   1  19
HETATM   19  C4  UNL     1      22.899  -0.120  52.952  1.00  0.00     0.042 A 
HETATM   20  C3  UNL     1      24.308   0.062  53.384  1.00  0.00    -0.017 A 
HETATM   21  C2  UNL     1      24.224  -0.656  54.465  1.00  0.00    -0.086 A 
HETATM   22  C1  UNL     1      24.939  -1.192  55.666  1.00  0.00     0.043 C 
HETATM   23  C16 UNL     1      22.807  -0.948  54.182  1.00  0.00     0.044 A 
ENDBRANCH   1  19
TORSDOF 3
ENDMDL
MODEL 8
REMARK VINA RESULT:      -7.3      3.289      5.210
REMARK  3 active torsions:
REMARK  status: ('A' for Active; 'I' for Inactive)
REMARK    1  A    between atoms: C4_4  and  C5_5 
REMARK    2  A    between atoms: N2_15  and  C13_16 
REMARK    3  A    between atoms: C14_18  and  O1_19 
ROOT
HETATM    1  C5  UNL     1      24.576   1.367  53.520  1.00  0.00     0.155 C 
HETATM    2  C6  UNL     1      23.237   0.984  52.974  1.00  0.00    -0.006 C 
HETATM    3  C7  UNL     1      22.416   1.308  51.989  1.00  0.00     0.012 C 
HETATM    4  C8  UNL     1      21.104   0.778  51.638  1.00  0.00     0.015 C 
HETATM    5  C9  UNL     1      20.316   0.264  52.567  1.00  0.00    -0.011 C 
HETATM    6 BR1  UNL     1      18.683  -0.334  51.755  1.00  0.00    -0.056 Br
HETATM    7  C10 UNL     1      20.451   0.081  54.027  1.00  0.00     0.052 C 
HETATM    8  C11 UNL     1      21.650  -0.682  54.461  1.00  0.00     0.067 C 
HETATM    9  C12 UNL     1      22.938  -0.106  53.953  1.00  0.00     0.063 C 
HETATM   10  N1  UNL     1      24.075  -0.603  54.384  1.00  0.00    -0.174 NA
HETATM   11  N2  UNL     1      25.124   0.080  53.756  1.00  0.00    -0.236 N 
ENDROOT
BRANCH  11  12
HETATM   12  C13 UNL     1      26.362  -0.638  53.537  1.00  0.00     0.192 A 
HETATM   13  N3  UNL     1      26.718  -1.680  53.214  1.00  0.00    -0.198 NA
HETATM   14  C14 UNL     1      27.987  -2.062  53.096  1.00  0.00     0.171 A 
HETATM   15  C15 UNL     1      28.991  -1.111  53.392  1.00  0.00     0.111 A 
HETATM   16  S1  UNL     1      27.924   0.389  53.857  1.00  0.00    -0.058 SA
BRANCH  14  17
HETATM   17  O1  UNL     1      28.269  -3.373  52.690  1.00  0.00    -0.344 OA
HETATM   18  H13 UNL     1      29.180  -3.793  52.739  1.00  0.00     0.219 HD
ENDBRANCH  14  17
ENDBRANCH  11  12
BRANCH   1  19
HETATM   19  C4  UNL     1      25.322   2.328  52.686  1.00  0.00     0.042 A 
HETATM   20  C3  UNL     1      25.461   1.801  51.304  1.00  0.00    -0.017 A 
HETATM   21  C2  UNL     1      24.775   2.738  50.719  1.00  0.00    -0.086 A 
HETATM   22  C1  UNL     1      24.244   3.275  49.427  1.00  0.00     0.043 C 
HETATM   23  C16 UNL     1      24.547   3.403  52.016  1.00  0.00     0.044 A 
ENDBRANCH   1  19
TORSDOF 3
ENDMDL
MODEL 9
REMARK VINA RESULT:      -7.2      3.674      5.510
REMARK  3 active torsions:
REMARK  status: ('A' for Active; 'I' for Inactive)
REMARK    1  A    between atoms: C4_4  and  C5_5 
REMARK    2  A    between atoms: N2_15  and  C13_16 
REMARK    3  A    between atoms: C14_18  and  O1_19 
ROOT
HETATM    1  C5  UNL     1      24.697   2.164  51.248  1.00  0.00     0.155 C 
HETATM    2  C6  UNL     1      23.289   1.754  51.540  1.00  0.00    -0.006 C 
HETATM    3  C7  UNL     1      22.542   1.347  52.554  1.00  0.00     0.012 C 
HETATM    4  C8  UNL     1      21.130   0.986  52.604  1.00  0.00     0.015 C 
HETATM    5  C9  UNL     1      20.521   0.506  51.534  1.00  0.00    -0.011 C 
HETATM    6 BR1  UNL     1      18.684   0.145  51.958  1.00  0.00    -0.056 Br
HETATM    7  C10 UNL     1      20.967   0.209  50.157  1.00  0.00     0.052 C 
HETATM    8  C11 UNL     1      21.585   1.349  49.433  1.00  0.00     0.067 C 
HETATM    9  C12 UNL     1      22.741   1.963  50.164  1.00  0.00     0.063 C 
HETATM   10  N1  UNL     1      23.462   2.884  49.565  1.00  0.00    -0.174 NA
HETATM   11  N2  UNL     1      24.460   3.312  50.449  1.00  0.00    -0.236 N 
ENDROOT
BRANCH  11  12
HETATM   12  C13 UNL     1      24.933   4.674  50.324  1.00  0.00     0.192 A 
HETATM   13  N3  UNL     1      25.843   5.245  49.920  1.00  0.00    -0.198 NA
HETATM   14  C14 UNL     1      26.001   6.566  49.944  1.00  0.00     0.171 A 
HETATM   15  C15 UNL     1      24.966   7.343  50.515  1.00  0.00     0.111 A 
HETATM   16  S1  UNL     1      23.743   5.979  51.014  1.00  0.00    -0.058 SA
BRANCH  14  17
HETATM   17  O1  UNL     1      27.170   7.122  49.410  1.00  0.00    -0.344 OA
HETATM   18  H13 UNL     1      27.182   7.835  48.702  1.00  0.00     0.219 HD
ENDBRANCH  14  17
ENDBRANCH  11  12
BRANCH   1  19
HETATM   19  C4  UNL     1      25.557   2.280  52.442  1.00  0.00     0.042 A 
HETATM   20  C3  UNL     1      25.673   0.961  53.114  1.00  0.00    -0.017 A 
HETATM   21  C2  UNL     1      26.955   0.820  52.940  1.00  0.00    -0.086 A 
HETATM   22  C1  UNL     1      28.157  -0.044  53.161  1.00  0.00     0.043 C 
HETATM   23  C16 UNL     1      27.021   2.122  52.251  1.00  0.00     0.044 A 
ENDBRANCH   1  19
TORSDOF 3
ENDMDL
