MODEL 1
REMARK VINA RESULT:      -8.7      0.000      0.000
REMARK  5 active torsions:
REMARK  status: ('A' for Active; 'I' for Inactive)
REMARK    1  A    between atoms: C2_3  and  C10_13 
REMARK    2  A    between atoms: C3_4  and  C4_5 
REMARK    3  A    between atoms: C7_8  and  O1_9 
REMARK    4  A    between atoms: C8_10  and  O2_11 
REMARK    5  A    between atoms: C13_17  and  C14_18 
ROOT
HETATM    1  N1  UNL     1      24.886  -1.309  56.233  1.00  0.00    -0.192 NA
HETATM    2  C1  UNL     1      24.587  -1.002  55.163  1.00  0.00     0.097 C 
HETATM    3  C2  UNL     1      24.201  -0.597  53.821  1.00  0.00     0.057 C 
HETATM    4  C3  UNL     1      25.047  -0.113  52.932  1.00  0.00     0.032 C 
ENDROOT
BRANCH   3   5
HETATM    5  C10 UNL     1      22.768  -0.764  53.488  1.00  0.00     0.273 C 
HETATM    6  N2  UNL     1      22.045  -1.567  54.471  1.00  0.00     0.093 N 
HETATM    7  C11 UNL     1      20.663  -1.192  54.135  1.00  0.00     0.271 C 
HETATM    8  H8  UNL     1      22.227  -1.069  55.391  1.00  0.00     0.316 HD
HETATM    9  C12 UNL     1      20.813   0.321  54.261  1.00  0.00     0.043 C 
HETATM   10  C13 UNL     1      22.024   0.569  53.431  1.00  0.00     0.077 C 
BRANCH  10  11
HETATM   11  C14 UNL     1      21.792   1.065  52.076  1.00  0.00     0.038 C 
HETATM   12  C15 UNL     1      21.557   0.360  50.981  1.00  0.00     0.005 C 
HETATM   13  C16 UNL     1      21.342   1.071  49.669  1.00  0.00     0.058 C 
HETATM   14  C17 UNL     1      20.519   2.277  50.046  1.00  0.00     0.011 C 
HETATM   15  C18 UNL     1      21.181   2.999  50.906  1.00  0.00     0.082 C 
HETATM   16  N3  UNL     1      21.812   2.480  51.877  1.00  0.00    -0.251 NA
ENDBRANCH  10  11
ENDBRANCH   3   5
BRANCH   4  17
HETATM   17  C4  UNL     1      26.477   0.116  53.075  1.00  0.00    -0.032 A 
HETATM   18  C5  UNL     1      27.341  -0.966  53.146  1.00  0.00     0.014 A 
HETATM   19  C6  UNL     1      28.706  -0.923  53.270  1.00  0.00     0.040 A 
HETATM   20  C7  UNL     1      29.253   0.333  53.326  1.00  0.00     0.098 A 
HETATM   21  C8  UNL     1      28.461   1.454  53.261  1.00  0.00     0.099 A 
HETATM   22  C9  UNL     1      27.075   1.355  53.137  1.00  0.00     0.051 A 
BRANCH  20  23
HETATM   23  O1  UNL     1      30.625   0.466  53.451  1.00  0.00    -0.358 OA
HETATM   24  H4  UNL     1      31.102   1.308  53.671  1.00  0.00     0.217 HD
ENDBRANCH  20  23
BRANCH  21  25
HETATM   25  O2  UNL     1      29.088   2.703  53.324  1.00  0.00    -0.358 OA
HETATM   26  H5  UNL     1      29.533   3.064  52.505  1.00  0.00     0.217 HD
ENDBRANCH  21  25
ENDBRANCH   4  17
TORSDOF 5
ENDMDL
MODEL 2
REMARK VINA RESULT:      -8.2      1.817      2.444
REMARK  5 active torsions:
REMARK  status: ('A' for Active; 'I' for Inactive)
REMARK    1  A    between atoms: C2_3  and  C10_13 
REMARK    2  A    between atoms: C3_4  and  C4_5 
REMARK    3  A    between atoms: C7_8  and  O1_9 
REMARK    4  A    between atoms: C8_10  and  O2_11 
REMARK    5  A    between atoms: C13_17  and  C14_18 
ROOT
HETATM    1  N1  UNL     1      23.619  -1.257  55.345  1.00  0.00    -0.192 NA
HETATM    2  C1  UNL     1      23.672  -0.719  54.327  1.00  0.00     0.097 C 
HETATM    3  C2  UNL     1      23.737  -0.022  53.052  1.00  0.00     0.057 C 
HETATM    4  C3  UNL     1      24.852   0.144  52.366  1.00  0.00     0.032 C 
ENDROOT
BRANCH   3   5
HETATM    5  C10 UNL     1      22.450   0.504  52.543  1.00  0.00     0.273 C 
HETATM    6  N2  UNL     1      21.425   0.599  53.579  1.00  0.00     0.093 N 
HETATM    7  C11 UNL     1      20.484   1.517  52.917  1.00  0.00     0.271 C 
HETATM    8  H8  UNL     1      21.877   1.198  54.331  1.00  0.00     0.316 HD
HETATM    9  C12 UNL     1      21.461   2.650  52.621  1.00  0.00     0.043 C 
HETATM   10  C13 UNL     1      22.582   1.916  51.974  1.00  0.00     0.077 C 
BRANCH  10  11
HETATM   11  C14 UNL     1      22.637   1.967  50.515  1.00  0.00     0.038 C 
HETATM   12  C15 UNL     1      21.860   1.336  49.648  1.00  0.00     0.005 C 
HETATM   13  C16 UNL     1      22.084   1.527  48.170  1.00  0.00     0.058 C 
HETATM   14  C17 UNL     1      22.409   2.994  48.044  1.00  0.00     0.011 C 
HETATM   15  C18 UNL     1      23.470   3.263  48.752  1.00  0.00     0.082 C 
HETATM   16  N3  UNL     1      23.637   2.795  49.920  1.00  0.00    -0.251 NA
ENDBRANCH  10  11
ENDBRANCH   3   5
BRANCH   4  17
HETATM   17  C4  UNL     1      26.196  -0.301  52.702  1.00  0.00    -0.032 A 
HETATM   18  C5  UNL     1      27.115   0.609  53.199  1.00  0.00     0.014 A 
HETATM   19  C6  UNL     1      28.411   0.353  53.571  1.00  0.00     0.040 A 
HETATM   20  C7  UNL     1      28.816  -0.949  53.431  1.00  0.00     0.098 A 
HETATM   21  C8  UNL     1      27.961  -1.909  52.945  1.00  0.00     0.099 A 
HETATM   22  C9  UNL     1      26.652  -1.595  52.579  1.00  0.00     0.051 A 
BRANCH  20  23
HETATM   23  O1  UNL     1      30.109  -1.294  53.783  1.00  0.00    -0.358 OA
HETATM   24  H4  UNL     1      30.929  -1.025  53.293  1.00  0.00     0.217 HD
ENDBRANCH  20  23
BRANCH  21  25
HETATM   25  O2  UNL     1      28.443  -3.218  52.829  1.00  0.00    -0.358 OA
HETATM   26  H5  UNL     1      28.069  -3.926  53.427  1.00  0.00     0.217 HD
ENDBRANCH  21  25
ENDBRANCH   4  17
TORSDOF 5
ENDMDL
MODEL 3
REMARK VINA RESULT:      -8.2      2.394      3.737
REMARK  5 active torsions:
REMARK  status: ('A' for Active; 'I' for Inactive)
REMARK    1  A    between atoms: C2_3  and  C10_13 
REMARK    2  A    between atoms: C3_4  and  C4_5 
REMARK    3  A    between atoms: C7_8  and  O1_9 
REMARK    4  A    between atoms: C8_10  and  O2_11 
REMARK    5  A    between atoms: C13_17  and  C14_18 
ROOT
HETATM    1  N1  UNL     1      26.874   2.852  50.825  1.00  0.00    -0.192 NA
HETATM    2  C1  UNL     1      26.160   2.431  51.627  1.00  0.00     0.097 C 
HETATM    3  C2  UNL     1      25.250   1.890  52.624  1.00  0.00     0.057 C 
HETATM    4  C3  UNL     1      25.549   0.876  53.413  1.00  0.00     0.032 C 
ENDROOT
BRANCH   3   5
HETATM    5  C10 UNL     1      23.932   2.558  52.717  1.00  0.00     0.273 C 
HETATM    6  N2  UNL     1      24.021   4.011  52.598  1.00  0.00     0.093 N 
HETATM    7  C11 UNL     1      22.617   4.324  52.287  1.00  0.00     0.271 C 
HETATM    8  H8  UNL     1      24.525   4.162  51.676  1.00  0.00     0.316 HD
HETATM    9  C12 UNL     1      22.455   3.409  51.077  1.00  0.00     0.043 C 
HETATM   10  C13 UNL     1      22.977   2.120  51.607  1.00  0.00     0.077 C 
BRANCH  10  11
HETATM   11  C14 UNL     1      21.980   1.140  52.032  1.00  0.00     0.038 C 
HETATM   12  C15 UNL     1      21.834   0.594  53.228  1.00  0.00     0.005 C 
HETATM   13  C16 UNL     1      20.730  -0.406  53.461  1.00  0.00     0.058 C 
HETATM   14  C17 UNL     1      19.568   0.156  52.683  1.00  0.00     0.011 C 
HETATM   15  C18 UNL     1      19.898   0.256  51.426  1.00  0.00     0.082 C 
HETATM   16  N3  UNL     1      21.029   0.701  51.060  1.00  0.00    -0.251 NA
ENDBRANCH  10  11
ENDBRANCH   3   5
BRANCH   4  17
HETATM   17  C4  UNL     1      26.782   0.105  53.468  1.00  0.00    -0.032 A 
HETATM   18  C5  UNL     1      27.931   0.688  53.979  1.00  0.00     0.014 A 
HETATM   19  C6  UNL     1      29.165   0.101  54.111  1.00  0.00     0.040 A 
HETATM   20  C7  UNL     1      29.244  -1.200  53.687  1.00  0.00     0.098 A 
HETATM   21  C8  UNL     1      28.147  -1.846  53.170  1.00  0.00     0.099 A 
HETATM   22  C9  UNL     1      26.915  -1.202  53.056  1.00  0.00     0.051 A 
BRANCH  20  23
HETATM   23  O1  UNL     1      30.453  -1.867  53.784  1.00  0.00    -0.358 OA
HETATM   24  H4  UNL     1      31.341  -1.482  53.562  1.00  0.00     0.217 HD
ENDBRANCH  20  23
BRANCH  21  25
HETATM   25  O2  UNL     1      28.302  -3.174  52.758  1.00  0.00    -0.358 OA
HETATM   26  H5  UNL     1      28.303  -3.381  51.780  1.00  0.00     0.217 HD
ENDBRANCH  21  25
ENDBRANCH   4  17
TORSDOF 5
ENDMDL
MODEL 4
REMARK VINA RESULT:      -8.1      1.966      3.387
REMARK  5 active torsions:
REMARK  status: ('A' for Active; 'I' for Inactive)
REMARK    1  A    between atoms: C2_3  and  C10_13 
REMARK    2  A    between atoms: C3_4  and  C4_5 
REMARK    3  A    between atoms: C7_8  and  O1_9 
REMARK    4  A    between atoms: C8_10  and  O2_11 
REMARK    5  A    between atoms: C13_17  and  C14_18 
ROOT
HETATM    1  N1  UNL     1      23.889  -0.555  54.073  1.00  0.00    -0.192 NA
HETATM    2  C1  UNL     1      24.393   0.242  53.410  1.00  0.00     0.097 C 
HETATM    3  C2  UNL     1      25.028   1.260  52.588  1.00  0.00     0.057 C 
HETATM    4  C3  UNL     1      26.316   1.269  52.301  1.00  0.00     0.032 C 
ENDROOT
BRANCH   3   5
HETATM    5  C10 UNL     1      24.130   2.316  52.068  1.00  0.00     0.273 C 
HETATM    6  N2  UNL     1      24.851   3.502  51.611  1.00  0.00     0.093 N 
HETATM    7  C11 UNL     1      23.805   4.130  50.789  1.00  0.00     0.271 C 
HETATM    8  H8  UNL     1      25.540   3.122  50.898  1.00  0.00     0.316 HD
HETATM    9  C12 UNL     1      23.509   2.945  49.874  1.00  0.00     0.043 C 
HETATM   10  C13 UNL     1      23.318   1.848  50.862  1.00  0.00     0.077 C 
BRANCH  10  11
HETATM   11  C14 UNL     1      21.936   1.490  51.177  1.00  0.00     0.038 C 
HETATM   12  C15 UNL     1      21.094   0.776  50.447  1.00  0.00     0.005 C 
HETATM   13  C16 UNL     1      19.700   0.517  50.958  1.00  0.00     0.058 C 
HETATM   14  C17 UNL     1      19.898   0.274  52.432  1.00  0.00     0.011 C 
HETATM   15  C18 UNL     1      20.444   1.326  52.974  1.00  0.00     0.082 C 
HETATM   16  N3  UNL     1      21.401   1.949  52.419  1.00  0.00    -0.251 NA
ENDBRANCH  10  11
ENDBRANCH   3   5
BRANCH   4  17
HETATM   17  C4  UNL     1      27.342   0.323  52.714  1.00  0.00    -0.032 A 
HETATM   18  C5  UNL     1      28.491   0.786  53.334  1.00  0.00     0.014 A 
HETATM   19  C6  UNL     1      29.542   0.032  53.792  1.00  0.00     0.040 A 
HETATM   20  C7  UNL     1      29.420  -1.320  53.606  1.00  0.00     0.098 A 
HETATM   21  C8  UNL     1      28.309  -1.855  52.999  1.00  0.00     0.099 A 
HETATM   22  C9  UNL     1      27.267  -1.042  52.550  1.00  0.00     0.051 A 
BRANCH  20  23
HETATM   23  O1  UNL     1      30.436  -2.155  54.038  1.00  0.00    -0.358 OA
HETATM   24  H4  UNL     1      30.894  -2.094  54.917  1.00  0.00     0.217 HD
ENDBRANCH  20  23
BRANCH  21  25
HETATM   25  O2  UNL     1      28.252  -3.244  52.843  1.00  0.00    -0.358 OA
HETATM   26  H5  UNL     1      28.764  -3.824  53.476  1.00  0.00     0.217 HD
ENDBRANCH  21  25
ENDBRANCH   4  17
TORSDOF 5
ENDMDL
MODEL 5
REMARK VINA RESULT:      -8.1      1.790      3.637
REMARK  5 active torsions:
REMARK  status: ('A' for Active; 'I' for Inactive)
REMARK    1  A    between atoms: C2_3  and  C10_13 
REMARK    2  A    between atoms: C3_4  and  C4_5 
REMARK    3  A    between atoms: C7_8  and  O1_9 
REMARK    4  A    between atoms: C8_10  and  O2_11 
REMARK    5  A    between atoms: C13_17  and  C14_18 
ROOT
HETATM    1  N1  UNL     1      26.258   3.470  50.214  1.00  0.00    -0.192 NA
HETATM    2  C1  UNL     1      25.618   2.876  50.966  1.00  0.00     0.097 C 
HETATM    3  C2  UNL     1      24.806   2.114  51.901  1.00  0.00     0.057 C 
HETATM    4  C3  UNL     1      25.308   1.337  52.841  1.00  0.00     0.032 C 
ENDROOT
BRANCH   3   5
HETATM    5  C10 UNL     1      23.341   2.260  51.744  1.00  0.00     0.273 C 
HETATM    6  N2  UNL     1      22.972   3.239  50.724  1.00  0.00     0.093 N 
HETATM    7  C11 UNL     1      21.572   2.850  50.496  1.00  0.00     0.271 C 
HETATM    8  H8  UNL     1      23.476   2.901  49.852  1.00  0.00     0.316 HD
HETATM    9  C12 UNL     1      21.808   1.378  50.174  1.00  0.00     0.043 C 
HETATM   10  C13 UNL     1      22.667   0.958  51.314  1.00  0.00     0.077 C 
BRANCH  10  11
HETATM   11  C14 UNL     1      22.002   0.244  52.402  1.00  0.00     0.038 C 
HETATM   12  C15 UNL     1      22.343  -0.915  52.943  1.00  0.00     0.005 C 
HETATM   13  C16 UNL     1      21.516  -1.484  54.068  1.00  0.00     0.058 C 
HETATM   14  C17 UNL     1      21.164  -0.278  54.900  1.00  0.00     0.011 C 
HETATM   15  C18 UNL     1      20.500   0.572  54.168  1.00  0.00     0.082 C 
HETATM   16  N3  UNL     1      20.842   0.847  52.977  1.00  0.00    -0.251 NA
ENDBRANCH  10  11
ENDBRANCH   3   5
BRANCH   4  17
HETATM   17  C4  UNL     1      26.707   1.075  53.147  1.00  0.00    -0.032 A 
HETATM   18  C5  UNL     1      27.256  -0.159  52.835  1.00  0.00     0.014 A 
HETATM   19  C6  UNL     1      28.551  -0.561  53.045  1.00  0.00     0.040 A 
HETATM   20  C7  UNL     1      29.370   0.373  53.624  1.00  0.00     0.098 A 
HETATM   21  C8  UNL     1      28.898   1.619  53.961  1.00  0.00     0.099 A 
HETATM   22  C9  UNL     1      27.570   1.978  53.727  1.00  0.00     0.051 A 
BRANCH  20  23
HETATM   23  O1  UNL     1      30.693   0.049  53.871  1.00  0.00    -0.358 OA
HETATM   24  H4  UNL     1      31.344   0.624  54.351  1.00  0.00     0.217 HD
ENDBRANCH  20  23
BRANCH  21  25
HETATM   25  O2  UNL     1      29.791   2.522  54.548  1.00  0.00    -0.358 OA
HETATM   26  H5  UNL     1      30.040   2.401  55.509  1.00  0.00     0.217 HD
ENDBRANCH  21  25
ENDBRANCH   4  17
TORSDOF 5
ENDMDL
MODEL 6
REMARK VINA RESULT:      -8.0      2.518      4.192
REMARK  5 active torsions:
REMARK  status: ('A' for Active; 'I' for Inactive)
REMARK    1  A    between atoms: C2_3  and  C10_13 
REMARK    2  A    between atoms: C3_4  and  C4_5 
REMARK    3  A    between atoms: C7_8  and  O1_9 
REMARK    4  A    between atoms: C8_10  and  O2_11 
REMARK    5  A    between atoms: C13_17  and  C14_18 
ROOT
HETATM    1  N1  UNL     1      27.135   3.722  49.505  1.00  0.00    -0.192 NA
HETATM    2  C1  UNL     1      26.196   3.321  50.041  1.00  0.00     0.097 C 
HETATM    3  C2  UNL     1      25.009   2.802  50.702  1.00  0.00     0.057 C 
HETATM    4  C3  UNL     1      25.047   1.981  51.734  1.00  0.00     0.032 C 
ENDROOT
BRANCH   3   5
HETATM    5  C10 UNL     1      23.715   3.257  50.144  1.00  0.00     0.273 C 
HETATM    6  N2  UNL     1      23.872   4.141  48.992  1.00  0.00     0.093 N 
HETATM    7  C11 UNL     1      22.517   4.055  48.424  1.00  0.00     0.271 C 
HETATM    8  H8  UNL     1      24.466   3.576  48.316  1.00  0.00     0.316 HD
HETATM    9  C12 UNL     1      22.435   2.538  48.291  1.00  0.00     0.043 C 
HETATM   10  C13 UNL     1      22.854   2.097  49.649  1.00  0.00     0.077 C 
BRANCH  10  11
HETATM   11  C14 UNL     1      21.783   1.715  50.568  1.00  0.00     0.038 C 
HETATM   12  C15 UNL     1      21.250   0.517  50.744  1.00  0.00     0.005 C 
HETATM   13  C16 UNL     1      20.145   0.333  51.753  1.00  0.00     0.058 C 
HETATM   14  C17 UNL     1      20.565   1.207  52.907  1.00  0.00     0.011 C 
HETATM   15  C18 UNL     1      20.672   2.440  52.498  1.00  0.00     0.082 C 
HETATM   16  N3  UNL     1      21.226   2.738  51.396  1.00  0.00    -0.251 NA
ENDBRANCH  10  11
ENDBRANCH   3   5
BRANCH   4  17
HETATM   17  C4  UNL     1      26.212   1.435  52.414  1.00  0.00    -0.032 A 
HETATM   18  C5  UNL     1      26.534   0.096  52.254  1.00  0.00     0.014 A 
HETATM   19  C6  UNL     1      27.597  -0.568  52.811  1.00  0.00     0.040 A 
HETATM   20  C7  UNL     1      28.414   0.192  53.606  1.00  0.00     0.098 A 
HETATM   21  C8  UNL     1      28.161   1.527  53.812  1.00  0.00     0.099 A 
HETATM   22  C9  UNL     1      27.064   2.156  53.222  1.00  0.00     0.051 A 
BRANCH  20  23
HETATM   23  O1  UNL     1      29.510  -0.401  54.208  1.00  0.00    -0.358 OA
HETATM   24  H4  UNL     1      29.477  -0.990  55.007  1.00  0.00     0.217 HD
ENDBRANCH  20  23
BRANCH  21  25
HETATM   25  O2  UNL     1      29.038   2.241  54.635  1.00  0.00    -0.358 OA
HETATM   26  H5  UNL     1      30.018   2.051  54.579  1.00  0.00     0.217 HD
ENDBRANCH  21  25
ENDBRANCH   4  17
TORSDOF 5
ENDMDL
MODEL 7
REMARK VINA RESULT:      -7.8      3.437      4.666
REMARK  5 active torsions:
REMARK  status: ('A' for Active; 'I' for Inactive)
REMARK    1  A    between atoms: C2_3  and  C10_13 
REMARK    2  A    between atoms: C3_4  and  C4_5 
REMARK    3  A    between atoms: C7_8  and  O1_9 
REMARK    4  A    between atoms: C8_10  and  O2_11 
REMARK    5  A    between atoms: C13_17  and  C14_18 
ROOT
HETATM    1  N1  UNL     1      23.252   0.638  53.380  1.00  0.00    -0.192 NA
HETATM    2  C1  UNL     1      23.877   1.195  52.587  1.00  0.00     0.097 C 
HETATM    3  C2  UNL     1      24.665   1.912  51.598  1.00  0.00     0.057 C 
HETATM    4  C3  UNL     1      25.960   1.729  51.422  1.00  0.00     0.032 C 
ENDROOT
BRANCH   3   5
HETATM    5  C10 UNL     1      23.919   2.886  50.768  1.00  0.00     0.273 C 
HETATM    6  N2  UNL     1      22.472   2.696  50.831  1.00  0.00     0.093 N 
HETATM    7  C11 UNL     1      22.026   4.000  50.315  1.00  0.00     0.271 C 
HETATM    8  H8  UNL     1      22.253   2.745  51.868  1.00  0.00     0.316 HD
HETATM    9  C12 UNL     1      22.781   4.890  51.297  1.00  0.00     0.043 C 
HETATM   10  C13 UNL     1      24.156   4.329  51.209  1.00  0.00     0.077 C 
BRANCH  10  11
HETATM   11  C14 UNL     1      25.105   5.060  50.371  1.00  0.00     0.038 C 
HETATM   12  C15 UNL     1      25.935   4.570  49.464  1.00  0.00     0.005 C 
HETATM   13  C16 UNL     1      26.839   5.504  48.700  1.00  0.00     0.058 C 
HETATM   14  C17 UNL     1      25.970   6.706  48.434  1.00  0.00     0.011 C 
HETATM   15  C18 UNL     1      25.571   7.209  49.568  1.00  0.00     0.082 C 
HETATM   16  N3  UNL     1      25.164   6.480  50.523  1.00  0.00    -0.251 NA
ENDBRANCH  10  11
ENDBRANCH   3   5
BRANCH   4  17
HETATM   17  C4  UNL     1      26.850   0.823  52.132  1.00  0.00    -0.032 A 
HETATM   18  C5  UNL     1      27.905   1.337  52.869  1.00  0.00     0.014 A 
HETATM   19  C6  UNL     1      28.823   0.626  53.600  1.00  0.00     0.040 A 
HETATM   20  C7  UNL     1      28.660  -0.735  53.586  1.00  0.00     0.098 A 
HETATM   21  C8  UNL     1      27.637  -1.318  52.878  1.00  0.00     0.099 A 
HETATM   22  C9  UNL     1      26.729  -0.549  52.149  1.00  0.00     0.051 A 
BRANCH  20  23
HETATM   23  O1  UNL     1      29.543  -1.527  54.297  1.00  0.00    -0.358 OA
HETATM   24  H4  UNL     1      29.798  -2.457  54.060  1.00  0.00     0.217 HD
ENDBRANCH  20  23
BRANCH  21  25
HETATM   25  O2  UNL     1      27.530  -2.713  52.909  1.00  0.00    -0.358 OA
HETATM   26  H5  UNL     1      28.012  -3.251  52.217  1.00  0.00     0.217 HD
ENDBRANCH  21  25
ENDBRANCH   4  17
TORSDOF 5
ENDMDL
MODEL 8
REMARK VINA RESULT:      -7.8      2.479      3.966
REMARK  5 active torsions:
REMARK  status: ('A' for Active; 'I' for Inactive)
REMARK    1  A    between atoms: C2_3  and  C10_13 
REMARK    2  A    between atoms: C3_4  and  C4_5 
REMARK    3  A    between atoms: C7_8  and  O1_9 
REMARK    4  A    between atoms: C8_10  and  O2_11 
REMARK    5  A    between atoms: C13_17  and  C14_18 
ROOT
HETATM    1  N1  UNL     1      23.419   0.370  53.515  1.00  0.00    -0.192 NA
HETATM    2  C1  UNL     1      24.056   1.062  52.849  1.00  0.00     0.097 C 
HETATM    3  C2  UNL     1      24.859   1.950  52.023  1.00  0.00     0.057 C 
HETATM    4  C3  UNL     1      26.152   1.786  51.818  1.00  0.00     0.032 C 
ENDROOT
BRANCH   3   5
HETATM    5  C10 UNL     1      24.131   3.078  51.399  1.00  0.00     0.273 C 
HETATM    6  N2  UNL     1      24.679   4.381  51.765  1.00  0.00     0.093 N 
HETATM    7  C11 UNL     1      24.084   5.211  50.705  1.00  0.00     0.271 C 
HETATM    8  H8  UNL     1      25.703   4.314  51.490  1.00  0.00     0.316 HD
HETATM    9  C12 UNL     1      24.585   4.417  49.503  1.00  0.00     0.043 C 
HETATM   10  C13 UNL     1      24.183   3.032  49.873  1.00  0.00     0.077 C 
BRANCH  10  11
HETATM   11  C14 UNL     1      22.964   2.521  49.250  1.00  0.00     0.038 C 
HETATM   12  C15 UNL     1      22.159   1.571  49.697  1.00  0.00     0.005 C 
HETATM   13  C16 UNL     1      20.940   1.188  48.896  1.00  0.00     0.058 C 
HETATM   14  C17 UNL     1      20.424   2.506  48.378  1.00  0.00     0.011 C 
HETATM   15  C18 UNL     1      21.345   3.074  47.651  1.00  0.00     0.082 C 
HETATM   16  N3  UNL     1      22.564   3.100  48.007  1.00  0.00    -0.251 NA
ENDBRANCH  10  11
ENDBRANCH   3   5
BRANCH   4  17
HETATM   17  C4  UNL     1      27.026   0.746  52.338  1.00  0.00    -0.032 A 
HETATM   18  C5  UNL     1      28.175   1.099  53.030  1.00  0.00     0.014 A 
HETATM   19  C6  UNL     1      29.094   0.248  53.590  1.00  0.00     0.040 A 
HETATM   20  C7  UNL     1      28.826  -1.088  53.439  1.00  0.00     0.098 A 
HETATM   21  C8  UNL     1      27.707  -1.515  52.767  1.00  0.00     0.099 A 
HETATM   22  C9  UNL     1      26.803  -0.607  52.214  1.00  0.00     0.051 A 
BRANCH  20  23
HETATM   23  O1  UNL     1      29.703  -2.015  53.974  1.00  0.00    -0.358 OA
HETATM   24  H4  UNL     1      29.479  -2.675  54.681  1.00  0.00     0.217 HD
ENDBRANCH  20  23
BRANCH  21  25
HETATM   25  O2  UNL     1      27.497  -2.894  52.652  1.00  0.00    -0.358 OA
HETATM   26  H5  UNL     1      27.787  -3.492  53.399  1.00  0.00     0.217 HD
ENDBRANCH  21  25
ENDBRANCH   4  17
TORSDOF 5
ENDMDL
MODEL 9
REMARK VINA RESULT:      -7.7      3.703      5.997
REMARK  5 active torsions:
REMARK  status: ('A' for Active; 'I' for Inactive)
REMARK    1  A    between atoms: C2_3  and  C10_13 
REMARK    2  A    between atoms: C3_4  and  C4_5 
REMARK    3  A    between atoms: C7_8  and  O1_9 
REMARK    4  A    between atoms: C8_10  and  O2_11 
REMARK    5  A    between atoms: C13_17  and  C14_18 
ROOT
HETATM    1  N1  UNL     1      20.471   3.191  52.718  1.00  0.00    -0.192 NA
HETATM    2  C1  UNL     1      21.333   2.848  52.033  1.00  0.00     0.097 C 
HETATM    3  C2  UNL     1      22.432   2.430  51.176  1.00  0.00     0.057 C 
HETATM    4  C3  UNL     1      23.237   1.424  51.458  1.00  0.00     0.032 C 
ENDROOT
BRANCH   3   5
HETATM    5  C10 UNL     1      22.605   3.211  49.930  1.00  0.00     0.273 C 
HETATM    6  N2  UNL     1      21.351   3.416  49.208  1.00  0.00     0.093 N 
HETATM    7  C11 UNL     1      21.745   4.530  48.332  1.00  0.00     0.271 C 
HETATM    8  H8  UNL     1      20.714   3.870  49.926  1.00  0.00     0.316 HD
HETATM    9  C12 UNL     1      22.237   5.489  49.411  1.00  0.00     0.043 C 
HETATM   10  C13 UNL     1      23.152   4.613  50.193  1.00  0.00     0.077 C 
BRANCH  10  11
HETATM   11  C14 UNL     1      24.581   4.756  49.919  1.00  0.00     0.038 C 
HETATM   12  C15 UNL     1      25.427   3.826  49.505  1.00  0.00     0.005 C 
HETATM   13  C16 UNL     1      26.874   4.182  49.279  1.00  0.00     0.058 C 
HETATM   14  C17 UNL     1      26.812   5.553  48.655  1.00  0.00     0.011 C 
HETATM   15  C18 UNL     1      26.214   6.373  49.473  1.00  0.00     0.082 C 
HETATM   16  N3  UNL     1      25.164   6.046  50.107  1.00  0.00    -0.251 NA
ENDBRANCH  10  11
ENDBRANCH   3   5
BRANCH   4  17
HETATM   17  C4  UNL     1      23.218   0.548  52.620  1.00  0.00    -0.032 A 
HETATM   18  C5  UNL     1      22.022  -0.018  53.032  1.00  0.00     0.014 A 
HETATM   19  C6  UNL     1      21.835  -0.868  54.093  1.00  0.00     0.040 A 
HETATM   20  C7  UNL     1      22.964  -1.176  54.806  1.00  0.00     0.098 A 
HETATM   21  C8  UNL     1      24.187  -0.654  54.457  1.00  0.00     0.099 A 
HETATM   22  C9  UNL     1      24.323   0.208  53.368  1.00  0.00     0.051 A 
BRANCH  20  23
HETATM   23  O1  UNL     1      22.864  -2.027  55.893  1.00  0.00    -0.358 OA
HETATM   24  H4  UNL     1      23.596  -2.600  56.242  1.00  0.00     0.217 HD
ENDBRANCH  20  23
BRANCH  21  25
HETATM   25  O2  UNL     1      25.297  -1.013  55.230  1.00  0.00    -0.358 OA
HETATM   26  H5  UNL     1      25.582  -1.971  55.252  1.00  0.00     0.217 HD
ENDBRANCH  21  25
ENDBRANCH   4  17
TORSDOF 5
ENDMDL
