MODEL 1
REMARK VINA RESULT:      -8.0      0.000      0.000
REMARK  1 active torsions:
REMARK  status: ('A' for Active; 'I' for Inactive)
REMARK    1  A    between atoms: C11_15  and  O2_16 
ROOT
HETATM    1  C1  UNL     1      27.232   6.633  48.086  1.00  0.00     0.039 C 
HETATM    2  C2  UNL     1      27.145   5.290  48.704  1.00  0.00     0.007 C 
HETATM    3  C3  UNL     1      26.584   4.282  49.330  1.00  0.00     0.081 C 
HETATM    4  O1  UNL     1      27.024   2.966  49.763  1.00  0.00    -0.290 OA
HETATM    5  C4  UNL     1      26.591   2.596  51.083  1.00  0.00     0.202 A 
HETATM    6  N1  UNL     1      27.480   2.363  52.095  1.00  0.00    -0.215 NA
HETATM    7  C5  UNL     1      26.983   2.038  53.299  1.00  0.00     0.238 A 
HETATM    8  N2  UNL     1      25.653   1.922  53.591  1.00  0.00    -0.222 NA
HETATM    9  C6  UNL     1      24.749   2.149  52.593  1.00  0.00     0.160 A 
HETATM   10  C7  UNL     1      25.206   2.488  51.314  1.00  0.00     0.129 A 
HETATM   11  N3  UNL     1      24.080   2.629  50.406  1.00  0.00    -0.379 N 
HETATM   12  C8  UNL     1      24.045   3.649  49.343  1.00  0.00     0.161 C 
HETATM   13  C9  UNL     1      25.161   4.635  49.647  1.00  0.00    -0.008 C 
HETATM   14  C10 UNL     1      24.983   5.814  50.217  1.00  0.00     0.021 C 
HETATM   15  C11 UNL     1      23.553   6.095  50.510  1.00  0.00     0.174 C 
HETATM   16  C13 UNL     1      23.007   5.094  51.484  1.00  0.00    -0.029 C 
HETATM   17  C14 UNL     1      23.492   4.599  52.562  1.00  0.00     0.005 C 
HETATM   18  C15 UNL     1      22.921   3.440  52.461  1.00  0.00     0.026 C 
HETATM   19  C16 UNL     1      21.859   4.220  51.819  1.00  0.00     0.096 C 
HETATM   20  N4  UNL     1      23.333   2.114  52.868  1.00  0.00    -0.341 N 
HETATM   21  H6  UNL     1      23.269   1.990  50.503  1.00  0.00     0.160 HD
HETATM   22  H16 UNL     1      22.634   1.461  53.234  1.00  0.00     0.167 HD
ENDROOT
BRANCH  15  23
HETATM   23  O2  UNL     1      23.491   7.397  50.990  1.00  0.00    -0.382 OA
HETATM   24  C12 UNL     1      24.303   8.294  50.352  1.00  0.00     0.202 C 
ENDBRANCH  15  23
TORSDOF 1
ENDMDL
MODEL 2
REMARK VINA RESULT:      -7.9      2.513      4.830
REMARK  1 active torsions:
REMARK  status: ('A' for Active; 'I' for Inactive)
REMARK    1  A    between atoms: C11_15  and  O2_16 
ROOT
HETATM    1  C1  UNL     1      20.111   0.385  51.365  1.00  0.00     0.039 C 
HETATM    2  C2  UNL     1      21.341   0.406  52.189  1.00  0.00     0.007 C 
HETATM    3  C3  UNL     1      22.519   0.825  52.591  1.00  0.00     0.081 C 
HETATM    4  O1  UNL     1      23.455   0.420  53.627  1.00  0.00    -0.290 OA
HETATM    5  C4  UNL     1      24.831   0.396  53.211  1.00  0.00     0.202 A 
HETATM    6  N1  UNL     1      25.561  -0.758  53.195  1.00  0.00    -0.215 NA
HETATM    7  C5  UNL     1      26.835  -0.686  52.776  1.00  0.00     0.238 A 
HETATM    8  N2  UNL     1      27.459   0.457  52.364  1.00  0.00    -0.222 NA
HETATM    9  C6  UNL     1      26.747   1.623  52.373  1.00  0.00     0.160 A 
HETATM   10  C7  UNL     1      25.415   1.612  52.804  1.00  0.00     0.129 A 
HETATM   11  N3  UNL     1      24.876   2.962  52.782  1.00  0.00    -0.379 N 
HETATM   12  C8  UNL     1      23.482   3.250  52.400  1.00  0.00     0.161 C 
HETATM   13  C9  UNL     1      22.938   1.990  51.746  1.00  0.00    -0.008 C 
HETATM   14  C10 UNL     1      22.827   1.812  50.441  1.00  0.00     0.021 C 
HETATM   15  C11 UNL     1      23.268   3.002  49.665  1.00  0.00     0.174 C 
HETATM   16  C13 UNL     1      24.721   3.282  49.907  1.00  0.00    -0.029 C 
HETATM   17  C14 UNL     1      25.741   2.508  49.967  1.00  0.00     0.005 C 
HETATM   18  C15 UNL     1      26.408   3.212  50.828  1.00  0.00     0.026 C 
HETATM   19  C16 UNL     1      25.734   4.332  50.164  1.00  0.00     0.096 C 
HETATM   20  N4  UNL     1      27.336   2.843  51.876  1.00  0.00    -0.341 N 
HETATM   21  H6  UNL     1      25.489   3.756  53.046  1.00  0.00     0.160 HD
HETATM   22  H16 UNL     1      28.147   3.438  52.060  1.00  0.00     0.167 HD
ENDROOT
BRANCH  15  23
HETATM   23  O2  UNL     1      22.990   2.734  48.331  1.00  0.00    -0.382 OA
HETATM   24  C12 UNL     1      22.072   1.744  48.113  1.00  0.00     0.202 C 
ENDBRANCH  15  23
TORSDOF 1
ENDMDL
MODEL 3
REMARK VINA RESULT:      -7.0      5.922      8.468
REMARK  1 active torsions:
REMARK  status: ('A' for Active; 'I' for Inactive)
REMARK    1  A    between atoms: C11_15  and  O2_16 
ROOT
HETATM    1  C1  UNL     1      33.100  11.514  46.446  1.00  0.00     0.039 C 
HETATM    2  C2  UNL     1      32.004  11.450  47.439  1.00  0.00     0.007 C 
HETATM    3  C3  UNL     1      31.097  10.886  48.204  1.00  0.00     0.081 C 
HETATM    4  O1  UNL     1      30.111  11.368  49.157  1.00  0.00    -0.290 OA
HETATM    5  C4  UNL     1      28.823  10.739  49.053  1.00  0.00     0.202 A 
HETATM    6  N1  UNL     1      27.700  11.444  48.724  1.00  0.00    -0.215 NA
HETATM    7  C5  UNL     1      26.542  10.770  48.635  1.00  0.00     0.238 A 
HETATM    8  N2  UNL     1      26.401   9.427  48.848  1.00  0.00    -0.222 NA
HETATM    9  C6  UNL     1      27.512   8.704  49.177  1.00  0.00     0.160 A 
HETATM   10  C7  UNL     1      28.747   9.353  49.290  1.00  0.00     0.129 A 
HETATM   11  N3  UNL     1      29.770   8.405  49.701  1.00  0.00    -0.379 N 
HETATM   12  C8  UNL     1      31.152   8.465  49.193  1.00  0.00     0.161 C 
HETATM   13  C9  UNL     1      31.138   9.401  47.996  1.00  0.00    -0.008 C 
HETATM   14  C10 UNL     1      31.129   9.005  46.736  1.00  0.00     0.021 C 
HETATM   15  C11 UNL     1      31.162   7.524  46.605  1.00  0.00     0.174 C 
HETATM   16  C13 UNL     1      29.943   6.910  47.225  1.00  0.00    -0.029 C 
HETATM   17  C14 UNL     1      28.704   7.236  47.176  1.00  0.00     0.005 C 
HETATM   18  C15 UNL     1      28.394   6.812  48.361  1.00  0.00     0.026 C 
HETATM   19  C16 UNL     1      29.430   5.814  48.078  1.00  0.00     0.096 C 
HETATM   20  N4  UNL     1      27.431   7.272  49.338  1.00  0.00    -0.341 N 
HETATM   21  H6  UNL     1      29.524   7.658  50.377  1.00  0.00     0.160 HD
HETATM   22  H16 UNL     1      26.923   6.587  49.904  1.00  0.00     0.167 HD
ENDROOT
BRANCH  15  23
HETATM   23  O2  UNL     1      31.270   7.245  45.248  1.00  0.00    -0.382 OA
HETATM   24  C12 UNL     1      31.323   8.339  44.429  1.00  0.00     0.202 C 
ENDBRANCH  15  23
TORSDOF 1
ENDMDL
MODEL 4
REMARK VINA RESULT:      -6.8      2.492      5.136
REMARK  1 active torsions:
REMARK  status: ('A' for Active; 'I' for Inactive)
REMARK    1  A    between atoms: C11_15  and  O2_16 
ROOT
HETATM    1  C1  UNL     1      26.896   3.897  49.387  1.00  0.00     0.039 C 
HETATM    2  C2  UNL     1      25.471   3.802  49.779  1.00  0.00     0.007 C 
HETATM    3  C3  UNL     1      24.438   3.432  50.501  1.00  0.00     0.081 C 
HETATM    4  O1  UNL     1      23.003   3.655  50.433  1.00  0.00    -0.290 OA
HETATM    5  C4  UNL     1      22.205   2.488  50.692  1.00  0.00     0.202 A 
HETATM    6  N1  UNL     1      21.376   1.955  49.746  1.00  0.00    -0.215 NA
HETATM    7  C5  UNL     1      20.681   0.854  50.073  1.00  0.00     0.238 A 
HETATM    8  N2  UNL     1      20.739   0.223  51.284  1.00  0.00    -0.222 NA
HETATM    9  C6  UNL     1      21.561   0.740  52.244  1.00  0.00     0.160 A 
HETATM   10  C7  UNL     1      22.309   1.890  51.964  1.00  0.00     0.129 A 
HETATM   11  N3  UNL     1      23.063   2.290  53.140  1.00  0.00    -0.379 N 
HETATM   12  C8  UNL     1      24.423   2.854  53.052  1.00  0.00     0.161 C 
HETATM   13  C9  UNL     1      24.918   2.584  51.641  1.00  0.00    -0.008 C 
HETATM   14  C10 UNL     1      25.746   1.608  51.313  1.00  0.00     0.021 C 
HETATM   15  C11 UNL     1      26.173   0.804  52.488  1.00  0.00     0.174 C 
HETATM   16  C13 UNL     1      24.995   0.130  53.125  1.00  0.00    -0.029 C 
HETATM   17  C14 UNL     1      23.994  -0.493  52.623  1.00  0.00     0.005 C 
HETATM   18  C15 UNL     1      23.142  -0.171  53.546  1.00  0.00     0.026 C 
HETATM   19  C16 UNL     1      24.331  -0.213  54.403  1.00  0.00     0.096 C 
HETATM   20  N4  UNL     1      21.716   0.069  53.512  1.00  0.00    -0.341 N 
HETATM   21  H6  UNL     1      22.635   2.178  54.078  1.00  0.00     0.160 HD
HETATM   22  H16 UNL     1      21.136  -0.239  54.297  1.00  0.00     0.167 HD
ENDROOT
BRANCH  15  23
HETATM   23  O2  UNL     1      27.123  -0.100  52.030  1.00  0.00    -0.382 OA
HETATM   24  C12 UNL     1      27.784  -0.797  53.005  1.00  0.00     0.202 C 
ENDBRANCH  15  23
TORSDOF 1
ENDMDL
MODEL 5
REMARK VINA RESULT:      -6.8      2.815      4.104
REMARK  1 active torsions:
REMARK  status: ('A' for Active; 'I' for Inactive)
REMARK    1  A    between atoms: C11_15  and  O2_16 
ROOT
HETATM    1  C1  UNL     1      27.254   2.196  52.332  1.00  0.00     0.039 C 
HETATM    2  C2  UNL     1      26.082   1.294  52.404  1.00  0.00     0.007 C 
HETATM    3  C3  UNL     1      24.834   0.919  52.246  1.00  0.00     0.081 C 
HETATM    4  O1  UNL     1      24.077  -0.287  52.540  1.00  0.00    -0.290 OA
HETATM    5  C4  UNL     1      22.778  -0.051  53.110  1.00  0.00     0.202 A 
HETATM    6  N1  UNL     1      22.453  -0.481  54.366  1.00  0.00    -0.215 NA
HETATM    7  C5  UNL     1      21.221  -0.202  54.821  1.00  0.00     0.238 A 
HETATM    8  N2  UNL     1      20.265   0.481  54.123  1.00  0.00    -0.222 NA
HETATM    9  C6  UNL     1      20.571   0.919  52.866  1.00  0.00     0.160 A 
HETATM   10  C7  UNL     1      21.838   0.654  52.334  1.00  0.00     0.129 A 
HETATM   11  N3  UNL     1      21.921   1.160  50.974  1.00  0.00    -0.379 N 
HETATM   12  C8  UNL     1      23.151   1.763  50.429  1.00  0.00     0.161 C 
HETATM   13  C9  UNL     1      24.064   2.039  51.612  1.00  0.00    -0.008 C 
HETATM   14  C10 UNL     1      24.223   3.224  52.174  1.00  0.00     0.021 C 
HETATM   15  C11 UNL     1      23.426   4.285  51.502  1.00  0.00     0.174 C 
HETATM   16  C13 UNL     1      21.959   3.988  51.604  1.00  0.00    -0.029 C 
HETATM   17  C14 UNL     1      21.237   3.575  52.580  1.00  0.00     0.005 C 
HETATM   18  C15 UNL     1      20.384   2.914  51.861  1.00  0.00     0.026 C 
HETATM   19  C16 UNL     1      20.667   3.968  50.881  1.00  0.00     0.096 C 
HETATM   20  N4  UNL     1      19.624   1.710  52.117  1.00  0.00    -0.341 N 
HETATM   21  H6  UNL     1      21.089   1.096  50.359  1.00  0.00     0.160 HD
HETATM   22  H16 UNL     1      18.666   1.637  51.765  1.00  0.00     0.167 HD
ENDROOT
BRANCH  15  23
HETATM   23  O2  UNL     1      23.771   5.487  52.105  1.00  0.00    -0.382 OA
HETATM   24  C12 UNL     1      23.924   6.546  51.252  1.00  0.00     0.202 C 
ENDBRANCH  15  23
TORSDOF 1
ENDMDL
MODEL 6
REMARK VINA RESULT:      -6.7      6.805      9.355
REMARK  1 active torsions:
REMARK  status: ('A' for Active; 'I' for Inactive)
REMARK    1  A    between atoms: C11_15  and  O2_16 
ROOT
HETATM    1  C1  UNL     1      27.894   8.133  47.093  1.00  0.00     0.039 C 
HETATM    2  C2  UNL     1      28.761   7.003  47.500  1.00  0.00     0.007 C 
HETATM    3  C3  UNL     1      29.859   6.406  47.901  1.00  0.00     0.081 C 
HETATM    4  O1  UNL     1      30.234   5.033  48.198  1.00  0.00    -0.290 OA
HETATM    5  C4  UNL     1      31.521   4.643  47.690  1.00  0.00     0.202 A 
HETATM    6  N1  UNL     1      31.659   3.653  46.759  1.00  0.00    -0.215 NA
HETATM    7  C5  UNL     1      32.899   3.367  46.331  1.00  0.00     0.238 A 
HETATM    8  N2  UNL     1      34.037   3.992  46.757  1.00  0.00    -0.222 NA
HETATM    9  C6  UNL     1      33.921   4.985  47.689  1.00  0.00     0.160 A 
HETATM   10  C7  UNL     1      32.654   5.325  48.177  1.00  0.00     0.129 A 
HETATM   11  N3  UNL     1      32.774   6.359  49.190  1.00  0.00    -0.379 N 
HETATM   12  C8  UNL     1      31.787   7.445  49.332  1.00  0.00     0.161 C 
HETATM   13  C9  UNL     1      30.939   7.433  48.071  1.00  0.00    -0.008 C 
HETATM   14  C10 UNL     1      31.096   8.264  47.056  1.00  0.00     0.021 C 
HETATM   15  C11 UNL     1      32.187   9.247  47.288  1.00  0.00     0.174 C 
HETATM   16  C13 UNL     1      33.505   8.549  47.439  1.00  0.00    -0.029 C 
HETATM   17  C14 UNL     1      34.040   7.584  46.787  1.00  0.00     0.005 C 
HETATM   18  C15 UNL     1      34.703   7.083  47.783  1.00  0.00     0.026 C 
HETATM   19  C16 UNL     1      34.769   8.485  48.208  1.00  0.00     0.096 C 
HETATM   20  N4  UNL     1      35.082   5.727  48.115  1.00  0.00    -0.341 N 
HETATM   21  H6  UNL     1      33.580   6.337  49.842  1.00  0.00     0.160 HD
HETATM   22  H16 UNL     1      35.995   5.552  48.543  1.00  0.00     0.167 HD
ENDROOT
BRANCH  15  23
HETATM   23  O2  UNL     1      32.168  10.127  46.213  1.00  0.00    -0.382 OA
HETATM   24  C12 UNL     1      32.763  11.338  46.439  1.00  0.00     0.202 C 
ENDBRANCH  15  23
TORSDOF 1
ENDMDL
MODEL 7
REMARK VINA RESULT:      -6.6      2.283      4.484
REMARK  1 active torsions:
REMARK  status: ('A' for Active; 'I' for Inactive)
REMARK    1  A    between atoms: C11_15  and  O2_16 
ROOT
HETATM    1  C1  UNL     1      28.002   5.272  48.599  1.00  0.00     0.039 C 
HETATM    2  C2  UNL     1      26.538   5.487  48.547  1.00  0.00     0.007 C 
HETATM    3  C3  UNL     1      25.287   5.380  48.930  1.00  0.00     0.081 C 
HETATM    4  O1  UNL     1      24.013   5.875  48.433  1.00  0.00    -0.290 OA
HETATM    5  C4  UNL     1      22.949   4.909  48.452  1.00  0.00     0.202 A 
HETATM    6  N1  UNL     1      22.340   4.483  47.306  1.00  0.00    -0.215 NA
HETATM    7  C5  UNL     1      21.365   3.566  47.420  1.00  0.00     0.238 A 
HETATM    8  N2  UNL     1      20.935   3.025  48.599  1.00  0.00    -0.222 NA
HETATM    9  C6  UNL     1      21.531   3.438  49.756  1.00  0.00     0.160 A 
HETATM   10  C7  UNL     1      22.550   4.395  49.702  1.00  0.00     0.129 A 
HETATM   11  N3  UNL     1      22.996   4.722  51.046  1.00  0.00    -0.379 N 
HETATM   12  C8  UNL     1      24.408   5.001  51.364  1.00  0.00     0.161 C 
HETATM   13  C9  UNL     1      25.225   4.539  50.169  1.00  0.00    -0.008 C 
HETATM   14  C10 UNL     1      25.890   3.398  50.113  1.00  0.00     0.021 C 
HETATM   15  C11 UNL     1      25.779   2.612  51.371  1.00  0.00     0.174 C 
HETATM   16  C13 UNL     1      24.352   2.230  51.631  1.00  0.00    -0.029 C 
HETATM   17  C14 UNL     1      23.434   1.781  50.859  1.00  0.00     0.005 C 
HETATM   18  C15 UNL     1      22.438   2.329  51.481  1.00  0.00     0.026 C 
HETATM   19  C16 UNL     1      23.289   2.117  52.655  1.00  0.00     0.096 C 
HETATM   20  N4  UNL     1      21.166   2.842  51.019  1.00  0.00    -0.341 N 
HETATM   21  H6  UNL     1      22.300   4.764  51.814  1.00  0.00     0.160 HD
HETATM   22  H16 UNL     1      20.332   2.711  51.597  1.00  0.00     0.167 HD
ENDROOT
BRANCH  15  23
HETATM   23  O2  UNL     1      26.610   1.508  51.227  1.00  0.00    -0.382 OA
HETATM   24  C12 UNL     1      26.815   0.780  52.367  1.00  0.00     0.202 C 
ENDBRANCH  15  23
TORSDOF 1
ENDMDL
MODEL 8
REMARK VINA RESULT:      -6.4      2.014      4.242
REMARK  1 active torsions:
REMARK  status: ('A' for Active; 'I' for Inactive)
REMARK    1  A    between atoms: C11_15  and  O2_16 
ROOT
HETATM    1  C1  UNL     1      23.311   6.085  47.914  1.00  0.00     0.039 C 
HETATM    2  C2  UNL     1      22.562   5.291  48.916  1.00  0.00     0.007 C 
HETATM    3  C3  UNL     1      22.391   4.540  49.979  1.00  0.00     0.081 C 
HETATM    4  O1  UNL     1      21.245   3.926  50.630  1.00  0.00    -0.290 OA
HETATM    5  C4  UNL     1      21.461   2.574  51.067  1.00  0.00     0.202 A 
HETATM    6  N1  UNL     1      20.742   1.528  50.560  1.00  0.00    -0.215 NA
HETATM    7  C5  UNL     1      21.024   0.297  51.016  1.00  0.00     0.238 A 
HETATM    8  N2  UNL     1      21.977   0.009  51.952  1.00  0.00    -0.222 NA
HETATM    9  C6  UNL     1      22.706   1.040  52.472  1.00  0.00     0.160 A 
HETATM   10  C7  UNL     1      22.455   2.348  52.039  1.00  0.00     0.129 A 
HETATM   11  N3  UNL     1      23.303   3.281  52.761  1.00  0.00    -0.379 N 
HETATM   12  C8  UNL     1      23.889   4.474  52.123  1.00  0.00     0.161 C 
HETATM   13  C9  UNL     1      23.722   4.293  50.623  1.00  0.00    -0.008 C 
HETATM   14  C10 UNL     1      24.681   3.891  49.807  1.00  0.00     0.021 C 
HETATM   15  C11 UNL     1      25.969   3.658  50.512  1.00  0.00     0.174 C 
HETATM   16  C13 UNL     1      25.824   2.563  51.527  1.00  0.00    -0.029 C 
HETATM   17  C14 UNL     1      25.245   1.422  51.475  1.00  0.00     0.005 C 
HETATM   18  C15 UNL     1      24.909   1.371  52.726  1.00  0.00     0.026 C 
HETATM   19  C16 UNL     1      26.152   2.128  52.904  1.00  0.00     0.096 C 
HETATM   20  N4  UNL     1      23.775   0.782  53.406  1.00  0.00    -0.341 N 
HETATM   21  H6  UNL     1      23.507   3.108  53.764  1.00  0.00     0.160 HD
HETATM   22  H16 UNL     1      23.912   0.340  54.319  1.00  0.00     0.167 HD
ENDROOT
BRANCH  15  23
HETATM   23  O2  UNL     1      26.911   3.361  49.536  1.00  0.00    -0.382 OA
HETATM   24  C12 UNL     1      27.441   4.443  48.888  1.00  0.00     0.202 C 
ENDBRANCH  15  23
TORSDOF 1
ENDMDL
MODEL 9
REMARK VINA RESULT:      -6.3      8.140     10.181
REMARK  1 active torsions:
REMARK  status: ('A' for Active; 'I' for Inactive)
REMARK    1  A    between atoms: C11_15  and  O2_16 
ROOT
HETATM    1  C1  UNL     1      30.502   9.582  49.411  1.00  0.00     0.039 C 
HETATM    2  C2  UNL     1      31.362   8.378  49.332  1.00  0.00     0.007 C 
HETATM    3  C3  UNL     1      32.247   7.557  48.817  1.00  0.00     0.081 C 
HETATM    4  O1  UNL     1      32.834   6.291  49.224  1.00  0.00    -0.290 OA
HETATM    5  C4  UNL     1      32.951   5.321  48.169  1.00  0.00     0.202 A 
HETATM    6  N1  UNL     1      32.285   4.129  48.207  1.00  0.00    -0.215 NA
HETATM    7  C5  UNL     1      32.442   3.292  47.170  1.00  0.00     0.238 A 
HETATM    8  N2  UNL     1      33.220   3.542  46.074  1.00  0.00    -0.222 NA
HETATM    9  C6  UNL     1      33.894   4.728  46.016  1.00  0.00     0.160 A 
HETATM   10  C7  UNL     1      33.774   5.641  47.071  1.00  0.00     0.129 A 
HETATM   11  N3  UNL     1      34.615   6.799  46.823  1.00  0.00    -0.379 N 
HETATM   12  C8  UNL     1      34.208   8.166  47.196  1.00  0.00     0.161 C 
HETATM   13  C9  UNL     1      32.721   8.110  47.507  1.00  0.00    -0.008 C 
HETATM   14  C10 UNL     1      31.768   8.494  46.675  1.00  0.00     0.021 C 
HETATM   15  C11 UNL     1      32.308   9.022  45.395  1.00  0.00     0.174 C 
HETATM   16  C13 UNL     1      33.071   7.958  44.663  1.00  0.00    -0.029 C 
HETATM   17  C14 UNL     1      32.817   6.720  44.449  1.00  0.00     0.005 C 
HETATM   18  C15 UNL     1      34.049   6.316  44.442  1.00  0.00     0.026 C 
HETATM   19  C16 UNL     1      34.292   7.651  43.885  1.00  0.00     0.096 C 
HETATM   20  N4  UNL     1      34.668   5.073  44.848  1.00  0.00    -0.341 N 
HETATM   21  H6  UNL     1      35.539   6.666  46.370  1.00  0.00     0.160 HD
HETATM   22  H16 UNL     1      35.450   4.701  44.304  1.00  0.00     0.167 HD
ENDROOT
BRANCH  15  23
HETATM   23  O2  UNL     1      31.224   9.497  44.669  1.00  0.00    -0.382 OA
HETATM   24  C12 UNL     1      30.105   9.776  45.405  1.00  0.00     0.202 C 
ENDBRANCH  15  23
TORSDOF 1
ENDMDL
