MODEL 1
REMARK VINA RESULT:      -9.6      0.000      0.000
REMARK  4 active torsions:
REMARK  status: ('A' for Active; 'I' for Inactive)
REMARK    1  A    between atoms: C3_3  and  N1_4 
REMARK       I    between atoms: N1_4  and  C4_5 
REMARK    2  A    between atoms: C4_5  and  C5_7 
REMARK    3  A    between atoms: C11_14  and  N2_15 
REMARK    4  A    between atoms: N2_15  and  C12_16 
ROOT
HETATM    1  C1  UNL     1      23.659  -0.509  53.885  1.00  0.00     0.046 C 
HETATM    2  C2  UNL     1      23.801   0.314  52.861  1.00  0.00    -0.018 A 
HETATM    3  C3  UNL     1      22.816   0.647  51.838  1.00  0.00     0.043 A 
HETATM    4  C9  UNL     1      23.416   1.508  51.030  1.00  0.00     0.046 A 
HETATM    5  C10 UNL     1      24.790   1.800  51.440  1.00  0.00     0.024 A 
HETATM    6  C11 UNL     1      25.749   2.625  50.890  1.00  0.00     0.139 A 
HETATM    7  N3  UNL     1      26.910   2.634  51.557  1.00  0.00    -0.241 NA
HETATM    8  C18 UNL     1      27.197   1.943  52.654  1.00  0.00     0.142 A 
HETATM    9  C19 UNL     1      26.248   1.120  53.208  1.00  0.00     0.074 A 
HETATM   10  C20 UNL     1      26.537   0.365  54.394  1.00  0.00     0.102 C 
HETATM   11  N4  UNL     1      26.756  -0.245  55.361  1.00  0.00    -0.191 NA
HETATM   12  C21 UNL     1      25.026   1.059  52.574  1.00  0.00     0.009 A 
ENDROOT
BRANCH   6  13
HETATM   13  N2  UNL     1      25.461   3.371  49.718  1.00  0.00    -0.340 N 
HETATM   14  H8  UNL     1      24.665   3.015  49.125  1.00  0.00     0.167 HD
BRANCH  13  15
HETATM   15  C12 UNL     1      26.094   4.538  49.222  1.00  0.00     0.035 A 
HETATM   16  C13 UNL     1      25.402   5.717  49.047  1.00  0.00     0.029 A 
HETATM   17  C14 UNL     1      25.976   6.861  48.570  1.00  0.00     0.004 A 
HETATM   18  C15 UNL     1      27.294   6.891  48.238  1.00  0.00     0.019 A 
HETATM   19  C16 UNL     1      28.049   5.757  48.385  1.00  0.00     0.013 A 
HETATM   20 BR1  UNL     1      29.900   5.775  47.924  1.00  0.00    -0.051 Br
HETATM   21  C17 UNL     1      27.422   4.633  48.867  1.00  0.00     0.048 A 
ENDBRANCH  13  15
ENDBRANCH   6  13
BRANCH   3  22
HETATM   22  N1  UNL     1      21.487   0.152  51.726  1.00  0.00    -0.322 N 
HETATM   23  C4  UNL     1      20.403   0.615  52.495  1.00  0.00     0.258 C 
HETATM   24  O1  UNL     1      20.404   1.511  53.385  1.00  0.00    -0.267 OA
HETATM   25  H3  UNL     1      21.320  -0.605  51.023  1.00  0.00     0.169 HD
BRANCH  23  26
HETATM   26  C5  UNL     1      19.078   0.029  52.291  1.00  0.00     0.056 A 
HETATM   27  C6  UNL     1      18.165   0.286  51.292  1.00  0.00     0.043 A 
HETATM   28  C7  UNL     1      17.055  -0.517  51.525  1.00  0.00     0.142 A 
HETATM   29  O2  UNL     1      17.269  -1.229  52.603  1.00  0.00    -0.334 OA
HETATM   30  C8  UNL     1      18.441  -0.927  53.063  1.00  0.00     0.158 A 
ENDBRANCH  23  26
ENDBRANCH   3  22
TORSDOF 4
ENDMDL
MODEL 2
REMARK VINA RESULT:      -9.5      1.257      1.611
REMARK  4 active torsions:
REMARK  status: ('A' for Active; 'I' for Inactive)
REMARK    1  A    between atoms: C3_3  and  N1_4 
REMARK       I    between atoms: N1_4  and  C4_5 
REMARK    2  A    between atoms: C4_5  and  C5_7 
REMARK    3  A    between atoms: C11_14  and  N2_15 
REMARK    4  A    between atoms: N2_15  and  C12_16 
ROOT
HETATM    1  C1  UNL     1      23.509  -0.257  53.756  1.00  0.00     0.046 C 
HETATM    2  C2  UNL     1      23.750   0.560  52.746  1.00  0.00    -0.018 A 
HETATM    3  C3  UNL     1      22.826   0.990  51.703  1.00  0.00     0.043 A 
HETATM    4  C9  UNL     1      23.521   1.802  50.921  1.00  0.00     0.046 A 
HETATM    5  C10 UNL     1      24.904   1.966  51.369  1.00  0.00     0.024 A 
HETATM    6  C11 UNL     1      25.947   2.708  50.853  1.00  0.00     0.139 A 
HETATM    7  N3  UNL     1      27.086   2.606  51.549  1.00  0.00    -0.241 NA
HETATM    8  C18 UNL     1      27.283   1.882  52.644  1.00  0.00     0.142 A 
HETATM    9  C19 UNL     1      26.249   1.141  53.164  1.00  0.00     0.074 A 
HETATM   10  C20 UNL     1      26.439   0.351  54.347  1.00  0.00     0.102 C 
HETATM   11  N4  UNL     1      26.578  -0.286  55.312  1.00  0.00    -0.191 NA
HETATM   12  C21 UNL     1      25.044   1.196  52.499  1.00  0.00     0.009 A 
ENDROOT
BRANCH   6  13
HETATM   13  N2  UNL     1      25.758   3.488  49.684  1.00  0.00    -0.340 N 
HETATM   14  H8  UNL     1      25.072   3.109  48.978  1.00  0.00     0.167 HD
BRANCH  13  15
HETATM   15  C12 UNL     1      26.362   4.717  49.320  1.00  0.00     0.035 A 
HETATM   16  C13 UNL     1      27.566   4.761  48.650  1.00  0.00     0.029 A 
HETATM   17  C14 UNL     1      28.180   5.926  48.284  1.00  0.00     0.004 A 
HETATM   18  C15 UNL     1      27.615   7.128  48.570  1.00  0.00     0.019 A 
HETATM   19  C16 UNL     1      26.417   7.167  49.235  1.00  0.00     0.013 A 
HETATM   20 BR1  UNL     1      25.606   8.843  49.648  1.00  0.00    -0.051 Br
HETATM   21  C17 UNL     1      25.843   5.967  49.581  1.00  0.00     0.048 A 
ENDBRANCH  13  15
ENDBRANCH   6  13
BRANCH   3  22
HETATM   22  N1  UNL     1      21.462   0.617  51.552  1.00  0.00    -0.322 N 
HETATM   23  C4  UNL     1      20.382   1.312  52.131  1.00  0.00     0.258 C 
HETATM   24  O1  UNL     1      20.419   2.344  52.857  1.00  0.00    -0.267 OA
HETATM   25  H3  UNL     1      21.262  -0.230  50.969  1.00  0.00     0.169 HD
BRANCH  23  26
HETATM   26  C5  UNL     1      19.019   0.832  51.904  1.00  0.00     0.056 A 
HETATM   27  C6  UNL     1      18.501  -0.427  52.110  1.00  0.00     0.043 A 
HETATM   28  C7  UNL     1      17.160  -0.392  51.748  1.00  0.00     0.142 A 
HETATM   29  O2  UNL     1      16.865   0.819  51.344  1.00  0.00    -0.334 OA
HETATM   30  C8  UNL     1      17.933   1.546  51.426  1.00  0.00     0.158 A 
ENDBRANCH  23  26
ENDBRANCH   3  22
TORSDOF 4
ENDMDL
MODEL 3
REMARK VINA RESULT:      -9.4      3.172      6.173
REMARK  4 active torsions:
REMARK  status: ('A' for Active; 'I' for Inactive)
REMARK    1  A    between atoms: C3_3  and  N1_4 
REMARK       I    between atoms: N1_4  and  C4_5 
REMARK    2  A    between atoms: C4_5  and  C5_7 
REMARK    3  A    between atoms: C11_14  and  N2_15 
REMARK    4  A    between atoms: N2_15  and  C12_16 
ROOT
HETATM    1  C1  UNL     1      22.801  -0.433  52.815  1.00  0.00     0.046 C 
HETATM    2  C2  UNL     1      23.170   0.825  52.653  1.00  0.00    -0.018 A 
HETATM    3  C3  UNL     1      24.525   1.357  52.575  1.00  0.00     0.043 A 
HETATM    4  C9  UNL     1      24.388   2.664  52.410  1.00  0.00     0.046 A 
HETATM    5  C10 UNL     1      22.987   3.081  52.366  1.00  0.00     0.024 A 
HETATM    6  C11 UNL     1      22.411   4.325  52.212  1.00  0.00     0.139 A 
HETATM    7  N3  UNL     1      21.072   4.312  52.223  1.00  0.00    -0.241 NA
HETATM    8  C18 UNL     1      20.292   3.248  52.364  1.00  0.00     0.142 A 
HETATM    9  C19 UNL     1      20.857   2.005  52.518  1.00  0.00     0.074 A 
HETATM   10  C20 UNL     1      20.033   0.840  52.671  1.00  0.00     0.102 C 
HETATM   11  N4  UNL     1      19.375  -0.113  52.787  1.00  0.00    -0.191 NA
HETATM   12  C21 UNL     1      22.234   1.940  52.517  1.00  0.00     0.009 A 
ENDROOT
BRANCH   6  13
HETATM   13  N2  UNL     1      23.227   5.475  52.060  1.00  0.00    -0.340 N 
HETATM   14  H8  UNL     1      23.326   6.090  52.911  1.00  0.00     0.167 HD
BRANCH  13  15
HETATM   15  C12 UNL     1      23.939   5.924  50.920  1.00  0.00     0.035 A 
HETATM   16  C13 UNL     1      23.744   5.360  49.677  1.00  0.00     0.029 A 
HETATM   17  C14 UNL     1      24.411   5.764  48.555  1.00  0.00     0.004 A 
HETATM   18  C15 UNL     1      25.323   6.770  48.615  1.00  0.00     0.019 A 
HETATM   19  C16 UNL     1      25.572   7.381  49.816  1.00  0.00     0.013 A 
HETATM   20 BR1  UNL     1      26.848   8.794  49.923  1.00  0.00    -0.051 Br
HETATM   21  C17 UNL     1      24.874   6.935  50.913  1.00  0.00     0.048 A 
ENDBRANCH  13  15
ENDBRANCH   6  13
BRANCH   3  22
HETATM   22  N1  UNL     1      25.744   0.628  52.660  1.00  0.00    -0.322 N 
HETATM   23  C4  UNL     1      26.621   0.679  53.760  1.00  0.00     0.258 C 
HETATM   24  O1  UNL     1      26.499   1.347  54.825  1.00  0.00    -0.267 OA
HETATM   25  H3  UNL     1      25.991   0.019  51.846  1.00  0.00     0.169 HD
BRANCH  23  26
HETATM   26  C5  UNL     1      27.848  -0.117  53.734  1.00  0.00     0.056 A 
HETATM   27  C6  UNL     1      28.088  -1.313  53.094  1.00  0.00     0.043 A 
HETATM   28  C7  UNL     1      29.402  -1.676  53.366  1.00  0.00     0.142 A 
HETATM   29  O2  UNL     1      29.943  -0.758  54.128  1.00  0.00    -0.334 OA
HETATM   30  C8  UNL     1      29.056   0.157  54.354  1.00  0.00     0.158 A 
ENDBRANCH  23  26
ENDBRANCH   3  22
TORSDOF 4
ENDMDL
MODEL 4
REMARK VINA RESULT:      -9.4      3.902      8.370
REMARK  4 active torsions:
REMARK  status: ('A' for Active; 'I' for Inactive)
REMARK    1  A    between atoms: C3_3  and  N1_4 
REMARK       I    between atoms: N1_4  and  C4_5 
REMARK    2  A    between atoms: C4_5  and  C5_7 
REMARK    3  A    between atoms: C11_14  and  N2_15 
REMARK    4  A    between atoms: N2_15  and  C12_16 
ROOT
HETATM    1  C1  UNL     1      27.251   2.152  52.612  1.00  0.00     0.046 C 
HETATM    2  C2  UNL     1      25.960   2.143  52.335  1.00  0.00    -0.018 A 
HETATM    3  C3  UNL     1      25.228   3.047  51.456  1.00  0.00     0.043 A 
HETATM    4  C9  UNL     1      23.966   2.646  51.498  1.00  0.00     0.046 A 
HETATM    5  C10 UNL     1      23.774   1.489  52.373  1.00  0.00     0.024 A 
HETATM    6  C11 UNL     1      22.643   0.769  52.696  1.00  0.00     0.139 A 
HETATM    7  N3  UNL     1      22.862  -0.241  53.547  1.00  0.00    -0.241 NA
HETATM    8  C18 UNL     1      24.028  -0.589  54.079  1.00  0.00     0.142 A 
HETATM    9  C19 UNL     1      25.160   0.123  53.762  1.00  0.00     0.074 A 
HETATM   10  C20 UNL     1      26.430  -0.235  54.325  1.00  0.00     0.102 C 
HETATM   11  N4  UNL     1      27.468  -0.523  54.767  1.00  0.00    -0.191 NA
HETATM   12  C21 UNL     1      25.010   1.180  52.891  1.00  0.00     0.009 A 
ENDROOT
BRANCH   6  13
HETATM   13  N2  UNL     1      21.387   1.125  52.139  1.00  0.00    -0.340 N 
HETATM   14  H8  UNL     1      21.355   2.039  51.614  1.00  0.00     0.167 HD
BRANCH  13  15
HETATM   15  C12 UNL     1      20.157   0.424  52.186  1.00  0.00     0.035 A 
HETATM   16  C13 UNL     1      19.809  -0.356  53.267  1.00  0.00     0.029 A 
HETATM   17  C14 UNL     1      18.633  -1.047  53.348  1.00  0.00     0.004 A 
HETATM   18  C15 UNL     1      17.726  -0.995  52.337  1.00  0.00     0.019 A 
HETATM   19  C16 UNL     1      18.000  -0.240  51.227  1.00  0.00     0.013 A 
HETATM   20 BR1  UNL     1      16.743  -0.153  49.796  1.00  0.00    -0.051 Br
HETATM   21  C17 UNL     1      19.198   0.434  51.197  1.00  0.00     0.048 A 
ENDBRANCH  13  15
ENDBRANCH   6  13
BRANCH   3  22
HETATM   22  N1  UNL     1      25.754   4.137  50.707  1.00  0.00    -0.322 N 
HETATM   23  C4  UNL     1      26.615   3.996  49.602  1.00  0.00     0.258 C 
HETATM   24  O1  UNL     1      27.060   2.930  49.092  1.00  0.00    -0.267 OA
HETATM   25  H3  UNL     1      25.474   5.100  51.008  1.00  0.00     0.169 HD
BRANCH  23  26
HETATM   26  C5  UNL     1      27.092   5.192  48.909  1.00  0.00     0.056 A 
HETATM   27  C6  UNL     1      28.333   5.437  48.364  1.00  0.00     0.043 A 
HETATM   28  C7  UNL     1      28.304   6.714  47.815  1.00  0.00     0.142 A 
HETATM   29  O2  UNL     1      27.115   7.228  48.010  1.00  0.00    -0.334 OA
HETATM   30  C8  UNL     1      26.395   6.359  48.645  1.00  0.00     0.158 A 
ENDBRANCH  23  26
ENDBRANCH   3  22
TORSDOF 4
ENDMDL
MODEL 5
REMARK VINA RESULT:      -9.0      3.912      8.024
REMARK  4 active torsions:
REMARK  status: ('A' for Active; 'I' for Inactive)
REMARK    1  A    between atoms: C3_3  and  N1_4 
REMARK       I    between atoms: N1_4  and  C4_5 
REMARK    2  A    between atoms: C4_5  and  C5_7 
REMARK    3  A    between atoms: C11_14  and  N2_15 
REMARK    4  A    between atoms: N2_15  and  C12_16 
ROOT
HETATM    1  C1  UNL     1      26.693   3.853  49.752  1.00  0.00     0.046 C 
HETATM    2  C2  UNL     1      25.625   3.585  50.481  1.00  0.00    -0.018 A 
HETATM    3  C3  UNL     1      25.442   2.496  51.434  1.00  0.00     0.043 A 
HETATM    4  C9  UNL     1      24.215   2.640  51.911  1.00  0.00     0.046 A 
HETATM    5  C10 UNL     1      23.518   3.790  51.335  1.00  0.00     0.024 A 
HETATM    6  C11 UNL     1      22.251   4.290  51.550  1.00  0.00     0.139 A 
HETATM    7  N3  UNL     1      21.962   5.378  50.826  1.00  0.00    -0.241 NA
HETATM    8  C18 UNL     1      22.761   5.986  49.958  1.00  0.00     0.142 A 
HETATM    9  C19 UNL     1      24.026   5.495  49.737  1.00  0.00     0.074 A 
HETATM   10  C20 UNL     1      24.907   6.137  48.804  1.00  0.00     0.102 C 
HETATM   11  N4  UNL     1      25.634   6.654  48.056  1.00  0.00    -0.191 NA
HETATM   12  C21 UNL     1      24.393   4.374  50.449  1.00  0.00     0.009 A 
ENDROOT
BRANCH   6  13
HETATM   13  N2  UNL     1      21.381   3.654  52.473  1.00  0.00    -0.340 N 
HETATM   14  H8  UNL     1      21.183   4.182  53.364  1.00  0.00     0.167 HD
BRANCH  13  15
HETATM   15  C12 UNL     1      20.732   2.399  52.372  1.00  0.00     0.035 A 
HETATM   16  C13 UNL     1      19.722   2.178  51.460  1.00  0.00     0.029 A 
HETATM   17  C14 UNL     1      19.072   0.983  51.334  1.00  0.00     0.004 A 
HETATM   18  C15 UNL     1      19.401  -0.073  52.124  1.00  0.00     0.019 A 
HETATM   19  C16 UNL     1      20.395   0.069  53.055  1.00  0.00     0.013 A 
HETATM   20 BR1  UNL     1      20.873  -1.400  54.175  1.00  0.00    -0.051 Br
HETATM   21  C17 UNL     1      21.016   1.292  53.141  1.00  0.00     0.048 A 
ENDBRANCH  13  15
ENDBRANCH   6  13
BRANCH   3  22
HETATM   22  N1  UNL     1      26.382   1.486  51.780  1.00  0.00    -0.322 N 
HETATM   23  C4  UNL     1      27.073   1.436  53.006  1.00  0.00     0.258 C 
HETATM   24  O1  UNL     1      26.994   2.236  53.979  1.00  0.00    -0.267 OA
HETATM   25  H3  UNL     1      26.561   0.739  51.069  1.00  0.00     0.169 HD
BRANCH  23  26
HETATM   26  C5  UNL     1      28.018   0.346  53.250  1.00  0.00     0.056 A 
HETATM   27  C6  UNL     1      29.347   0.419  53.604  1.00  0.00     0.043 A 
HETATM   28  C7  UNL     1      29.820  -0.883  53.720  1.00  0.00     0.142 A 
HETATM   29  O2  UNL     1      28.841  -1.712  53.455  1.00  0.00    -0.334 OA
HETATM   30  C8  UNL     1      27.784  -1.017  53.180  1.00  0.00     0.158 A 
ENDBRANCH  23  26
ENDBRANCH   3  22
TORSDOF 4
ENDMDL
MODEL 6
REMARK VINA RESULT:      -8.9      5.381     10.313
REMARK  4 active torsions:
REMARK  status: ('A' for Active; 'I' for Inactive)
REMARK    1  A    between atoms: C3_3  and  N1_4 
REMARK       I    between atoms: N1_4  and  C4_5 
REMARK    2  A    between atoms: C4_5  and  C5_7 
REMARK    3  A    between atoms: C11_14  and  N2_15 
REMARK    4  A    between atoms: N2_15  and  C12_16 
ROOT
HETATM    1  C1  UNL     1      28.893   8.234  48.321  1.00  0.00     0.046 C 
HETATM    2  C2  UNL     1      28.272   7.080  48.484  1.00  0.00    -0.018 A 
HETATM    3  C3  UNL     1      28.784   5.742  48.208  1.00  0.00     0.043 A 
HETATM    4  C9  UNL     1      27.804   4.911  48.527  1.00  0.00     0.046 A 
HETATM    5  C10 UNL     1      26.615   5.606  49.020  1.00  0.00     0.024 A 
HETATM    6  C11 UNL     1      25.394   5.130  49.452  1.00  0.00     0.139 A 
HETATM    7  N3  UNL     1      24.539   6.086  49.835  1.00  0.00    -0.241 NA
HETATM    8  C18 UNL     1      24.762   7.395  49.831  1.00  0.00     0.142 A 
HETATM    9  C19 UNL     1      25.975   7.877  49.403  1.00  0.00     0.074 A 
HETATM   10  C20 UNL     1      26.238   9.288  49.391  1.00  0.00     0.102 C 
HETATM   11  N4  UNL     1      26.467  10.430  49.387  1.00  0.00    -0.191 NA
HETATM   12  C21 UNL     1      26.907   6.949  48.992  1.00  0.00     0.009 A 
ENDROOT
BRANCH   6  13
HETATM   13  N2  UNL     1      25.136   3.735  49.463  1.00  0.00    -0.340 N 
HETATM   14  H8  UNL     1      24.766   3.324  48.565  1.00  0.00     0.167 HD
BRANCH  13  15
HETATM   15  C12 UNL     1      25.305   2.801  50.515  1.00  0.00     0.035 A 
HETATM   16  C13 UNL     1      26.556   2.427  50.956  1.00  0.00     0.029 A 
HETATM   17  C14 UNL     1      26.759   1.530  51.967  1.00  0.00     0.004 A 
HETATM   18  C15 UNL     1      25.707   0.950  52.602  1.00  0.00     0.019 A 
HETATM   19  C16 UNL     1      24.432   1.271  52.220  1.00  0.00     0.013 A 
HETATM   20 BR1  UNL     1      22.940   0.469  53.097  1.00  0.00    -0.051 Br
HETATM   21  C17 UNL     1      24.283   2.178  51.198  1.00  0.00     0.048 A 
ENDBRANCH  13  15
ENDBRANCH   6  13
BRANCH   3  22
HETATM   22  N1  UNL     1      30.067   5.398  47.700  1.00  0.00    -0.322 N 
HETATM   23  C4  UNL     1      31.236   5.327  48.483  1.00  0.00     0.258 C 
HETATM   24  O1  UNL     1      31.359   5.547  49.721  1.00  0.00    -0.267 OA
HETATM   25  H3  UNL     1      30.132   5.184  46.678  1.00  0.00     0.169 HD
BRANCH  23  26
HETATM   26  C5  UNL     1      32.502   4.961  47.849  1.00  0.00     0.056 A 
HETATM   27  C6  UNL     1      33.772   5.412  48.131  1.00  0.00     0.043 A 
HETATM   28  C7  UNL     1      34.645   4.773  47.259  1.00  0.00     0.142 A 
HETATM   29  O2  UNL     1      33.956   3.974  46.484  1.00  0.00    -0.334 OA
HETATM   30  C8  UNL     1      32.707   4.067  46.811  1.00  0.00     0.158 A 
ENDBRANCH  23  26
ENDBRANCH   3  22
TORSDOF 4
ENDMDL
MODEL 7
REMARK VINA RESULT:      -8.8      3.492      7.774
REMARK  4 active torsions:
REMARK  status: ('A' for Active; 'I' for Inactive)
REMARK    1  A    between atoms: C3_3  and  N1_4 
REMARK       I    between atoms: N1_4  and  C4_5 
REMARK    2  A    between atoms: C4_5  and  C5_7 
REMARK    3  A    between atoms: C11_14  and  N2_15 
REMARK    4  A    between atoms: N2_15  and  C12_16 
ROOT
HETATM    1  C1  UNL     1      26.629   1.869  52.318  1.00  0.00     0.046 C 
HETATM    2  C2  UNL     1      25.318   2.018  52.369  1.00  0.00    -0.018 A 
HETATM    3  C3  UNL     1      24.528   3.155  51.913  1.00  0.00     0.043 A 
HETATM    4  C9  UNL     1      23.267   2.844  52.174  1.00  0.00     0.046 A 
HETATM    5  C10 UNL     1      23.130   1.527  52.797  1.00  0.00     0.024 A 
HETATM    6  C11 UNL     1      22.018   0.831  53.222  1.00  0.00     0.139 A 
HETATM    7  N3  UNL     1      22.293  -0.367  53.753  1.00  0.00    -0.241 NA
HETATM    8  C18 UNL     1      23.495  -0.912  53.896  1.00  0.00     0.142 A 
HETATM    9  C19 UNL     1      24.608  -0.226  53.475  1.00  0.00     0.074 A 
HETATM   10  C20 UNL     1      25.917  -0.796  53.619  1.00  0.00     0.102 C 
HETATM   11  N4  UNL     1      26.983  -1.253  53.722  1.00  0.00    -0.191 NA
HETATM   12  C21 UNL     1      24.402   1.018  52.918  1.00  0.00     0.009 A 
ENDROOT
BRANCH   6  13
HETATM   13  N2  UNL     1      20.725   1.397  53.079  1.00  0.00    -0.340 N 
HETATM   14  H8  UNL     1      20.432   2.080  53.827  1.00  0.00     0.167 HD
BRANCH  13  15
HETATM   15  C12 UNL     1      19.759   1.176  52.066  1.00  0.00     0.035 A 
HETATM   16  C13 UNL     1      18.894   0.104  52.113  1.00  0.00     0.029 A 
HETATM   17  C14 UNL     1      17.950  -0.142  51.156  1.00  0.00     0.004 A 
HETATM   18  C15 UNL     1      17.817   0.683  50.084  1.00  0.00     0.019 A 
HETATM   19  C16 UNL     1      18.641   1.771  49.967  1.00  0.00     0.013 A 
HETATM   20 BR1  UNL     1      18.472   2.942  48.471  1.00  0.00    -0.051 Br
HETATM   21  C17 UNL     1      19.573   1.972  50.957  1.00  0.00     0.048 A 
ENDBRANCH  13  15
ENDBRANCH   6  13
BRANCH   3  22
HETATM   22  N1  UNL     1      25.007   4.353  51.314  1.00  0.00    -0.322 N 
HETATM   23  C4  UNL     1      25.648   4.410  50.061  1.00  0.00     0.258 C 
HETATM   24  O1  UNL     1      25.907   3.458  49.274  1.00  0.00    -0.267 OA
HETATM   25  H3  UNL     1      24.866   5.242  51.849  1.00  0.00     0.169 HD
BRANCH  23  26
HETATM   26  C5  UNL     1      26.098   5.704  49.546  1.00  0.00     0.056 A 
HETATM   27  C6  UNL     1      27.046   5.966  48.582  1.00  0.00     0.043 A 
HETATM   28  C7  UNL     1      27.123   7.346  48.438  1.00  0.00     0.142 A 
HETATM   29  O2  UNL     1      26.272   7.904  49.263  1.00  0.00    -0.334 OA
HETATM   30  C8  UNL     1      25.666   6.965  49.917  1.00  0.00     0.158 A 
ENDBRANCH  23  26
ENDBRANCH   3  22
TORSDOF 4
ENDMDL
MODEL 8
REMARK VINA RESULT:      -8.5      3.655      8.201
REMARK  4 active torsions:
REMARK  status: ('A' for Active; 'I' for Inactive)
REMARK    1  A    between atoms: C3_3  and  N1_4 
REMARK       I    between atoms: N1_4  and  C4_5 
REMARK    2  A    between atoms: C4_5  and  C5_7 
REMARK    3  A    between atoms: C11_14  and  N2_15 
REMARK    4  A    between atoms: N2_15  and  C12_16 
ROOT
HETATM    1  C1  UNL     1      25.729   4.940  49.924  1.00  0.00     0.046 C 
HETATM    2  C2  UNL     1      24.910   3.906  50.001  1.00  0.00    -0.018 A 
HETATM    3  C3  UNL     1      25.115   2.655  50.724  1.00  0.00     0.043 A 
HETATM    4  C9  UNL     1      24.027   1.933  50.505  1.00  0.00     0.046 A 
HETATM    5  C10 UNL     1      23.056   2.622  49.655  1.00  0.00     0.024 A 
HETATM    6  C11 UNL     1      21.815   2.237  49.191  1.00  0.00     0.139 A 
HETATM    7  N3  UNL     1      21.211   3.151  48.423  1.00  0.00    -0.241 NA
HETATM    8  C18 UNL     1      21.688   4.344  48.088  1.00  0.00     0.142 A 
HETATM    9  C19 UNL     1      22.923   4.736  48.547  1.00  0.00     0.074 A 
HETATM   10  C20 UNL     1      23.458   6.021  48.198  1.00  0.00     0.102 C 
HETATM   11  N4  UNL     1      23.898   7.065  47.930  1.00  0.00    -0.191 NA
HETATM   12  C21 UNL     1      23.606   3.844  49.344  1.00  0.00     0.009 A 
ENDROOT
BRANCH   6  13
HETATM   13  N2  UNL     1      21.288   0.966  49.536  1.00  0.00    -0.340 N 
HETATM   14  H8  UNL     1      21.392   0.207  48.811  1.00  0.00     0.167 HD
BRANCH  13  15
HETATM   15  C12 UNL     1      20.635   0.561  50.727  1.00  0.00     0.035 A 
HETATM   16  C13 UNL     1      19.260   0.517  50.818  1.00  0.00     0.029 A 
HETATM   17  C14 UNL     1      18.594   0.133  51.948  1.00  0.00     0.004 A 
HETATM   18  C15 UNL     1      19.276  -0.233  53.065  1.00  0.00     0.019 A 
HETATM   19  C16 UNL     1      20.646  -0.214  53.052  1.00  0.00     0.013 A 
HETATM   20 BR1  UNL     1      21.624  -0.722  54.609  1.00  0.00    -0.051 Br
HETATM   21  C17 UNL     1      21.266   0.180  51.890  1.00  0.00     0.048 A 
ENDBRANCH  13  15
ENDBRANCH   6  13
BRANCH   3  22
HETATM   22  N1  UNL     1      26.247   2.284  51.501  1.00  0.00    -0.322 N 
HETATM   23  C4  UNL     1      26.251   2.212  52.908  1.00  0.00     0.258 C 
HETATM   24  O1  UNL     1      25.301   2.452  53.704  1.00  0.00    -0.267 OA
HETATM   25  H3  UNL     1      27.125   2.050  50.982  1.00  0.00     0.169 HD
BRANCH  23  26
HETATM   26  C5  UNL     1      27.478   1.816  53.600  1.00  0.00     0.056 A 
HETATM   27  C6  UNL     1      28.668   2.501  53.706  1.00  0.00     0.043 A 
HETATM   28  C7  UNL     1      29.534   1.718  54.460  1.00  0.00     0.142 A 
HETATM   29  O2  UNL     1      28.916   0.615  54.801  1.00  0.00    -0.334 OA
HETATM   30  C8  UNL     1      27.718   0.652  54.310  1.00  0.00     0.158 A 
ENDBRANCH  23  26
ENDBRANCH   3  22
TORSDOF 4
ENDMDL
MODEL 9
REMARK VINA RESULT:      -8.3      3.150      6.391
REMARK  4 active torsions:
REMARK  status: ('A' for Active; 'I' for Inactive)
REMARK    1  A    between atoms: C3_3  and  N1_4 
REMARK       I    between atoms: N1_4  and  C4_5 
REMARK    2  A    between atoms: C4_5  and  C5_7 
REMARK    3  A    between atoms: C11_14  and  N2_15 
REMARK    4  A    between atoms: N2_15  and  C12_16 
ROOT
HETATM    1  C1  UNL     1      21.846  -0.852  53.600  1.00  0.00     0.046 C 
HETATM    2  C2  UNL     1      21.968   0.084  52.676  1.00  0.00    -0.018 A 
HETATM    3  C3  UNL     1      23.186   0.758  52.241  1.00  0.00     0.043 A 
HETATM    4  C9  UNL     1      22.808   1.610  51.300  1.00  0.00     0.046 A 
HETATM    5  C10 UNL     1      21.368   1.567  51.049  1.00  0.00     0.024 A 
HETATM    6  C11 UNL     1      20.575   2.274  50.169  1.00  0.00     0.139 A 
HETATM    7  N3  UNL     1      19.276   1.954  50.226  1.00  0.00    -0.241 NA
HETATM    8  C18 UNL     1      18.717   1.054  51.026  1.00  0.00     0.142 A 
HETATM    9  C19 UNL     1      19.500   0.345  51.905  1.00  0.00     0.074 A 
HETATM   10  C20 UNL     1      18.917  -0.634  52.778  1.00  0.00     0.102 C 
HETATM   11  N4  UNL     1      18.457  -1.437  53.483  1.00  0.00    -0.191 NA
HETATM   12  C21 UNL     1      20.850   0.621  51.902  1.00  0.00     0.009 A 
ENDROOT
BRANCH   6  13
HETATM   13  N2  UNL     1      21.153   3.241  49.307  1.00  0.00    -0.340 N 
HETATM   14  H8  UNL     1      21.142   3.012  48.278  1.00  0.00     0.167 HD
BRANCH  13  15
HETATM   15  C12 UNL     1      21.749   4.485  49.630  1.00  0.00     0.035 A 
HETATM   16  C13 UNL     1      21.172   5.351  50.534  1.00  0.00     0.029 A 
HETATM   17  C14 UNL     1      21.715   6.559  50.870  1.00  0.00     0.004 A 
HETATM   18  C15 UNL     1      22.884   6.973  50.314  1.00  0.00     0.019 A 
HETATM   19  C16 UNL     1      23.519   6.167  49.406  1.00  0.00     0.013 A 
HETATM   20 BR1  UNL     1      25.160   6.728  48.612  1.00  0.00    -0.051 Br
HETATM   21  C17 UNL     1      22.929   4.963  49.102  1.00  0.00     0.048 A 
ENDBRANCH  13  15
ENDBRANCH   6  13
BRANCH   3  22
HETATM   22  N1  UNL     1      24.508   0.549  52.725  1.00  0.00    -0.322 N 
HETATM   23  C4  UNL     1      25.289   1.541  53.349  1.00  0.00     0.258 C 
HETATM   24  O1  UNL     1      24.980   2.743  53.584  1.00  0.00    -0.267 OA
HETATM   25  H3  UNL     1      24.912  -0.409  52.604  1.00  0.00     0.169 HD
BRANCH  23  26
HETATM   26  C5  UNL     1      26.637   1.207  53.808  1.00  0.00     0.056 A 
HETATM   27  C6  UNL     1      27.029   0.235  54.700  1.00  0.00     0.043 A 
HETATM   28  C7  UNL     1      28.413   0.305  54.813  1.00  0.00     0.142 A 
HETATM   29  O2  UNL     1      28.850   1.264  54.035  1.00  0.00    -0.334 OA
HETATM   30  C8  UNL     1      27.833   1.801  53.441  1.00  0.00     0.158 A 
ENDBRANCH  23  26
ENDBRANCH   3  22
TORSDOF 4
ENDMDL
