MODEL 1
REMARK VINA RESULT:      -7.6      0.000      0.000
REMARK  4 active torsions:
REMARK  status: ('A' for Active; 'I' for Inactive)
REMARK    1  A    between atoms: C20_25  and  O2_26 
REMARK    2  A    between atoms: O2_26  and  C21_27 
REMARK    3  A    between atoms: C21_27  and  C22_28 
REMARK    4  A    between atoms: C22_28  and  O3_29 
ROOT
HETATM    1  C1  UNL     1      21.614   7.024  51.187  1.00  0.00     0.031 C 
HETATM    2  C2  UNL     1      22.858   6.206  50.586  1.00  0.00     0.118 C 
HETATM    3  C3  UNL     1      22.509   4.872  50.963  1.00  0.00    -0.090 C 
HETATM    4  C4  UNL     1      22.246   3.893  51.256  1.00  0.00    -0.066 C 
HETATM    5  C5  UNL     1      21.896   2.623  51.657  1.00  0.00     0.019 A 
HETATM    6  C6  UNL     1      21.736   2.385  50.245  1.00  0.00     0.021 A 
HETATM    7  C7  UNL     1      21.295   0.994  49.822  1.00  0.00     0.004 A 
HETATM    8  C8  UNL     1      21.063   0.006  50.818  1.00  0.00     0.029 A 
HETATM    9  C9  UNL     1      21.247   0.327  52.162  1.00  0.00     0.034 A 
HETATM   10  C10 UNL     1      21.599   1.540  52.036  1.00  0.00     0.050 A 
HETATM   11  N1  UNL     1      21.087  -0.660  53.128  1.00  0.00    -0.351 N 
HETATM   12  C11 UNL     1      22.409  -0.590  53.623  1.00  0.00     0.208 C 
HETATM   13  N2  UNL     1      23.576  -0.535  54.222  1.00  0.00    -0.238 NA
HETATM   14  C12 UNL     1      24.672  -0.377  53.267  1.00  0.00     0.228 C 
HETATM   15  N3  UNL     1      25.816   0.207  53.395  1.00  0.00    -0.279 NA
HETATM   16  C13 UNL     1      26.769   0.254  52.271  1.00  0.00     0.177 C 
HETATM   17  C14 UNL     1      26.970   1.760  52.098  1.00  0.00    -0.007 C 
HETATM   18  C15 UNL     1      26.710   2.627  51.138  1.00  0.00    -0.003 C 
HETATM   19  C16 UNL     1      26.357   3.488  49.969  1.00  0.00     0.194 C 
HETATM   20  O1  UNL     1      27.489   4.064  49.464  1.00  0.00    -0.387 OA
HETATM   21  C17 UNL     1      27.314   5.070  48.550  1.00  0.00     0.178 C 
HETATM   22  C18 UNL     1      26.815   6.360  49.088  1.00  0.00     0.105 C 
HETATM   23  S1  UNL     1      25.223   6.522  49.788  1.00  0.00    -0.137 SA
HETATM   24  C19 UNL     1      23.896   6.592  48.639  1.00  0.00     0.078 C 
HETATM   25  C20 UNL     1      22.626   6.414  49.106  1.00  0.00     0.068 C 
HETATM   26  H9  UNL     1      20.215  -1.127  53.232  1.00  0.00     0.166 HD
ENDROOT
BRANCH  25  27
HETATM   27  O2  UNL     1      21.498   6.466  48.214  1.00  0.00    -0.351 OA
BRANCH  27  28
HETATM   28  C21 UNL     1      21.676   5.765  46.969  1.00  0.00     0.201 C 
BRANCH  28  29
HETATM   29  C22 UNL     1      21.182   4.354  47.123  1.00  0.00     0.190 C 
BRANCH  29  30
HETATM   30  O3  UNL     1      22.178   3.406  46.951  1.00  0.00    -0.399 OA
HETATM   31  H27 UNL     1      23.021   3.907  46.749  1.00  0.00     0.209 HD
ENDBRANCH  29  30
ENDBRANCH  28  29
ENDBRANCH  27  28
ENDBRANCH  25  27
TORSDOF 4
ENDMDL
MODEL 2
REMARK VINA RESULT:      -7.4      4.241      8.028
REMARK  4 active torsions:
REMARK  status: ('A' for Active; 'I' for Inactive)
REMARK    1  A    between atoms: C20_25  and  O2_26 
REMARK    2  A    between atoms: O2_26  and  C21_27 
REMARK    3  A    between atoms: C21_27  and  C22_28 
REMARK    4  A    between atoms: C22_28  and  O3_29 
ROOT
HETATM    1  C1  UNL     1      23.402   4.827  53.093  1.00  0.00     0.031 C 
HETATM    2  C2  UNL     1      23.055   4.411  51.581  1.00  0.00     0.118 C 
HETATM    3  C3  UNL     1      24.094   5.089  50.872  1.00  0.00    -0.090 C 
HETATM    4  C4  UNL     1      24.859   5.603  50.357  1.00  0.00    -0.066 C 
HETATM    5  C5  UNL     1      25.854   6.290  49.699  1.00  0.00     0.019 A 
HETATM    6  C6  UNL     1      26.349   4.972  49.389  1.00  0.00     0.021 A 
HETATM    7  C7  UNL     1      27.621   4.886  48.563  1.00  0.00     0.004 A 
HETATM    8  C8  UNL     1      28.257   6.086  48.138  1.00  0.00     0.029 A 
HETATM    9  C9  UNL     1      27.702   7.318  48.483  1.00  0.00     0.034 A 
HETATM   10  C10 UNL     1      26.697   6.911  49.143  1.00  0.00     0.050 A 
HETATM   11  N1  UNL     1      28.287   8.486  48.008  1.00  0.00    -0.351 N 
HETATM   12  C11 UNL     1      27.152   8.932  47.294  1.00  0.00     0.208 C 
HETATM   13  N2  UNL     1      26.129   9.485  46.684  1.00  0.00    -0.238 NA
HETATM   14  C12 UNL     1      25.343   8.502  45.939  1.00  0.00     0.228 C 
HETATM   15  N3  UNL     1      24.082   8.476  45.661  1.00  0.00    -0.279 NA
HETATM   16  C13 UNL     1      23.502   7.357  44.897  1.00  0.00     0.177 C 
HETATM   17  C14 UNL     1      22.436   6.840  45.865  1.00  0.00    -0.007 C 
HETATM   18  C15 UNL     1      22.248   5.712  46.522  1.00  0.00    -0.003 C 
HETATM   19  C16 UNL     1      22.167   4.381  47.197  1.00  0.00     0.194 C 
HETATM   20  O1  UNL     1      21.021   3.741  46.817  1.00  0.00    -0.387 OA
HETATM   21  C17 UNL     1      20.673   2.623  47.529  1.00  0.00     0.178 C 
HETATM   22  C18 UNL     1      20.166   2.859  48.905  1.00  0.00     0.105 C 
HETATM   23  S1  UNL     1      21.173   3.527  50.165  1.00  0.00    -0.137 SA
HETATM   24  C19 UNL     1      22.328   2.412  50.879  1.00  0.00     0.078 C 
HETATM   25  C20 UNL     1      23.337   2.926  51.640  1.00  0.00     0.068 C 
HETATM   26  H9  UNL     1      29.229   8.707  48.237  1.00  0.00     0.166 HD
ENDROOT
BRANCH  25  27
HETATM   27  O2  UNL     1      24.310   2.063  52.256  1.00  0.00    -0.351 OA
BRANCH  27  28
HETATM   28  C21 UNL     1      25.509   1.854  51.487  1.00  0.00     0.201 C 
BRANCH  28  29
HETATM   29  C22 UNL     1      26.705   2.035  52.377  1.00  0.00     0.190 C 
BRANCH  29  30
HETATM   30  O3  UNL     1      27.647   2.908  51.855  1.00  0.00    -0.399 OA
HETATM   31  H27 UNL     1      27.870   2.574  50.937  1.00  0.00     0.209 HD
ENDBRANCH  29  30
ENDBRANCH  28  29
ENDBRANCH  27  28
ENDBRANCH  25  27
TORSDOF 4
ENDMDL
MODEL 3
REMARK VINA RESULT:      -7.2      4.460      7.912
REMARK  4 active torsions:
REMARK  status: ('A' for Active; 'I' for Inactive)
REMARK    1  A    between atoms: C20_25  and  O2_26 
REMARK    2  A    between atoms: O2_26  and  C21_27 
REMARK    3  A    between atoms: C21_27  and  C22_28 
REMARK    4  A    between atoms: C22_28  and  O3_29 
ROOT
HETATM    1  C1  UNL     1      25.134   2.625  53.321  1.00  0.00     0.031 C 
HETATM    2  C2  UNL     1      23.838   1.722  53.037  1.00  0.00     0.118 C 
HETATM    3  C3  UNL     1      23.351   2.322  51.835  1.00  0.00    -0.090 C 
HETATM    4  C4  UNL     1      22.994   2.780  50.954  1.00  0.00    -0.066 C 
HETATM    5  C5  UNL     1      22.535   3.398  49.812  1.00  0.00     0.019 A 
HETATM    6  C6  UNL     1      22.889   2.152  49.179  1.00  0.00     0.021 A 
HETATM    7  C7  UNL     1      22.644   2.041  47.684  1.00  0.00     0.004 A 
HETATM    8  C8  UNL     1      22.085   3.148  46.986  1.00  0.00     0.029 A 
HETATM    9  C9  UNL     1      21.770   4.313  47.684  1.00  0.00     0.034 A 
HETATM   10  C10 UNL     1      22.133   3.958  48.848  1.00  0.00     0.050 A 
HETATM   11  N1  UNL     1      21.161   5.367  47.013  1.00  0.00    -0.351 N 
HETATM   12  C11 UNL     1      19.988   5.377  47.800  1.00  0.00     0.208 C 
HETATM   13  N2  UNL     1      18.909   5.539  48.530  1.00  0.00    -0.238 NA
HETATM   14  C12 UNL     1      18.320   4.259  48.923  1.00  0.00     0.228 C 
HETATM   15  N3  UNL     1      17.645   3.936  49.975  1.00  0.00    -0.279 NA
HETATM   16  C13 UNL     1      17.159   2.558  50.165  1.00  0.00     0.177 C 
HETATM   17  C14 UNL     1      17.806   2.181  51.499  1.00  0.00    -0.007 C 
HETATM   18  C15 UNL     1      18.698   1.287  51.878  1.00  0.00    -0.003 C 
HETATM   19  C16 UNL     1      19.714   0.227  52.156  1.00  0.00     0.194 C 
HETATM   20  O1  UNL     1      19.201  -0.683  53.036  1.00  0.00    -0.387 OA
HETATM   21  C17 UNL     1      20.082  -1.578  53.584  1.00  0.00     0.178 C 
HETATM   22  C18 UNL     1      21.023  -1.031  54.594  1.00  0.00     0.105 C 
HETATM   23  S1  UNL     1      22.246   0.147  54.183  1.00  0.00    -0.137 SA
HETATM   24  C19 UNL     1      23.655  -0.489  53.347  1.00  0.00     0.078 C 
HETATM   25  C20 UNL     1      24.496   0.394  52.736  1.00  0.00     0.068 C 
HETATM   26  H9  UNL     1      21.615   5.804  46.243  1.00  0.00     0.166 HD
ENDROOT
BRANCH  25  27
HETATM   27  O2  UNL     1      25.670  -0.065  52.041  1.00  0.00    -0.351 OA
BRANCH  27  28
HETATM   28  C21 UNL     1      26.621  -0.772  52.858  1.00  0.00     0.201 C 
BRANCH  28  29
HETATM   29  C22 UNL     1      26.800  -2.162  52.317  1.00  0.00     0.190 C 
BRANCH  29  30
HETATM   30  O3  UNL     1      27.743  -2.901  53.014  1.00  0.00    -0.399 OA
HETATM   31  H27 UNL     1      28.581  -2.889  52.465  1.00  0.00     0.209 HD
ENDBRANCH  29  30
ENDBRANCH  28  29
ENDBRANCH  27  28
ENDBRANCH  25  27
TORSDOF 4
ENDMDL
MODEL 4
REMARK VINA RESULT:      -7.1      8.316     10.804
REMARK  4 active torsions:
REMARK  status: ('A' for Active; 'I' for Inactive)
REMARK    1  A    between atoms: C20_25  and  O2_26 
REMARK    2  A    between atoms: O2_26  and  C21_27 
REMARK    3  A    between atoms: C21_27  and  C22_28 
REMARK    4  A    between atoms: C22_28  and  O3_29 
ROOT
HETATM    1  C1  UNL     1      30.736  12.032  49.412  1.00  0.00     0.031 C 
HETATM    2  C2  UNL     1      30.306  11.577  47.934  1.00  0.00     0.118 C 
HETATM    3  C3  UNL     1      30.657  10.192  47.967  1.00  0.00    -0.090 C 
HETATM    4  C4  UNL     1      30.930   9.173  47.999  1.00  0.00    -0.066 C 
HETATM    5  C5  UNL     1      31.304   7.849  48.053  1.00  0.00     0.019 A 
HETATM    6  C6  UNL     1      29.887   7.603  47.969  1.00  0.00     0.021 A 
HETATM    7  C7  UNL     1      29.434   6.153  47.977  1.00  0.00     0.004 A 
HETATM    8  C8  UNL     1      30.409   5.120  48.064  1.00  0.00     0.029 A 
HETATM    9  C9  UNL     1      31.760   5.454  48.138  1.00  0.00     0.034 A 
HETATM   10  C10 UNL     1      31.660   6.720  48.102  1.00  0.00     0.050 A 
HETATM   11  N1  UNL     1      32.713   4.443  48.153  1.00  0.00    -0.351 N 
HETATM   12  C11 UNL     1      33.368   4.847  46.968  1.00  0.00     0.208 C 
HETATM   13  N2  UNL     1      34.106   5.193  45.939  1.00  0.00    -0.238 NA
HETATM   14  C12 UNL     1      33.292   5.648  44.812  1.00  0.00     0.228 C 
HETATM   15  N3  UNL     1      33.552   6.507  43.885  1.00  0.00    -0.279 NA
HETATM   16  C13 UNL     1      32.555   6.822  42.846  1.00  0.00     0.177 C 
HETATM   17  C14 UNL     1      32.385   8.331  43.024  1.00  0.00    -0.007 C 
HETATM   18  C15 UNL     1      31.388   9.117  43.381  1.00  0.00    -0.003 C 
HETATM   19  C16 UNL     1      30.170   9.877  43.798  1.00  0.00     0.194 C 
HETATM   20  O1  UNL     1      29.801  10.737  42.803  1.00  0.00    -0.387 OA
HETATM   21  C17 UNL     1      28.857  11.678  43.119  1.00  0.00     0.178 C 
HETATM   22  C18 UNL     1      29.310  12.785  44.000  1.00  0.00     0.105 C 
HETATM   23  S1  UNL     1      29.804  12.513  45.653  1.00  0.00    -0.137 SA
HETATM   24  C19 UNL     1      28.498  12.255  46.799  1.00  0.00     0.078 C 
HETATM   25  C20 UNL     1      28.806  11.744  48.027  1.00  0.00     0.068 C 
HETATM   26  H9  UNL     1      32.715   3.763  48.880  1.00  0.00     0.166 HD
ENDROOT
BRANCH  25  27
HETATM   27  O2  UNL     1      27.780  11.517  49.010  1.00  0.00    -0.351 OA
BRANCH  27  28
HETATM   28  C21 UNL     1      27.085  10.262  48.881  1.00  0.00     0.201 C 
BRANCH  28  29
HETATM   29  C22 UNL     1      27.620   9.295  49.899  1.00  0.00     0.190 C 
BRANCH  29  30
HETATM   30  O3  UNL     1      27.549   9.774  51.197  1.00  0.00    -0.399 OA
HETATM   31  H27 UNL     1      26.575   9.852  51.422  1.00  0.00     0.209 HD
ENDBRANCH  29  30
ENDBRANCH  28  29
ENDBRANCH  27  28
ENDBRANCH  25  27
TORSDOF 4
ENDMDL
MODEL 5
REMARK VINA RESULT:      -7.1      2.866      5.682
REMARK  4 active torsions:
REMARK  status: ('A' for Active; 'I' for Inactive)
REMARK    1  A    between atoms: C20_25  and  O2_26 
REMARK    2  A    between atoms: O2_26  and  C21_27 
REMARK    3  A    between atoms: C21_27  and  C22_28 
REMARK    4  A    between atoms: C22_28  and  O3_29 
ROOT
HETATM    1  C1  UNL     1      22.044   3.337  46.770  1.00  0.00     0.031 C 
HETATM    2  C2  UNL     1      20.995   3.212  47.980  1.00  0.00     0.118 C 
HETATM    3  C3  UNL     1      21.873   2.898  49.063  1.00  0.00    -0.090 C 
HETATM    4  C4  UNL     1      22.529   2.656  49.854  1.00  0.00    -0.066 C 
HETATM    5  C5  UNL     1      23.397   2.328  50.871  1.00  0.00     0.019 A 
HETATM    6  C6  UNL     1      23.036   3.623  51.391  1.00  0.00     0.021 A 
HETATM    7  C7  UNL     1      23.686   4.052  52.696  1.00  0.00     0.004 A 
HETATM    8  C8  UNL     1      24.604   3.174  53.336  1.00  0.00     0.029 A 
HETATM    9  C9  UNL     1      24.890   1.936  52.760  1.00  0.00     0.034 A 
HETATM   10  C10 UNL     1      24.150   2.015  51.731  1.00  0.00     0.050 A 
HETATM   11  N1  UNL     1      25.733   1.053  53.424  1.00  0.00    -0.351 N 
HETATM   12  C11 UNL     1      24.780   0.019  53.555  1.00  0.00     0.208 C 
HETATM   13  N2  UNL     1      24.006  -1.039  53.641  1.00  0.00    -0.238 NA
HETATM   14  C12 UNL     1      22.629  -0.680  53.980  1.00  0.00     0.228 C 
HETATM   15  N3  UNL     1      21.515  -1.255  53.673  1.00  0.00    -0.279 NA
HETATM   16  C13 UNL     1      20.228  -0.694  54.121  1.00  0.00     0.177 C 
HETATM   17  C14 UNL     1      19.504  -0.474  52.791  1.00  0.00    -0.007 C 
HETATM   18  C15 UNL     1      19.062   0.583  52.139  1.00  0.00    -0.003 C 
HETATM   19  C16 UNL     1      18.615   1.868  51.521  1.00  0.00     0.194 C 
HETATM   20  O1  UNL     1      17.257   1.857  51.367  1.00  0.00    -0.387 OA
HETATM   21  C17 UNL     1      16.714   2.850  50.594  1.00  0.00     0.178 C 
HETATM   22  C18 UNL     1      16.949   2.739  49.132  1.00  0.00     0.105 C 
HETATM   23  S1  UNL     1      18.546   2.867  48.434  1.00  0.00    -0.137 SA
HETATM   24  C19 UNL     1      19.193   4.496  48.324  1.00  0.00     0.078 C 
HETATM   25  C20 UNL     1      20.527   4.646  48.078  1.00  0.00     0.068 C 
HETATM   26  H9  UNL     1      26.672   1.311  53.631  1.00  0.00     0.166 HD
ENDROOT
BRANCH  25  27
HETATM   27  O2  UNL     1      21.114   5.956  47.970  1.00  0.00    -0.351 OA
BRANCH  27  28
HETATM   28  C21 UNL     1      20.839   6.836  49.076  1.00  0.00     0.201 C 
BRANCH  28  29
HETATM   29  C22 UNL     1      22.022   6.849  50.002  1.00  0.00     0.190 C 
BRANCH  29  30
HETATM   30  O3  UNL     1      21.698   7.227  51.295  1.00  0.00    -0.399 OA
HETATM   31  H27 UNL     1      20.948   6.631  51.590  1.00  0.00     0.209 HD
ENDBRANCH  29  30
ENDBRANCH  28  29
ENDBRANCH  27  28
ENDBRANCH  25  27
TORSDOF 4
ENDMDL
MODEL 6
REMARK VINA RESULT:      -6.9      3.447      6.678
REMARK  4 active torsions:
REMARK  status: ('A' for Active; 'I' for Inactive)
REMARK    1  A    between atoms: C20_25  and  O2_26 
REMARK    2  A    between atoms: O2_26  and  C21_27 
REMARK    3  A    between atoms: C21_27  and  C22_28 
REMARK    4  A    between atoms: C22_28  and  O3_29 
ROOT
HETATM    1  C1  UNL     1      28.891   6.484  48.125  1.00  0.00     0.031 C 
HETATM    2  C2  UNL     1      27.454   7.069  47.714  1.00  0.00     0.118 C 
HETATM    3  C3  UNL     1      26.589   6.170  48.411  1.00  0.00    -0.090 C 
HETATM    4  C4  UNL     1      25.960   5.493  48.921  1.00  0.00    -0.066 C 
HETATM    5  C5  UNL     1      25.153   4.593  49.581  1.00  0.00     0.019 A 
HETATM    6  C6  UNL     1      24.800   5.734  50.388  1.00  0.00     0.021 A 
HETATM    7  C7  UNL     1      23.801   5.507  51.510  1.00  0.00     0.004 A 
HETATM    8  C8  UNL     1      23.267   4.204  51.712  1.00  0.00     0.029 A 
HETATM    9  C9  UNL     1      23.665   3.160  50.878  1.00  0.00     0.034 A 
HETATM   10  C10 UNL     1      24.470   3.793  50.128  1.00  0.00     0.050 A 
HETATM   11  N1  UNL     1      23.089   1.905  51.034  1.00  0.00    -0.351 N 
HETATM   12  C11 UNL     1      22.537   1.839  49.735  1.00  0.00     0.208 C 
HETATM   13  N2  UNL     1      22.070   1.634  48.525  1.00  0.00    -0.238 NA
HETATM   14  C12 UNL     1      21.465   2.840  47.962  1.00  0.00     0.228 C 
HETATM   15  N3  UNL     1      21.372   3.237  46.737  1.00  0.00    -0.279 NA
HETATM   16  C13 UNL     1      20.721   4.517  46.406  1.00  0.00     0.177 C 
HETATM   17  C14 UNL     1      21.841   5.255  45.672  1.00  0.00    -0.007 C 
HETATM   18  C15 UNL     1      22.539   6.350  45.905  1.00  0.00    -0.003 C 
HETATM   19  C16 UNL     1      23.244   7.607  46.299  1.00  0.00     0.194 C 
HETATM   20  O1  UNL     1      23.045   8.566  45.346  1.00  0.00    -0.387 OA
HETATM   21  C17 UNL     1      23.820   9.692  45.431  1.00  0.00     0.178 C 
HETATM   22  C18 UNL     1      25.250   9.528  45.065  1.00  0.00     0.105 C 
HETATM   23  S1  UNL     1      26.340   8.530  45.996  1.00  0.00    -0.137 SA
HETATM   24  C19 UNL     1      26.901   9.230  47.506  1.00  0.00     0.078 C 
HETATM   25  C20 UNL     1      27.499   8.408  48.417  1.00  0.00     0.068 C 
HETATM   26  H9  UNL     1      23.176   1.413  51.895  1.00  0.00     0.166 HD
ENDROOT
BRANCH  25  27
HETATM   27  O2  UNL     1      27.985   8.924  49.669  1.00  0.00    -0.351 OA
BRANCH  27  28
HETATM   28  C21 UNL     1      28.690  10.176  49.576  1.00  0.00     0.201 C 
BRANCH  28  29
HETATM   29  C22 UNL     1      30.146   9.905  49.327  1.00  0.00     0.190 C 
BRANCH  29  30
HETATM   30  O3  UNL     1      30.875   9.727  50.492  1.00  0.00    -0.399 OA
HETATM   31  H27 UNL     1      31.384  10.576  50.646  1.00  0.00     0.209 HD
ENDBRANCH  29  30
ENDBRANCH  28  29
ENDBRANCH  27  28
ENDBRANCH  25  27
TORSDOF 4
ENDMDL
MODEL 7
REMARK VINA RESULT:      -6.8      6.853     10.674
REMARK  4 active torsions:
REMARK  status: ('A' for Active; 'I' for Inactive)
REMARK    1  A    between atoms: C20_25  and  O2_26 
REMARK    2  A    between atoms: O2_26  and  C21_27 
REMARK    3  A    between atoms: C21_27  and  C22_28 
REMARK    4  A    between atoms: C22_28  and  O3_29 
ROOT
HETATM    1  C1  UNL     1      27.517   9.200  50.261  1.00  0.00     0.031 C 
HETATM    2  C2  UNL     1      27.790   9.055  48.686  1.00  0.00     0.118 C 
HETATM    3  C3  UNL     1      29.127   8.552  48.690  1.00  0.00    -0.090 C 
HETATM    4  C4  UNL     1      30.119   8.191  48.705  1.00  0.00    -0.066 C 
HETATM    5  C5  UNL     1      31.417   7.734  48.742  1.00  0.00     0.019 A 
HETATM    6  C6  UNL     1      30.843   6.520  48.219  1.00  0.00     0.021 A 
HETATM    7  C7  UNL     1      31.792   5.363  47.954  1.00  0.00     0.004 A 
HETATM    8  C8  UNL     1      33.179   5.524  48.229  1.00  0.00     0.029 A 
HETATM    9  C9  UNL     1      33.644   6.739  48.731  1.00  0.00     0.034 A 
HETATM   10  C10 UNL     1      32.545   7.371  48.787  1.00  0.00     0.050 A 
HETATM   11  N1  UNL     1      35.008   6.916  48.933  1.00  0.00    -0.351 N 
HETATM   12  C11 UNL     1      35.143   8.002  48.038  1.00  0.00     0.208 C 
HETATM   13  N2  UNL     1      35.359   9.074  47.312  1.00  0.00    -0.238 NA
HETATM   14  C12 UNL     1      34.633   9.028  46.043  1.00  0.00     0.228 C 
HETATM   15  N3  UNL     1      34.149   9.982  45.320  1.00  0.00    -0.279 NA
HETATM   16  C13 UNL     1      33.431   9.689  44.067  1.00  0.00     0.177 C 
HETATM   17  C14 UNL     1      32.071  10.339  44.329  1.00  0.00    -0.007 C 
HETATM   18  C15 UNL     1      30.836   9.891  44.447  1.00  0.00    -0.003 C 
HETATM   19  C16 UNL     1      29.495   9.240  44.554  1.00  0.00     0.194 C 
HETATM   20  O1  UNL     1      28.669   9.725  43.580  1.00  0.00    -0.387 OA
HETATM   21  C17 UNL     1      27.338   9.417  43.690  1.00  0.00     0.178 C 
HETATM   22  C18 UNL     1      26.594  10.118  44.766  1.00  0.00     0.105 C 
HETATM   23  S1  UNL     1      26.943   9.861  46.458  1.00  0.00    -0.137 SA
HETATM   24  C19 UNL     1      26.329   8.360  47.135  1.00  0.00     0.078 C 
HETATM   25  C20 UNL     1      26.812   7.952  48.345  1.00  0.00     0.068 C 
HETATM   26  H9  UNL     1      35.507   6.326  49.559  1.00  0.00     0.166 HD
ENDROOT
BRANCH  25  27
HETATM   27  O2  UNL     1      26.344   6.735  48.953  1.00  0.00    -0.351 OA
BRANCH  27  28
HETATM   28  C21 UNL     1      27.154   5.575  48.691  1.00  0.00     0.201 C 
BRANCH  28  29
HETATM   29  C22 UNL     1      26.517   4.373  49.328  1.00  0.00     0.190 C 
BRANCH  29  30
HETATM   30  O3  UNL     1      27.268   3.843  50.366  1.00  0.00    -0.399 OA
HETATM   31  H27 UNL     1      26.963   4.300  51.204  1.00  0.00     0.209 HD
ENDBRANCH  29  30
ENDBRANCH  28  29
ENDBRANCH  27  28
ENDBRANCH  25  27
TORSDOF 4
ENDMDL
MODEL 8
REMARK VINA RESULT:      -6.5      6.192      9.460
REMARK  4 active torsions:
REMARK  status: ('A' for Active; 'I' for Inactive)
REMARK    1  A    between atoms: C20_25  and  O2_26 
REMARK    2  A    between atoms: O2_26  and  C21_27 
REMARK    3  A    between atoms: C21_27  and  C22_28 
REMARK    4  A    between atoms: C22_28  and  O3_29 
ROOT
HETATM    1  C1  UNL     1      31.497   5.121  47.634  1.00  0.00     0.031 C 
HETATM    2  C2  UNL     1      30.953   6.415  46.856  1.00  0.00     0.118 C 
HETATM    3  C3  UNL     1      29.650   6.544  47.429  1.00  0.00    -0.090 C 
HETATM    4  C4  UNL     1      28.686   6.624  47.850  1.00  0.00    -0.066 C 
HETATM    5  C5  UNL     1      27.426   6.705  48.401  1.00  0.00     0.019 A 
HETATM    6  C6  UNL     1      27.927   7.922  48.988  1.00  0.00     0.021 A 
HETATM    7  C7  UNL     1      26.975   8.707  49.875  1.00  0.00     0.004 A 
HETATM    8  C8  UNL     1      25.656   8.217  50.083  1.00  0.00     0.029 A 
HETATM    9  C9  UNL     1      25.257   7.030  49.469  1.00  0.00     0.034 A 
HETATM   10  C10 UNL     1      26.334   6.745  48.859  1.00  0.00     0.050 A 
HETATM   11  N1  UNL     1      23.947   6.591  49.619  1.00  0.00    -0.351 N 
HETATM   12  C11 UNL     1      23.629   6.625  48.243  1.00  0.00     0.208 C 
HETATM   13  N2  UNL     1      23.261   6.523  46.986  1.00  0.00    -0.238 NA
HETATM   14  C12 UNL     1      23.752   7.643  46.183  1.00  0.00     0.228 C 
HETATM   15  N3  UNL     1      24.075   7.699  44.935  1.00  0.00    -0.279 NA
HETATM   16  C13 UNL     1      24.567   8.954  44.339  1.00  0.00     0.177 C 
HETATM   17  C14 UNL     1      25.935   8.529  43.803  1.00  0.00    -0.007 C 
HETATM   18  C15 UNL     1      27.182   8.863  44.074  1.00  0.00    -0.003 C 
HETATM   19  C16 UNL     1      28.536   9.341  44.487  1.00  0.00     0.194 C 
HETATM   20  O1  UNL     1      29.164   9.921  43.421  1.00  0.00    -0.387 OA
HETATM   21  C17 UNL     1      30.501  10.190  43.563  1.00  0.00     0.178 C 
HETATM   22  C18 UNL     1      31.407   9.014  43.545  1.00  0.00     0.105 C 
HETATM   23  S1  UNL     1      31.370   7.792  44.792  1.00  0.00    -0.137 SA
HETATM   24  C19 UNL     1      32.131   8.240  46.311  1.00  0.00     0.078 C 
HETATM   25  C20 UNL     1      31.881   7.472  47.411  1.00  0.00     0.068 C 
HETATM   26  H9  UNL     1      23.583   6.390  50.523  1.00  0.00     0.166 HD
ENDROOT
BRANCH  25  27
HETATM   27  O2  UNL     1      32.480   7.786  48.681  1.00  0.00    -0.351 OA
BRANCH  27  28
HETATM   28  C21 UNL     1      31.548   8.147  49.718  1.00  0.00     0.201 C 
BRANCH  28  29
HETATM   29  C22 UNL     1      30.935   9.478  49.388  1.00  0.00     0.190 C 
BRANCH  29  30
HETATM   30  O3  UNL     1      30.754  10.285  50.500  1.00  0.00    -0.399 OA
HETATM   31  H27 UNL     1      31.659  10.626  50.759  1.00  0.00     0.209 HD
ENDBRANCH  29  30
ENDBRANCH  28  29
ENDBRANCH  27  28
ENDBRANCH  25  27
TORSDOF 4
ENDMDL
MODEL 9
REMARK VINA RESULT:      -6.2      4.694      7.917
REMARK  4 active torsions:
REMARK  status: ('A' for Active; 'I' for Inactive)
REMARK    1  A    between atoms: C20_25  and  O2_26 
REMARK    2  A    between atoms: O2_26  and  C21_27 
REMARK    3  A    between atoms: C21_27  and  C22_28 
REMARK    4  A    between atoms: C22_28  and  O3_29 
ROOT
HETATM    1  C1  UNL     1      29.930   7.471  46.881  1.00  0.00     0.031 C 
HETATM    2  C2  UNL     1      28.528   8.084  46.394  1.00  0.00     0.118 C 
HETATM    3  C3  UNL     1      27.627   7.445  47.300  1.00  0.00    -0.090 C 
HETATM    4  C4  UNL     1      26.969   6.959  47.966  1.00  0.00    -0.066 C 
HETATM    5  C5  UNL     1      26.123   6.306  48.835  1.00  0.00     0.019 A 
HETATM    6  C6  UNL     1      25.908   7.625  49.377  1.00  0.00     0.021 A 
HETATM    7  C7  UNL     1      24.951   7.744  50.550  1.00  0.00     0.004 A 
HETATM    8  C8  UNL     1      24.319   6.573  51.054  1.00  0.00     0.029 A 
HETATM    9  C9  UNL     1      24.585   5.339  50.463  1.00  0.00     0.034 A 
HETATM   10  C10 UNL     1      25.403   5.714  49.567  1.00  0.00     0.050 A 
HETATM   11  N1  UNL     1      23.914   4.208  50.913  1.00  0.00    -0.351 N 
HETATM   12  C11 UNL     1      23.293   3.911  49.679  1.00  0.00     0.208 C 
HETATM   13  N2  UNL     1      22.751   3.490  48.560  1.00  0.00    -0.238 NA
HETATM   14  C12 UNL     1      22.222   4.594  47.760  1.00  0.00     0.228 C 
HETATM   15  N3  UNL     1      22.102   4.719  46.481  1.00  0.00    -0.279 NA
HETATM   16  C13 UNL     1      21.546   5.951  45.892  1.00  0.00     0.177 C 
HETATM   17  C14 UNL     1      22.687   6.401  44.978  1.00  0.00    -0.007 C 
HETATM   18  C15 UNL     1      23.486   7.450  44.939  1.00  0.00    -0.003 C 
HETATM   19  C16 UNL     1      24.313   8.691  45.022  1.00  0.00     0.194 C 
HETATM   20  O1  UNL     1      24.148   9.431  43.885  1.00  0.00    -0.387 OA
HETATM   21  C17 UNL     1      25.020  10.470  43.693  1.00  0.00     0.178 C 
HETATM   22  C18 UNL     1      26.411  10.096  43.329  1.00  0.00     0.105 C 
HETATM   23  S1  UNL     1      27.457   9.229  44.427  1.00  0.00    -0.137 SA
HETATM   24  C19 UNL     1      28.151  10.189  45.725  1.00  0.00     0.078 C 
HETATM   25  C20 UNL     1      28.722   9.534  46.777  1.00  0.00     0.068 C 
HETATM   26  H9  UNL     1      24.001   3.912  51.859  1.00  0.00     0.166 HD
ENDROOT
BRANCH  25  27
HETATM   27  O2  UNL     1      29.312  10.266  47.868  1.00  0.00    -0.351 OA
BRANCH  27  28
HETATM   28  C21 UNL     1      29.182  11.696  47.779  1.00  0.00     0.201 C 
BRANCH  28  29
HETATM   29  C22 UNL     1      28.111  12.155  48.728  1.00  0.00     0.190 C 
BRANCH  29  30
HETATM   30  O3  UNL     1      28.596  12.945  49.757  1.00  0.00    -0.399 OA
HETATM   31  H27 UNL     1      29.577  12.755  49.829  1.00  0.00     0.209 HD
ENDBRANCH  29  30
ENDBRANCH  28  29
ENDBRANCH  27  28
ENDBRANCH  25  27
TORSDOF 4
ENDMDL
