MODEL 1
REMARK VINA RESULT:      -8.1      0.000      0.000
REMARK  9 active torsions:
REMARK  status: ('A' for Active; 'I' for Inactive)
REMARK    1  A    between atoms: C2_2  and  C3_3 
REMARK    2  A    between atoms: C2_2  and  N2_13 
REMARK    3  A    between atoms: C4_4  and  C5_5 
REMARK    4  A    between atoms: C5_5  and  C6_6 
REMARK    5  A    between atoms: N2_13  and  C11_14 
REMARK    6  A    between atoms: C11_14  and  N3_15 
REMARK    7  A    between atoms: N3_15  and  C12_16 
REMARK    8  A    between atoms: C19_25  and  N4_27 
REMARK    9  A    between atoms: C20_26  and  N4_27 
ROOT
HETATM    1  C11 UNL     1      22.407   1.985  50.762  1.00  0.00     0.296 A 
HETATM    2  C18 UNL     1      22.401   2.023  49.801  1.00  0.00     0.277 A 
HETATM    3  C19 UNL     1      22.381   2.054  49.128  1.00  0.00     0.277 A 
HETATM    4  C20 UNL     1      22.335   2.102  48.222  1.00  0.00     0.290 A 
HETATM    5  N4  UNL     1      21.056   2.422  49.356  1.00  0.00     0.027 N 
ENDROOT
BRANCH   1   6
HETATM    6  N2  UNL     1      21.872   3.360  51.444  1.00  0.00    -0.334 N 
HETATM    7  H13 UNL     1      20.915   3.708  51.570  1.00  0.00     0.164 HD
BRANCH   6   8
HETATM    8  C2  UNL     1      23.065   4.015  51.853  1.00  0.00     0.076 C 
HETATM    9  C1  UNL     1      23.172   5.305  51.578  1.00  0.00     0.053 C 
BRANCH   8  10
HETATM   10  C3  UNL     1      24.148   3.370  52.537  1.00  0.00    -0.050 C 
HETATM   11  C4  UNL     1      25.051   2.830  53.120  1.00  0.00    -0.097 C 
BRANCH  11  12
HETATM   12  C5  UNL     1      26.152   2.181  53.835  1.00  0.00     0.138 C 
BRANCH  12  13
HETATM   13  C6  UNL     1      27.319   1.913  52.877  1.00  0.00     0.300 C 
HETATM   14  N1  UNL     1      28.561   2.384  53.452  1.00  0.00     0.096 N 
HETATM   15  C7  UNL     1      29.111   1.485  54.424  1.00  0.00     0.271 C 
HETATM   16  H6  UNL     1      28.455   3.350  53.830  1.00  0.00     0.316 HD
HETATM   17  C8  UNL     1      29.564   0.224  53.721  1.00  0.00     0.037 C 
HETATM   18  C9  UNL     1      28.332  -0.507  53.261  1.00  0.00     0.082 C 
HETATM   19  C10 UNL     1      27.429   0.468  52.614  1.00  0.00     0.160 C 
HETATM   20  O1  UNL     1      26.675   0.056  51.756  1.00  0.00    -0.296 OA
ENDBRANCH  12  13
ENDBRANCH  11  12
ENDBRANCH   8  10
ENDBRANCH   6   8
ENDBRANCH   1   6
BRANCH   1  21
HETATM   21  N3  UNL     1      21.220   1.109  51.426  1.00  0.00    -0.341 N 
HETATM   22  H14 UNL     1      20.195   1.106  51.138  1.00  0.00     0.164 HD
BRANCH  21  23
HETATM   23  C12 UNL     1      21.542   0.247  52.504  1.00  0.00     0.033 A 
HETATM   24  C13 UNL     1      20.589  -0.477  53.193  1.00  0.00     0.032 A 
HETATM   25  C14 UNL     1      20.950  -1.294  54.241  1.00  0.00     0.046 A 
HETATM   26  C15 UNL     1      22.252  -1.447  54.669  1.00  0.00     0.138 A 
HETATM   27  F1  UNL     1      22.505  -2.272  55.705  1.00  0.00    -0.204 F 
HETATM   28  C16 UNL     1      23.230  -0.736  53.999  1.00  0.00     0.074 A 
HETATM   29 CL1  UNL     1      24.866  -0.921  54.527  1.00  0.00    -0.081 Cl
HETATM   30  C17 UNL     1      22.847   0.078  52.952  1.00  0.00     0.056 A 
ENDBRANCH  21  23
ENDBRANCH   1  21
TORSDOF 9
ENDMDL
MODEL 2
REMARK VINA RESULT:      -8.1      3.686      5.220
REMARK  9 active torsions:
REMARK  status: ('A' for Active; 'I' for Inactive)
REMARK    1  A    between atoms: C2_2  and  C3_3 
REMARK    2  A    between atoms: C2_2  and  N2_13 
REMARK    3  A    between atoms: C4_4  and  C5_5 
REMARK    4  A    between atoms: C5_5  and  C6_6 
REMARK    5  A    between atoms: N2_13  and  C11_14 
REMARK    6  A    between atoms: C11_14  and  N3_15 
REMARK    7  A    between atoms: N3_15  and  C12_16 
REMARK    8  A    between atoms: C19_25  and  N4_27 
REMARK    9  A    between atoms: C20_26  and  N4_27 
ROOT
HETATM    1  C11 UNL     1      22.233   2.626  51.579  1.00  0.00     0.296 A 
HETATM    2  C18 UNL     1      21.390   3.076  51.680  1.00  0.00     0.277 A 
HETATM    3  C19 UNL     1      20.792   3.382  51.738  1.00  0.00     0.277 A 
HETATM    4  C20 UNL     1      19.978   3.782  51.803  1.00  0.00     0.290 A 
HETATM    5  N4  UNL     1      20.433   2.500  50.720  1.00  0.00     0.027 N 
ENDROOT
BRANCH   1   6
HETATM    6  N2  UNL     1      22.093   1.009  51.680  1.00  0.00    -0.334 N 
HETATM    7  H13 UNL     1      21.598   0.348  51.072  1.00  0.00     0.164 HD
BRANCH   6   8
HETATM    8  C2  UNL     1      22.839   0.683  52.846  1.00  0.00     0.076 C 
HETATM    9  C1  UNL     1      22.201   0.046  53.814  1.00  0.00     0.053 C 
BRANCH   8  10
HETATM   10  C3  UNL     1      24.225   1.000  53.034  1.00  0.00    -0.050 C 
HETATM   11  C4  UNL     1      25.389   1.266  53.182  1.00  0.00    -0.097 C 
BRANCH  11  12
HETATM   12  C5  UNL     1      26.808   1.581  53.358  1.00  0.00     0.138 C 
BRANCH  12  13
HETATM   13  C6  UNL     1      27.441   0.622  54.373  1.00  0.00     0.300 C 
HETATM   14  N1  UNL     1      27.139  -0.750  54.026  1.00  0.00     0.096 N 
HETATM   15  C7  UNL     1      27.969  -1.264  52.976  1.00  0.00     0.271 C 
HETATM   16  H6  UNL     1      26.125  -0.867  53.814  1.00  0.00     0.316 HD
HETATM   17  C8  UNL     1      29.387  -1.388  53.491  1.00  0.00     0.037 C 
HETATM   18  C9  UNL     1      29.925   0.003  53.682  1.00  0.00     0.082 C 
HETATM   19  C10 UNL     1      28.903   0.803  54.390  1.00  0.00     0.160 C 
HETATM   20  O1  UNL     1      29.286   1.729  55.077  1.00  0.00    -0.296 OA
ENDBRANCH  12  13
ENDBRANCH  11  12
ENDBRANCH   8  10
ENDBRANCH   6   8
ENDBRANCH   1   6
BRANCH   1  21
HETATM   21  N3  UNL     1      22.800   2.553  50.066  1.00  0.00    -0.341 N 
HETATM   22  H14 UNL     1      22.405   1.973  49.265  1.00  0.00     0.164 HD
BRANCH  21  23
HETATM   23  C12 UNL     1      23.941   3.328  49.736  1.00  0.00     0.033 A 
HETATM   24  C13 UNL     1      25.232   2.896  49.971  1.00  0.00     0.032 A 
HETATM   25  C14 UNL     1      26.308   3.690  49.642  1.00  0.00     0.046 A 
HETATM   26  C15 UNL     1      26.182   4.939  49.072  1.00  0.00     0.138 A 
HETATM   27  F1  UNL     1      27.298   5.641  48.786  1.00  0.00    -0.204 F 
HETATM   28  C16 UNL     1      24.902   5.400  48.824  1.00  0.00     0.074 A 
HETATM   29 CL1  UNL     1      24.734   6.965  48.109  1.00  0.00    -0.081 Cl
HETATM   30  C17 UNL     1      23.838   4.589  49.162  1.00  0.00     0.056 A 
ENDBRANCH  21  23
ENDBRANCH   1  21
TORSDOF 9
ENDMDL
MODEL 3
REMARK VINA RESULT:      -7.9      1.929      2.327
REMARK  9 active torsions:
REMARK  status: ('A' for Active; 'I' for Inactive)
REMARK    1  A    between atoms: C2_2  and  C3_3 
REMARK    2  A    between atoms: C2_2  and  N2_13 
REMARK    3  A    between atoms: C4_4  and  C5_5 
REMARK    4  A    between atoms: C5_5  and  C6_6 
REMARK    5  A    between atoms: N2_13  and  C11_14 
REMARK    6  A    between atoms: C11_14  and  N3_15 
REMARK    7  A    between atoms: N3_15  and  C12_16 
REMARK    8  A    between atoms: C19_25  and  N4_27 
REMARK    9  A    between atoms: C20_26  and  N4_27 
ROOT
HETATM    1  C11 UNL     1      22.524   2.381  50.224  1.00  0.00     0.296 A 
HETATM    2  C18 UNL     1      22.407   2.244  49.280  1.00  0.00     0.277 A 
HETATM    3  C19 UNL     1      22.313   2.160  48.618  1.00  0.00     0.277 A 
HETATM    4  C20 UNL     1      22.171   2.061  47.726  1.00  0.00     0.290 A 
HETATM    5  N4  UNL     1      21.332   3.132  48.808  1.00  0.00     0.027 N 
ENDROOT
BRANCH   1   6
HETATM    6  N2  UNL     1      22.750   3.945  50.605  1.00  0.00    -0.334 N 
HETATM    7  H13 UNL     1      22.350   4.792  50.189  1.00  0.00     0.164 HD
BRANCH   6   8
HETATM    8  C2  UNL     1      23.664   3.894  51.693  1.00  0.00     0.076 C 
HETATM    9  C1  UNL     1      23.446   4.717  52.706  1.00  0.00     0.053 C 
BRANCH   8  10
HETATM   10  C3  UNL     1      24.796   3.016  51.758  1.00  0.00    -0.050 C 
HETATM   11  C4  UNL     1      25.744   2.279  51.823  1.00  0.00    -0.097 C 
BRANCH  11  12
HETATM   12  C5  UNL     1      26.905   1.388  51.908  1.00  0.00     0.138 C 
BRANCH  12  13
HETATM   13  C6  UNL     1      27.190   1.029  53.370  1.00  0.00     0.300 C 
HETATM   14  N1  UNL     1      27.088  -0.401  53.568  1.00  0.00     0.096 N 
HETATM   15  C7  UNL     1      28.252  -1.116  53.132  1.00  0.00     0.271 C 
HETATM   16  H6  UNL     1      26.215  -0.776  53.136  1.00  0.00     0.316 HD
HETATM   17  C8  UNL     1      29.408  -0.769  54.043  1.00  0.00     0.037 C 
HETATM   18  C9  UNL     1      29.785   0.662  53.773  1.00  0.00     0.082 C 
HETATM   19  C10 UNL     1      28.547   1.469  53.738  1.00  0.00     0.160 C 
HETATM   20  O1  UNL     1      28.628   2.641  54.046  1.00  0.00    -0.296 OA
ENDBRANCH  12  13
ENDBRANCH  11  12
ENDBRANCH   8  10
ENDBRANCH   6   8
ENDBRANCH   1   6
BRANCH   1  21
HETATM   21  N3  UNL     1      21.174   2.286  51.109  1.00  0.00    -0.341 N 
HETATM   22  H14 UNL     1      20.345   2.954  51.078  1.00  0.00     0.164 HD
BRANCH  21  23
HETATM   23  C12 UNL     1      21.046   1.217  52.032  1.00  0.00     0.033 A 
HETATM   24  C13 UNL     1      22.107   0.743  52.777  1.00  0.00     0.032 A 
HETATM   25  C14 UNL     1      21.934  -0.306  53.654  1.00  0.00     0.046 A 
HETATM   26  C15 UNL     1      20.726  -0.943  53.847  1.00  0.00     0.138 A 
HETATM   27  F1  UNL     1      20.659  -1.960  54.729  1.00  0.00    -0.204 F 
HETATM   28  C16 UNL     1      19.645  -0.490  53.114  1.00  0.00     0.074 A 
HETATM   29 CL1  UNL     1      18.125  -1.281  53.348  1.00  0.00    -0.081 Cl
HETATM   30  C17 UNL     1      19.838   0.561  52.241  1.00  0.00     0.056 A 
ENDBRANCH  21  23
ENDBRANCH   1  21
TORSDOF 9
ENDMDL
MODEL 4
REMARK VINA RESULT:      -7.8      3.268      5.711
REMARK  9 active torsions:
REMARK  status: ('A' for Active; 'I' for Inactive)
REMARK    1  A    between atoms: C2_2  and  C3_3 
REMARK    2  A    between atoms: C2_2  and  N2_13 
REMARK    3  A    between atoms: C4_4  and  C5_5 
REMARK    4  A    between atoms: C5_5  and  C6_6 
REMARK    5  A    between atoms: N2_13  and  C11_14 
REMARK    6  A    between atoms: C11_14  and  N3_15 
REMARK    7  A    between atoms: N3_15  and  C12_16 
REMARK    8  A    between atoms: C19_25  and  N4_27 
REMARK    9  A    between atoms: C20_26  and  N4_27 
ROOT
HETATM    1  C11 UNL     1      22.617  -0.101  52.819  1.00  0.00     0.296 A 
HETATM    2  C18 UNL     1      22.151  -0.704  53.404  1.00  0.00     0.277 A 
HETATM    3  C19 UNL     1      21.820  -1.115  53.824  1.00  0.00     0.277 A 
HETATM    4  C20 UNL     1      21.369  -1.652  54.402  1.00  0.00     0.290 A 
HETATM    5  N4  UNL     1      21.586   0.070  54.521  1.00  0.00     0.027 N 
ENDROOT
BRANCH   1   6
HETATM    6  N2  UNL     1      21.693   1.151  52.349  1.00  0.00    -0.334 N 
HETATM    7  H13 UNL     1      21.043   1.733  52.888  1.00  0.00     0.164 HD
BRANCH   6   8
HETATM    8  C2  UNL     1      21.989   1.281  50.965  1.00  0.00     0.076 C 
HETATM    9  C1  UNL     1      21.239   0.593  50.118  1.00  0.00     0.053 C 
BRANCH   8  10
HETATM   10  C3  UNL     1      23.037   2.103  50.435  1.00  0.00    -0.050 C 
HETATM   11  C4  UNL     1      23.912   2.802  49.994  1.00  0.00    -0.097 C 
BRANCH  11  12
HETATM   12  C5  UNL     1      24.971   3.655  49.450  1.00  0.00     0.138 C 
BRANCH  12  13
HETATM   13  C6  UNL     1      24.800   5.094  49.951  1.00  0.00     0.300 C 
HETATM   14  N1  UNL     1      26.089   5.733  50.098  1.00  0.00     0.096 N 
HETATM   15  C7  UNL     1      26.636   6.198  48.857  1.00  0.00     0.271 C 
HETATM   16  H6  UNL     1      26.756   5.116  50.611  1.00  0.00     0.316 HD
HETATM   17  C8  UNL     1      25.789   7.344  48.349  1.00  0.00     0.037 C 
HETATM   18  C9  UNL     1      24.461   6.775  47.929  1.00  0.00     0.082 C 
HETATM   19  C10 UNL     1      23.988   5.865  48.993  1.00  0.00     0.160 C 
HETATM   20  O1  UNL     1      22.789   5.715  49.117  1.00  0.00    -0.296 OA
ENDBRANCH  12  13
ENDBRANCH  11  12
ENDBRANCH   8  10
ENDBRANCH   6   8
ENDBRANCH   1   6
BRANCH   1  21
HETATM   21  N3  UNL     1      23.691   0.870  53.540  1.00  0.00    -0.341 N 
HETATM   22  H14 UNL     1      23.475   1.736  54.121  1.00  0.00     0.164 HD
BRANCH  21  23
HETATM   23  C12 UNL     1      25.069   0.568  53.406  1.00  0.00     0.033 A 
HETATM   24  C13 UNL     1      25.532  -0.703  53.125  1.00  0.00     0.032 A 
HETATM   25  C14 UNL     1      26.883  -0.948  53.014  1.00  0.00     0.046 A 
HETATM   26  C15 UNL     1      27.847   0.026  53.171  1.00  0.00     0.138 A 
HETATM   27  F1  UNL     1      29.145  -0.315  53.042  1.00  0.00    -0.204 F 
HETATM   28  C16 UNL     1      27.414   1.308  53.452  1.00  0.00     0.074 A 
HETATM   29 CL1  UNL     1      28.614   2.537  53.651  1.00  0.00    -0.081 Cl
HETATM   30  C17 UNL     1      26.057   1.533  53.560  1.00  0.00     0.056 A 
ENDBRANCH  21  23
ENDBRANCH   1  21
TORSDOF 9
ENDMDL
MODEL 5
REMARK VINA RESULT:      -7.6      5.159      6.521
REMARK  9 active torsions:
REMARK  status: ('A' for Active; 'I' for Inactive)
REMARK    1  A    between atoms: C2_2  and  C3_3 
REMARK    2  A    between atoms: C2_2  and  N2_13 
REMARK    3  A    between atoms: C4_4  and  C5_5 
REMARK    4  A    between atoms: C5_5  and  C6_6 
REMARK    5  A    between atoms: N2_13  and  C11_14 
REMARK    6  A    between atoms: C11_14  and  N3_15 
REMARK    7  A    between atoms: N3_15  and  C12_16 
REMARK    8  A    between atoms: C19_25  and  N4_27 
REMARK    9  A    between atoms: C20_26  and  N4_27 
ROOT
HETATM    1  C11 UNL     1      25.108   2.696  51.453  1.00  0.00     0.296 A 
HETATM    2  C18 UNL     1      24.185   2.611  51.709  1.00  0.00     0.277 A 
HETATM    3  C19 UNL     1      23.540   2.565  51.898  1.00  0.00     0.277 A 
HETATM    4  C20 UNL     1      22.672   2.519  52.164  1.00  0.00     0.290 A 
HETATM    5  N4  UNL     1      23.851   3.710  52.630  1.00  0.00     0.027 N 
ENDROOT
BRANCH   1   6
HETATM    6  N2  UNL     1      25.459   4.173  50.869  1.00  0.00    -0.334 N 
HETATM    7  H13 UNL     1      25.142   5.099  51.176  1.00  0.00     0.164 HD
BRANCH   6   8
HETATM    8  C2  UNL     1      26.343   3.902  49.790  1.00  0.00     0.076 C 
HETATM    9  C1  UNL     1      26.507   2.634  49.446  1.00  0.00     0.053 C 
BRANCH   8  10
HETATM   10  C3  UNL     1      27.059   4.906  49.059  1.00  0.00    -0.050 C 
HETATM   11  C4  UNL     1      27.653   5.755  48.448  1.00  0.00    -0.097 C 
BRANCH  11  12
HETATM   12  C5  UNL     1      28.368   6.790  47.697  1.00  0.00     0.138 C 
BRANCH  12  13
HETATM   13  C6  UNL     1      29.442   7.436  48.579  1.00  0.00     0.300 C 
HETATM   14  N1  UNL     1      30.260   6.420  49.205  1.00  0.00     0.096 N 
HETATM   15  C7  UNL     1      31.259   5.880  48.330  1.00  0.00     0.271 C 
HETATM   16  H6  UNL     1      29.668   5.673  49.629  1.00  0.00     0.316 HD
HETATM   17  C8  UNL     1      32.285   6.953  48.038  1.00  0.00     0.037 C 
HETATM   18  C9  UNL     1      31.622   7.992  47.175  1.00  0.00     0.082 C 
HETATM   19  C10 UNL     1      30.303   8.309  47.762  1.00  0.00     0.160 C 
HETATM   20  O1  UNL     1      29.847   9.417  47.562  1.00  0.00    -0.296 OA
ENDBRANCH  12  13
ENDBRANCH  11  12
ENDBRANCH   8  10
ENDBRANCH   6   8
ENDBRANCH   1   6
BRANCH   1  21
HETATM   21  N3  UNL     1      26.153   2.854  52.677  1.00  0.00    -0.341 N 
HETATM   22  H14 UNL     1      26.253   3.694  53.324  1.00  0.00     0.164 HD
BRANCH  21  23
HETATM   23  C12 UNL     1      27.043   1.783  52.945  1.00  0.00     0.033 A 
HETATM   24  C13 UNL     1      28.299   1.972  53.485  1.00  0.00     0.032 A 
HETATM   25  C14 UNL     1      29.132   0.900  53.718  1.00  0.00     0.046 A 
HETATM   26  C15 UNL     1      28.784  -0.405  53.437  1.00  0.00     0.138 A 
HETATM   27  F1  UNL     1      29.670  -1.387  53.701  1.00  0.00    -0.204 F 
HETATM   28  C16 UNL     1      27.532  -0.627  52.896  1.00  0.00     0.074 A 
HETATM   29 CL1  UNL     1      27.086  -2.259  52.540  1.00  0.00    -0.081 Cl
HETATM   30  C17 UNL     1      26.713   0.461  52.670  1.00  0.00     0.056 A 
ENDBRANCH  21  23
ENDBRANCH   1  21
TORSDOF 9
ENDMDL
MODEL 6
REMARK VINA RESULT:      -7.6      2.711      5.985
REMARK  9 active torsions:
REMARK  status: ('A' for Active; 'I' for Inactive)
REMARK    1  A    between atoms: C2_2  and  C3_3 
REMARK    2  A    between atoms: C2_2  and  N2_13 
REMARK    3  A    between atoms: C4_4  and  C5_5 
REMARK    4  A    between atoms: C5_5  and  C6_6 
REMARK    5  A    between atoms: N2_13  and  C11_14 
REMARK    6  A    between atoms: C11_14  and  N3_15 
REMARK    7  A    between atoms: N3_15  and  C12_16 
REMARK    8  A    between atoms: C19_25  and  N4_27 
REMARK    9  A    between atoms: C20_26  and  N4_27 
ROOT
HETATM    1  C11 UNL     1      25.044   4.462  50.370  1.00  0.00     0.296 A 
HETATM    2  C18 UNL     1      25.302   5.344  50.089  1.00  0.00     0.277 A 
HETATM    3  C19 UNL     1      25.495   5.956  49.883  1.00  0.00     0.277 A 
HETATM    4  C20 UNL     1      25.771   6.773  49.594  1.00  0.00     0.290 A 
HETATM    5  N4  UNL     1      26.473   5.230  49.205  1.00  0.00     0.027 N 
ENDROOT
BRANCH   1   6
HETATM    6  N2  UNL     1      24.826   3.447  49.119  1.00  0.00    -0.334 N 
HETATM    7  H13 UNL     1      25.500   3.079  48.440  1.00  0.00     0.164 HD
BRANCH   6   8
HETATM    8  C2  UNL     1      23.435   3.159  49.163  1.00  0.00     0.076 C 
HETATM    9  C1  UNL     1      22.647   3.856  48.359  1.00  0.00     0.053 C 
BRANCH   8  10
HETATM   10  C3  UNL     1      22.839   2.172  50.016  1.00  0.00    -0.050 C 
HETATM   11  C4  UNL     1      22.338   1.352  50.739  1.00  0.00    -0.097 C 
BRANCH  11  12
HETATM   12  C5  UNL     1      21.735   0.353  51.625  1.00  0.00     0.138 C 
BRANCH  12  13
HETATM   13  C6  UNL     1      20.534   0.957  52.362  1.00  0.00     0.300 C 
HETATM   14  N1  UNL     1      19.455   1.222  51.435  1.00  0.00     0.096 N 
HETATM   15  C7  UNL     1      18.699   0.052  51.096  1.00  0.00     0.271 C 
HETATM   16  H6  UNL     1      19.806   1.720  50.587  1.00  0.00     0.316 HD
HETATM   17  C8  UNL     1      17.938  -0.408  52.320  1.00  0.00     0.037 C 
HETATM   18  C9  UNL     1      18.941  -0.941  53.306  1.00  0.00     0.082 C 
HETATM   19  C10 UNL     1      20.060   0.021  53.396  1.00  0.00     0.160 C 
HETATM   20  O1  UNL     1      20.680   0.070  54.439  1.00  0.00    -0.296 OA
ENDBRANCH  12  13
ENDBRANCH  11  12
ENDBRANCH   8  10
ENDBRANCH   6   8
ENDBRANCH   1   6
BRANCH   1  21
HETATM   21  N3  UNL     1      26.235   3.558  50.988  1.00  0.00    -0.341 N 
HETATM   22  H14 UNL     1      27.279   3.689  50.831  1.00  0.00     0.164 HD
BRANCH  21  23
HETATM   23  C12 UNL     1      25.888   2.471  51.829  1.00  0.00     0.033 A 
HETATM   24  C13 UNL     1      25.029   2.600  52.902  1.00  0.00     0.032 A 
HETATM   25  C14 UNL     1      24.730   1.516  53.697  1.00  0.00     0.046 A 
HETATM   26  C15 UNL     1      25.251   0.256  53.488  1.00  0.00     0.138 A 
HETATM   27  F1  UNL     1      24.898  -0.743  54.322  1.00  0.00    -0.204 F 
HETATM   28  C16 UNL     1      26.115   0.094  52.421  1.00  0.00     0.074 A 
HETATM   29 CL1  UNL     1      26.774  -1.481  52.150  1.00  0.00    -0.081 Cl
HETATM   30  C17 UNL     1      26.402   1.193  51.637  1.00  0.00     0.056 A 
ENDBRANCH  21  23
ENDBRANCH   1  21
TORSDOF 9
ENDMDL
MODEL 7
REMARK VINA RESULT:      -7.5      3.304      4.332
REMARK  9 active torsions:
REMARK  status: ('A' for Active; 'I' for Inactive)
REMARK    1  A    between atoms: C2_2  and  C3_3 
REMARK    2  A    between atoms: C2_2  and  N2_13 
REMARK    3  A    between atoms: C4_4  and  C5_5 
REMARK    4  A    between atoms: C5_5  and  C6_6 
REMARK    5  A    between atoms: N2_13  and  C11_14 
REMARK    6  A    between atoms: C11_14  and  N3_15 
REMARK    7  A    between atoms: N3_15  and  C12_16 
REMARK    8  A    between atoms: C19_25  and  N4_27 
REMARK    9  A    between atoms: C20_26  and  N4_27 
ROOT
HETATM    1  C11 UNL     1      24.953   3.956  49.979  1.00  0.00     0.296 A 
HETATM    2  C18 UNL     1      25.805   4.174  49.592  1.00  0.00     0.277 A 
HETATM    3  C19 UNL     1      26.397   4.343  49.316  1.00  0.00     0.277 A 
HETATM    4  C20 UNL     1      27.187   4.588  48.940  1.00  0.00     0.290 A 
HETATM    5  N4  UNL     1      25.732   5.536  49.037  1.00  0.00     0.027 N 
ENDROOT
BRANCH   1   6
HETATM    6  N2  UNL     1      24.447   5.074  51.046  1.00  0.00    -0.334 N 
HETATM    7  H13 UNL     1      24.520   6.096  51.018  1.00  0.00     0.164 HD
BRANCH   6   8
HETATM    8  C2  UNL     1      23.852   4.301  52.080  1.00  0.00     0.076 C 
HETATM    9  C1  UNL     1      22.727   4.760  52.606  1.00  0.00     0.053 C 
BRANCH   8  10
HETATM   10  C3  UNL     1      24.389   3.070  52.583  1.00  0.00    -0.050 C 
HETATM   11  C4  UNL     1      24.849   2.043  53.005  1.00  0.00    -0.097 C 
BRANCH  11  12
HETATM   12  C5  UNL     1      25.415   0.790  53.512  1.00  0.00     0.138 C 
BRANCH  12  13
HETATM   13  C6  UNL     1      26.650   0.399  52.693  1.00  0.00     0.300 C 
HETATM   14  N1  UNL     1      27.460   1.565  52.413  1.00  0.00     0.096 N 
HETATM   15  C7  UNL     1      28.280   1.963  53.520  1.00  0.00     0.271 C 
HETATM   16  H6  UNL     1      26.872   2.351  52.060  1.00  0.00     0.316 HD
HETATM   17  C8  UNL     1      29.341   0.908  53.746  1.00  0.00     0.037 C 
HETATM   18  C9  UNL     1      28.654  -0.321  54.274  1.00  0.00     0.082 C 
HETATM   19  C10 UNL     1      27.459  -0.579  53.443  1.00  0.00     0.160 C 
HETATM   20  O1  UNL     1      27.074  -1.726  53.347  1.00  0.00    -0.296 OA
ENDBRANCH  12  13
ENDBRANCH  11  12
ENDBRANCH   8  10
ENDBRANCH   6   8
ENDBRANCH   1   6
BRANCH   1  21
HETATM   21  N3  UNL     1      23.675   4.194  49.017  1.00  0.00    -0.341 N 
HETATM   22  H14 UNL     1      23.578   4.936  48.260  1.00  0.00     0.164 HD
BRANCH  21  23
HETATM   23  C12 UNL     1      22.550   3.345  49.169  1.00  0.00     0.033 A 
HETATM   24  C13 UNL     1      22.660   1.978  49.332  1.00  0.00     0.032 A 
HETATM   25  C14 UNL     1      21.536   1.194  49.467  1.00  0.00     0.046 A 
HETATM   26  C15 UNL     1      20.253   1.699  49.449  1.00  0.00     0.138 A 
HETATM   27  F1  UNL     1      19.215   0.849  49.589  1.00  0.00    -0.204 F 
HETATM   28  C16 UNL     1      20.109   3.065  49.287  1.00  0.00     0.074 A 
HETATM   29 CL1  UNL     1      18.504   3.708  49.263  1.00  0.00    -0.081 Cl
HETATM   30  C17 UNL     1      21.248   3.832  49.153  1.00  0.00     0.056 A 
ENDBRANCH  21  23
ENDBRANCH   1  21
TORSDOF 9
ENDMDL
MODEL 8
REMARK VINA RESULT:      -7.3      5.351      6.101
REMARK  9 active torsions:
REMARK  status: ('A' for Active; 'I' for Inactive)
REMARK    1  A    between atoms: C2_2  and  C3_3 
REMARK    2  A    between atoms: C2_2  and  N2_13 
REMARK    3  A    between atoms: C4_4  and  C5_5 
REMARK    4  A    between atoms: C5_5  and  C6_6 
REMARK    5  A    between atoms: N2_13  and  C11_14 
REMARK    6  A    between atoms: C11_14  and  N3_15 
REMARK    7  A    between atoms: N3_15  and  C12_16 
REMARK    8  A    between atoms: C19_25  and  N4_27 
REMARK    9  A    between atoms: C20_26  and  N4_27 
ROOT
HETATM    1  C11 UNL     1      25.379   4.290  49.821  1.00  0.00     0.296 A 
HETATM    2  C18 UNL     1      24.526   4.163  49.396  1.00  0.00     0.277 A 
HETATM    3  C19 UNL     1      23.920   4.083  49.111  1.00  0.00     0.277 A 
HETATM    4  C20 UNL     1      23.096   3.986  48.740  1.00  0.00     0.290 A 
HETATM    5  N4  UNL     1      23.499   4.856  50.191  1.00  0.00     0.027 N 
ENDROOT
BRANCH   1   6
HETATM    6  N2  UNL     1      25.710   5.857  50.098  1.00  0.00    -0.334 N 
HETATM    7  H13 UNL     1      25.505   6.443  50.915  1.00  0.00     0.164 HD
BRANCH   6   8
HETATM    8  C2  UNL     1      26.378   6.271  48.914  1.00  0.00     0.076 C 
HETATM    9  C1  UNL     1      25.718   7.076  48.097  1.00  0.00     0.053 C 
BRANCH   8  10
HETATM   10  C3  UNL     1      27.708   5.872  48.554  1.00  0.00    -0.050 C 
HETATM   11  C4  UNL     1      28.821   5.540  48.242  1.00  0.00    -0.097 C 
BRANCH  11  12
HETATM   12  C5  UNL     1      30.173   5.129  47.856  1.00  0.00     0.138 C 
BRANCH  12  13
HETATM   13  C6  UNL     1      31.214   5.985  48.586  1.00  0.00     0.300 C 
HETATM   14  N1  UNL     1      32.313   5.162  49.043  1.00  0.00     0.096 N 
HETATM   15  C7  UNL     1      33.253   4.846  48.007  1.00  0.00     0.271 C 
HETATM   16  H6  UNL     1      31.962   4.306  49.526  1.00  0.00     0.316 HD
HETATM   17  C8  UNL     1      33.974   6.113  47.601  1.00  0.00     0.037 C 
HETATM   18  C9  UNL     1      32.984   6.991  46.887  1.00  0.00     0.082 C 
HETATM   19  C10 UNL     1      31.736   7.022  47.679  1.00  0.00     0.160 C 
HETATM   20  O1  UNL     1      31.035   8.009  47.590  1.00  0.00    -0.296 OA
ENDBRANCH  12  13
ENDBRANCH  11  12
ENDBRANCH   8  10
ENDBRANCH   6   8
ENDBRANCH   1   6
BRANCH   1  21
HETATM   21  N3  UNL     1      25.427   3.927  51.396  1.00  0.00    -0.341 N 
HETATM   22  H14 UNL     1      25.364   4.612  52.209  1.00  0.00     0.164 HD
BRANCH  21  23
HETATM   23  C12 UNL     1      25.567   2.567  51.770  1.00  0.00     0.033 A 
HETATM   24  C13 UNL     1      26.714   1.838  51.524  1.00  0.00     0.032 A 
HETATM   25  C14 UNL     1      26.799   0.515  51.898  1.00  0.00     0.046 A 
HETATM   26  C15 UNL     1      25.775  -0.162  52.527  1.00  0.00     0.138 A 
HETATM   27  F1  UNL     1      25.954  -1.458  52.853  1.00  0.00    -0.204 F 
HETATM   28  C16 UNL     1      24.613   0.541  52.787  1.00  0.00     0.074 A 
HETATM   29 CL1  UNL     1      23.323  -0.299  53.576  1.00  0.00    -0.081 Cl
HETATM   30  C17 UNL     1      24.549   1.865  52.404  1.00  0.00     0.056 A 
ENDBRANCH  21  23
ENDBRANCH   1  21
TORSDOF 9
ENDMDL
MODEL 9
REMARK VINA RESULT:      -7.2      4.000      6.024
REMARK  9 active torsions:
REMARK  status: ('A' for Active; 'I' for Inactive)
REMARK    1  A    between atoms: C2_2  and  C3_3 
REMARK    2  A    between atoms: C2_2  and  N2_13 
REMARK    3  A    between atoms: C4_4  and  C5_5 
REMARK    4  A    between atoms: C5_5  and  C6_6 
REMARK    5  A    between atoms: N2_13  and  C11_14 
REMARK    6  A    between atoms: C11_14  and  N3_15 
REMARK    7  A    between atoms: N3_15  and  C12_16 
REMARK    8  A    between atoms: C19_25  and  N4_27 
REMARK    9  A    between atoms: C20_26  and  N4_27 
ROOT
HETATM    1  C11 UNL     1      26.224   0.973  53.310  1.00  0.00     0.296 A 
HETATM    2  C18 UNL     1      27.079   0.952  53.749  1.00  0.00     0.277 A 
HETATM    3  C19 UNL     1      27.684   0.926  54.046  1.00  0.00     0.277 A 
HETATM    4  C20 UNL     1      28.504   0.875  54.433  1.00  0.00     0.290 A 
HETATM    5  N4  UNL     1      27.906  -0.087  53.114  1.00  0.00     0.027 N 
ENDROOT
BRANCH   1   6
HETATM    6  N2  UNL     1      26.353   1.131  51.697  1.00  0.00    -0.334 N 
HETATM    7  H13 UNL     1      26.711   0.475  50.994  1.00  0.00     0.164 HD
BRANCH   6   8
HETATM    8  C2  UNL     1      25.840   2.433  51.449  1.00  0.00     0.076 C 
HETATM    9  C1  UNL     1      24.823   2.835  52.195  1.00  0.00     0.053 C 
BRANCH   8  10
HETATM   10  C3  UNL     1      26.350   3.327  50.450  1.00  0.00    -0.050 C 
HETATM   11  C4  UNL     1      26.769   4.082  49.613  1.00  0.00    -0.097 C 
BRANCH  11  12
HETATM   12  C5  UNL     1      27.273   5.000  48.588  1.00  0.00     0.138 C 
BRANCH  12  13
HETATM   13  C6  UNL     1      26.985   6.451  48.991  1.00  0.00     0.300 C 
HETATM   14  N1  UNL     1      28.218   7.202  49.087  1.00  0.00     0.096 N 
HETATM   15  C7  UNL     1      28.726   7.622  47.814  1.00  0.00     0.271 C 
HETATM   16  H6  UNL     1      28.932   6.677  49.638  1.00  0.00     0.316 HD
HETATM   17  C8  UNL     1      27.788   8.658  47.233  1.00  0.00     0.037 C 
HETATM   18  C9  UNL     1      26.511   7.956  46.859  1.00  0.00     0.082 C 
HETATM   19  C10 UNL     1      26.114   7.086  47.986  1.00  0.00     0.160 C 
HETATM   20  O1  UNL     1      24.931   6.848  48.127  1.00  0.00    -0.296 OA
ENDBRANCH  12  13
ENDBRANCH  11  12
ENDBRANCH   8  10
ENDBRANCH   6   8
ENDBRANCH   1   6
BRANCH   1  21
HETATM   21  N3  UNL     1      25.479  -0.457  53.182  1.00  0.00    -0.341 N 
HETATM   22  H14 UNL     1      25.924  -1.384  52.907  1.00  0.00     0.164 HD
BRANCH  21  23
HETATM   23  C12 UNL     1      24.089  -0.519  53.457  1.00  0.00     0.033 A 
HETATM   24  C13 UNL     1      23.585  -0.942  54.671  1.00  0.00     0.032 A 
HETATM   25  C14 UNL     1      22.226  -0.994  54.886  1.00  0.00     0.046 A 
HETATM   26  C15 UNL     1      21.293  -0.640  53.934  1.00  0.00     0.138 A 
HETATM   27  F1  UNL     1      19.983  -0.726  54.241  1.00  0.00    -0.204 F 
HETATM   28  C16 UNL     1      21.767  -0.213  52.708  1.00  0.00     0.074 A 
HETATM   29 CL1  UNL     1      20.606   0.233  51.506  1.00  0.00    -0.081 Cl
HETATM   30  C17 UNL     1      23.132  -0.168  52.512  1.00  0.00     0.056 A 
ENDBRANCH  21  23
ENDBRANCH   1  21
TORSDOF 9
ENDMDL
