MODEL 1
REMARK VINA RESULT:      -8.2      0.000      0.000
REMARK  6 active torsions:
REMARK  status: ('A' for Active; 'I' for Inactive)
REMARK    1  A    between atoms: O1_2  and  C2_3 
REMARK    2  A    between atoms: C5_6  and  C6_7 
REMARK    3  A    between atoms: C6_7  and  N1_8 
REMARK    4  A    between atoms: N1_8  and  C7_9 
REMARK    5  A    between atoms: C7_9  and  C8_10 
REMARK    6  A    between atoms: C16_22  and  N4_23 
ROOT
HETATM    1  N1  UNL     1      25.392   0.249  54.419  1.00  0.00     0.151 N 
HETATM    2  H8  UNL     1      24.653   0.983  54.500  1.00  0.00     0.323 HD
ENDROOT
BRANCH   1   3
HETATM    3  C6  UNL     1      24.883  -0.979  53.849  1.00  0.00     0.317 C 
BRANCH   3   4
HETATM    4  C5  UNL     1      23.419  -0.720  53.610  1.00  0.00    -0.009 A 
HETATM    5  C4  UNL     1      22.815  -0.141  52.516  1.00  0.00     0.013 A 
HETATM    6  C3  UNL     1      21.454   0.010  52.476  1.00  0.00     0.037 A 
HETATM    7  C2  UNL     1      20.709  -0.426  53.544  1.00  0.00     0.070 A 
HETATM    8  C17 UNL     1      21.284  -1.016  54.670  1.00  0.00     0.060 A 
HETATM    9  C16 UNL     1      22.670  -1.156  54.682  1.00  0.00     0.016 A 
BRANCH   7  10
HETATM   10  O1  UNL     1      19.310  -0.280  53.521  1.00  0.00    -0.356 OA
HETATM   11  C1  UNL     1      18.686  -0.238  52.261  1.00  0.00     0.210 C 
ENDBRANCH   7  10
BRANCH   9  12
HETATM   12  N4  UNL     1      23.141  -1.770  55.885  1.00  0.00    -0.302 NA
HETATM   13  H15 UNL     1      22.741  -1.315  56.747  1.00  0.00     0.124 HD
HETATM   14  H16 UNL     1      22.653  -1.203  56.595  1.00  0.00     0.124 HD
ENDBRANCH   9  12
ENDBRANCH   3   4
ENDBRANCH   1   3
BRANCH   1  15
HETATM   15  C7  UNL     1      26.560   0.769  53.729  1.00  0.00     0.394 A 
HETATM   16  N2  UNL     1      27.190  -0.307  53.024  1.00  0.00    -0.211 NA
HETATM   17  C14 UNL     1      28.389  -0.725  53.140  1.00  0.00     0.234 A 
HETATM   18  N3  UNL     1      29.229  -0.079  54.061  1.00  0.00    -0.231 NA
HETATM   19  C15 UNL     1      28.753   0.892  54.735  1.00  0.00     0.258 A 
HETATM   20  O2  UNL     1      27.460   1.358  54.624  1.00  0.00    -0.282 OA
BRANCH  15  21
HETATM   21  C8  UNL     1      26.014   1.793  52.766  1.00  0.00     0.033 A 
HETATM   22  C9  UNL     1      26.763   1.832  51.585  1.00  0.00     0.014 A 
HETATM   23  C10 UNL     1      26.407   2.716  50.588  1.00  0.00     0.002 A 
HETATM   24  C11 UNL     1      25.320   3.570  50.729  1.00  0.00     0.019 A 
HETATM   25  C12 UNL     1      24.614   3.501  51.899  1.00  0.00     0.011 A 
HETATM   26 BR1  UNL     1      23.080   4.598  52.287  1.00  0.00    -0.051 Br
HETATM   27  C13 UNL     1      24.937   2.643  52.901  1.00  0.00     0.033 A 
ENDBRANCH  15  21
ENDBRANCH   1  15
TORSDOF 6
ENDMDL
MODEL 2
REMARK VINA RESULT:      -8.0      3.090      6.347
REMARK  6 active torsions:
REMARK  status: ('A' for Active; 'I' for Inactive)
REMARK    1  A    between atoms: O1_2  and  C2_3 
REMARK    2  A    between atoms: C5_6  and  C6_7 
REMARK    3  A    between atoms: C6_7  and  N1_8 
REMARK    4  A    between atoms: N1_8  and  C7_9 
REMARK    5  A    between atoms: C7_9  and  C8_10 
REMARK    6  A    between atoms: C16_22  and  N4_23 
ROOT
HETATM    1  N1  UNL     1      25.171   3.072  52.427  1.00  0.00     0.151 N 
HETATM    2  H8  UNL     1      25.038   2.364  53.184  1.00  0.00     0.323 HD
ENDROOT
BRANCH   1   3
HETATM    3  C6  UNL     1      26.224   2.701  51.508  1.00  0.00     0.317 C 
BRANCH   3   4
HETATM    4  C5  UNL     1      26.772   1.407  52.049  1.00  0.00    -0.009 A 
HETATM    5  C4  UNL     1      26.302   0.126  51.860  1.00  0.00     0.013 A 
HETATM    6  C3  UNL     1      26.942  -0.939  52.435  1.00  0.00     0.037 A 
HETATM    7  C2  UNL     1      28.057  -0.706  53.200  1.00  0.00     0.070 A 
HETATM    8  C17 UNL     1      28.565   0.576  53.416  1.00  0.00     0.060 A 
HETATM    9  C16 UNL     1      27.892   1.640  52.819  1.00  0.00     0.016 A 
BRANCH   7  10
HETATM   10  O1  UNL     1      28.729  -1.787  53.798  1.00  0.00    -0.356 OA
HETATM   11  C1  UNL     1      30.132  -1.716  53.869  1.00  0.00     0.210 C 
ENDBRANCH   7  10
BRANCH   9  12
HETATM   12  N4  UNL     1      28.503   2.900  53.112  1.00  0.00    -0.302 NA
HETATM   13  H15 UNL     1      27.934   3.467  53.794  1.00  0.00     0.124 HD
HETATM   14  H16 UNL     1      27.818   3.295  53.776  1.00  0.00     0.124 HD
ENDBRANCH   9  12
ENDBRANCH   3   4
ENDBRANCH   1   3
BRANCH   1  15
HETATM   15  C7  UNL     1      23.908   3.369  51.773  1.00  0.00     0.394 A 
HETATM   16  N2  UNL     1      24.161   3.626  50.387  1.00  0.00    -0.211 NA
HETATM   17  C14 UNL     1      23.880   4.675  49.721  1.00  0.00     0.234 A 
HETATM   18  N3  UNL     1      23.242   5.733  50.388  1.00  0.00    -0.231 NA
HETATM   19  C15 UNL     1      22.977   5.593  51.627  1.00  0.00     0.258 A 
HETATM   20  O2  UNL     1      23.273   4.467  52.365  1.00  0.00    -0.282 OA
BRANCH  15  21
HETATM   21  C8  UNL     1      23.083   2.118  51.944  1.00  0.00     0.033 A 
HETATM   22  C9  UNL     1      22.382   1.806  50.774  1.00  0.00     0.014 A 
HETATM   23  C10 UNL     1      21.571   0.690  50.749  1.00  0.00     0.002 A 
HETATM   24  C11 UNL     1      21.434  -0.133  51.860  1.00  0.00     0.019 A 
HETATM   25  C12 UNL     1      22.136   0.207  52.984  1.00  0.00     0.011 A 
HETATM   26 BR1  UNL     1      22.080  -0.801  54.623  1.00  0.00    -0.051 Br
HETATM   27  C13 UNL     1      22.943   1.298  53.044  1.00  0.00     0.033 A 
ENDBRANCH  15  21
ENDBRANCH   1  15
TORSDOF 6
ENDMDL
MODEL 3
REMARK VINA RESULT:      -7.9      3.655      6.138
REMARK  6 active torsions:
REMARK  status: ('A' for Active; 'I' for Inactive)
REMARK    1  A    between atoms: O1_2  and  C2_3 
REMARK    2  A    between atoms: C5_6  and  C6_7 
REMARK    3  A    between atoms: C6_7  and  N1_8 
REMARK    4  A    between atoms: N1_8  and  C7_9 
REMARK    5  A    between atoms: C7_9  and  C8_10 
REMARK    6  A    between atoms: C16_22  and  N4_23 
ROOT
HETATM    1  N1  UNL     1      25.816   3.279  51.747  1.00  0.00     0.151 N 
HETATM    2  H8  UNL     1      26.436   4.025  52.135  1.00  0.00     0.323 HD
ENDROOT
BRANCH   1   3
HETATM    3  C6  UNL     1      25.194   2.488  52.786  1.00  0.00     0.317 C 
BRANCH   3   4
HETATM    4  C5  UNL     1      26.037   1.245  52.885  1.00  0.00    -0.009 A 
HETATM    5  C4  UNL     1      25.759  -0.024  52.426  1.00  0.00     0.013 A 
HETATM    6  C3  UNL     1      26.659  -1.039  52.606  1.00  0.00     0.037 A 
HETATM    7  C2  UNL     1      27.840  -0.768  53.252  1.00  0.00     0.070 A 
HETATM    8  C17 UNL     1      28.159   0.503  53.732  1.00  0.00     0.060 A 
HETATM    9  C16 UNL     1      27.223   1.515  53.534  1.00  0.00     0.016 A 
BRANCH   7  10
HETATM   10  O1  UNL     1      28.778  -1.798  53.447  1.00  0.00    -0.356 OA
HETATM   11  C1  UNL     1      30.092  -1.421  53.778  1.00  0.00     0.210 C 
ENDBRANCH   7  10
BRANCH   9  12
HETATM   12  N4  UNL     1      27.660   2.768  54.069  1.00  0.00    -0.302 NA
HETATM   13  H15 UNL     1      27.667   2.768  55.123  1.00  0.00     0.124 HD
HETATM   14  H16 UNL     1      27.601   2.574  55.082  1.00  0.00     0.124 HD
ENDBRANCH   9  12
ENDBRANCH   3   4
ENDBRANCH   1   3
BRANCH   1  15
HETATM   15  C7  UNL     1      24.868   3.839  50.799  1.00  0.00     0.394 A 
HETATM   16  N2  UNL     1      23.880   4.579  51.525  1.00  0.00    -0.211 NA
HETATM   17  C14 UNL     1      22.617   4.409  51.524  1.00  0.00     0.234 A 
HETATM   18  N3  UNL     1      22.087   3.383  50.726  1.00  0.00    -0.231 NA
HETATM   19  C15 UNL     1      22.894   2.670  50.043  1.00  0.00     0.258 A 
HETATM   20  O2  UNL     1      24.262   2.838  50.031  1.00  0.00    -0.282 OA
BRANCH  15  21
HETATM   21  C8  UNL     1      25.691   4.756  49.929  1.00  0.00     0.033 A 
HETATM   22  C9  UNL     1      26.835   4.110  49.447  1.00  0.00     0.014 A 
HETATM   23  C10 UNL     1      27.709   4.801  48.633  1.00  0.00     0.002 A 
HETATM   24  C11 UNL     1      27.479   6.126  48.280  1.00  0.00     0.019 A 
HETATM   25  C12 UNL     1      26.350   6.720  48.773  1.00  0.00     0.011 A 
HETATM   26 BR1  UNL     1      25.855   8.544  48.401  1.00  0.00    -0.051 Br
HETATM   27  C13 UNL     1      25.469   6.071  49.576  1.00  0.00     0.033 A 
ENDBRANCH  15  21
ENDBRANCH   1  15
TORSDOF 6
ENDMDL
MODEL 4
REMARK VINA RESULT:      -7.7      2.930      6.530
REMARK  6 active torsions:
REMARK  status: ('A' for Active; 'I' for Inactive)
REMARK    1  A    between atoms: O1_2  and  C2_3 
REMARK    2  A    between atoms: C5_6  and  C6_7 
REMARK    3  A    between atoms: C6_7  and  N1_8 
REMARK    4  A    between atoms: N1_8  and  C7_9 
REMARK    5  A    between atoms: C7_9  and  C8_10 
REMARK    6  A    between atoms: C16_22  and  N4_23 
ROOT
HETATM    1  N1  UNL     1      23.864   1.945  53.112  1.00  0.00     0.151 N 
HETATM    2  H8  UNL     1      23.957   1.067  53.671  1.00  0.00     0.323 HD
ENDROOT
BRANCH   1   3
HETATM    3  C6  UNL     1      25.063   2.245  52.361  1.00  0.00     0.317 C 
BRANCH   3   4
HETATM    4  C5  UNL     1      25.987   1.086  52.624  1.00  0.00    -0.009 A 
HETATM    5  C4  UNL     1      25.881  -0.216  52.185  1.00  0.00     0.013 A 
HETATM    6  C3  UNL     1      26.831  -1.141  52.526  1.00  0.00     0.037 A 
HETATM    7  C2  UNL     1      27.886  -0.746  53.311  1.00  0.00     0.070 A 
HETATM    8  C17 UNL     1      28.029   0.562  53.775  1.00  0.00     0.060 A 
HETATM    9  C16 UNL     1      27.046   1.480  53.412  1.00  0.00     0.016 A 
BRANCH   7  10
HETATM   10  O1  UNL     1      28.872  -1.682  53.671  1.00  0.00    -0.356 OA
HETATM   11  C1  UNL     1      30.198  -1.220  53.764  1.00  0.00     0.210 C 
ENDBRANCH   7  10
BRANCH   9  12
HETATM   12  N4  UNL     1      27.299   2.783  53.948  1.00  0.00    -0.302 NA
HETATM   13  H15 UNL     1      26.584   3.489  53.629  1.00  0.00     0.124 HD
HETATM   14  H16 UNL     1      26.517   3.315  53.534  1.00  0.00     0.124 HD
ENDBRANCH   9  12
ENDBRANCH   3   4
ENDBRANCH   1   3
BRANCH   1  15
HETATM   15  C7  UNL     1      22.662   1.910  52.297  1.00  0.00     0.394 A 
HETATM   16  N2  UNL     1      23.035   1.607  50.947  1.00  0.00    -0.211 NA
HETATM   17  C14 UNL     1      22.809   2.296  49.898  1.00  0.00     0.234 A 
HETATM   18  N3  UNL     1      22.111   3.506  50.038  1.00  0.00    -0.231 NA
HETATM   19  C15 UNL     1      21.738   3.857  51.205  1.00  0.00     0.258 A 
HETATM   20  O2  UNL     1      21.974   3.127  52.351  1.00  0.00    -0.282 OA
BRANCH  15  21
HETATM   21  C8  UNL     1      21.830   0.798  52.884  1.00  0.00     0.033 A 
HETATM   22  C9  UNL     1      22.569   0.037  53.798  1.00  0.00     0.014 A 
HETATM   23  C10 UNL     1      21.966  -1.028  54.434  1.00  0.00     0.002 A 
HETATM   24  C11 UNL     1      20.640  -1.364  54.189  1.00  0.00     0.019 A 
HETATM   25  C12 UNL     1      19.953  -0.596  53.288  1.00  0.00     0.011 A 
HETATM   26 BR1  UNL     1      18.113  -0.900  52.811  1.00  0.00    -0.051 Br
HETATM   27  C13 UNL     1      20.515   0.459  52.644  1.00  0.00     0.033 A 
ENDBRANCH  15  21
ENDBRANCH   1  15
TORSDOF 6
ENDMDL
MODEL 5
REMARK VINA RESULT:      -7.6      2.598      5.053
REMARK  6 active torsions:
REMARK  status: ('A' for Active; 'I' for Inactive)
REMARK    1  A    between atoms: O1_2  and  C2_3 
REMARK    2  A    between atoms: C5_6  and  C6_7 
REMARK    3  A    between atoms: C6_7  and  N1_8 
REMARK    4  A    between atoms: N1_8  and  C7_9 
REMARK    5  A    between atoms: C7_9  and  C8_10 
REMARK    6  A    between atoms: C16_22  and  N4_23 
ROOT
HETATM    1  N1  UNL     1      25.493   0.822  51.752  1.00  0.00     0.151 N 
HETATM    2  H8  UNL     1      24.469   0.994  51.632  1.00  0.00     0.323 HD
ENDROOT
BRANCH   1   3
HETATM    3  C6  UNL     1      26.264   2.044  51.692  1.00  0.00     0.317 C 
BRANCH   3   4
HETATM    4  C5  UNL     1      25.347   3.050  51.047  1.00  0.00    -0.009 A 
HETATM    5  C4  UNL     1      25.253   3.402  49.719  1.00  0.00     0.013 A 
HETATM    6  C3  UNL     1      24.346   4.345  49.315  1.00  0.00     0.037 A 
HETATM    7  C2  UNL     1      23.537   4.930  50.257  1.00  0.00     0.070 A 
HETATM    8  C17 UNL     1      23.603   4.602  51.612  1.00  0.00     0.060 A 
HETATM    9  C16 UNL     1      24.535   3.639  51.992  1.00  0.00     0.016 A 
BRANCH   7  10
HETATM   10  O1  UNL     1      22.600   5.901  49.861  1.00  0.00    -0.356 OA
HETATM   11  C1  UNL     1      21.868   6.544  50.876  1.00  0.00     0.210 C 
ENDBRANCH   7  10
BRANCH   9  12
HETATM   12  N4  UNL     1      24.509   3.388  53.400  1.00  0.00    -0.302 NA
HETATM   13  H15 UNL     1      23.574   3.620  53.828  1.00  0.00     0.124 HD
HETATM   14  H16 UNL     1      23.542   3.667  53.627  1.00  0.00     0.124 HD
ENDBRANCH   9  12
ENDBRANCH   3   4
ENDBRANCH   1   3
BRANCH   1  15
HETATM   15  C7  UNL     1      25.745   0.034  52.946  1.00  0.00     0.394 A 
HETATM   16  N2  UNL     1      26.512   0.826  53.861  1.00  0.00    -0.211 NA
HETATM   17  C14 UNL     1      27.651   0.558  54.366  1.00  0.00     0.234 A 
HETATM   18  N3  UNL     1      28.265  -0.654  54.009  1.00  0.00    -0.231 NA
HETATM   19  C15 UNL     1      27.655  -1.425  53.198  1.00  0.00     0.258 A 
HETATM   20  O2  UNL     1      26.423  -1.152  52.641  1.00  0.00    -0.282 OA
BRANCH  15  21
HETATM   21  C8  UNL     1      24.378  -0.260  53.510  1.00  0.00     0.033 A 
HETATM   22  C9  UNL     1      24.465  -0.926  54.737  1.00  0.00     0.014 A 
HETATM   23  C10 UNL     1      23.307  -1.278  55.399  1.00  0.00     0.002 A 
HETATM   24  C11 UNL     1      22.053  -0.986  54.874  1.00  0.00     0.019 A 
HETATM   25  C12 UNL     1      22.012  -0.335  53.672  1.00  0.00     0.011 A 
HETATM   26 BR1  UNL     1      20.378   0.156  52.780  1.00  0.00    -0.051 Br
HETATM   27  C13 UNL     1      23.132   0.026  52.993  1.00  0.00     0.033 A 
ENDBRANCH  15  21
ENDBRANCH   1  15
TORSDOF 6
ENDMDL
MODEL 6
REMARK VINA RESULT:      -7.5      4.256      7.759
REMARK  6 active torsions:
REMARK  status: ('A' for Active; 'I' for Inactive)
REMARK    1  A    between atoms: O1_2  and  C2_3 
REMARK    2  A    between atoms: C5_6  and  C6_7 
REMARK    3  A    between atoms: C6_7  and  N1_8 
REMARK    4  A    between atoms: N1_8  and  C7_9 
REMARK    5  A    between atoms: C7_9  and  C8_10 
REMARK    6  A    between atoms: C16_22  and  N4_23 
ROOT
HETATM    1  N1  UNL     1      26.490   3.354  51.019  1.00  0.00     0.151 N 
HETATM    2  H8  UNL     1      27.424   3.027  51.356  1.00  0.00     0.323 HD
ENDROOT
BRANCH   1   3
HETATM    3  C6  UNL     1      26.393   3.333  49.576  1.00  0.00     0.317 C 
BRANCH   3   4
HETATM    4  C5  UNL     1      26.929   4.668  49.131  1.00  0.00    -0.009 A 
HETATM    5  C4  UNL     1      28.117   4.949  48.494  1.00  0.00     0.013 A 
HETATM    6  C3  UNL     1      28.436   6.239  48.160  1.00  0.00     0.037 A 
HETATM    7  C2  UNL     1      27.551   7.240  48.473  1.00  0.00     0.070 A 
HETATM    8  C17 UNL     1      26.337   6.996  49.118  1.00  0.00     0.060 A 
HETATM    9  C16 UNL     1      26.041   5.675  49.445  1.00  0.00     0.016 A 
BRANCH   7  10
HETATM   10  O1  UNL     1      27.860   8.571  48.138  1.00  0.00    -0.356 OA
HETATM   11  C1  UNL     1      28.435   9.372  49.140  1.00  0.00     0.210 C 
ENDBRANCH   7  10
BRANCH   9  12
HETATM   12  N4  UNL     1      24.777   5.550  50.101  1.00  0.00    -0.302 NA
HETATM   13  H15 UNL     1      24.597   6.345  50.771  1.00  0.00     0.124 HD
HETATM   14  H16 UNL     1      24.785   6.395  50.695  1.00  0.00     0.124 HD
ENDBRANCH   9  12
ENDBRANCH   3   4
ENDBRANCH   1   3
BRANCH   1  15
HETATM   15  C7  UNL     1      25.421   2.629  51.683  1.00  0.00     0.394 A 
HETATM   16  N2  UNL     1      24.445   2.256  50.704  1.00  0.00    -0.211 NA
HETATM   17  C14 UNL     1      23.204   2.547  50.683  1.00  0.00     0.234 A 
HETATM   18  N3  UNL     1      22.689   3.327  51.731  1.00  0.00    -0.231 NA
HETATM   19  C15 UNL     1      23.486   3.706  52.650  1.00  0.00     0.258 A 
HETATM   20  O2  UNL     1      24.831   3.402  52.690  1.00  0.00    -0.282 OA
BRANCH  15  21
HETATM   21  C8  UNL     1      26.088   1.408  52.267  1.00  0.00     0.033 A 
HETATM   22  C9  UNL     1      25.171   0.368  52.454  1.00  0.00     0.014 A 
HETATM   23  C10 UNL     1      25.607  -0.829  52.983  1.00  0.00     0.002 A 
HETATM   24  C11 UNL     1      26.937  -1.027  53.334  1.00  0.00     0.019 A 
HETATM   25  C12 UNL     1      27.800   0.016  53.136  1.00  0.00     0.011 A 
HETATM   26 BR1  UNL     1      29.678  -0.058  53.558  1.00  0.00    -0.051 Br
HETATM   27  C13 UNL     1      27.406   1.208  52.617  1.00  0.00     0.033 A 
ENDBRANCH  15  21
ENDBRANCH   1  15
TORSDOF 6
ENDMDL
MODEL 7
REMARK VINA RESULT:      -7.4      4.316      7.868
REMARK  6 active torsions:
REMARK  status: ('A' for Active; 'I' for Inactive)
REMARK    1  A    between atoms: O1_2  and  C2_3 
REMARK    2  A    between atoms: C5_6  and  C6_7 
REMARK    3  A    between atoms: C6_7  and  N1_8 
REMARK    4  A    between atoms: N1_8  and  C7_9 
REMARK    5  A    between atoms: C7_9  and  C8_10 
REMARK    6  A    between atoms: C16_22  and  N4_23 
ROOT
HETATM    1  N1  UNL     1      25.471   3.611  50.992  1.00  0.00     0.151 N 
HETATM    2  H8  UNL     1      26.225   2.962  51.312  1.00  0.00     0.323 HD
ENDROOT
BRANCH   1   3
HETATM    3  C6  UNL     1      25.401   3.699  49.550  1.00  0.00     0.317 C 
BRANCH   3   4
HETATM    4  C5  UNL     1      26.346   4.812  49.182  1.00  0.00    -0.009 A 
HETATM    5  C4  UNL     1      27.609   4.725  48.639  1.00  0.00     0.013 A 
HETATM    6  C3  UNL     1      28.325   5.860  48.365  1.00  0.00     0.037 A 
HETATM    7  C2  UNL     1      27.760   7.080  48.642  1.00  0.00     0.070 A 
HETATM    8  C17 UNL     1      26.484   7.210  49.191  1.00  0.00     0.060 A 
HETATM    9  C16 UNL     1      25.780   6.038  49.459  1.00  0.00     0.016 A 
BRANCH   7  10
HETATM   10  O1  UNL     1      28.479   8.257  48.367  1.00  0.00    -0.356 OA
HETATM   11  C1  UNL     1      28.560   9.219  49.390  1.00  0.00     0.210 C 
ENDBRANCH   7  10
BRANCH   9  12
HETATM   12  N4  UNL     1      24.490   6.298  50.020  1.00  0.00    -0.302 NA
HETATM   13  H15 UNL     1      24.038   5.423  50.397  1.00  0.00     0.124 HD
HETATM   14  H16 UNL     1      24.220   5.350  50.326  1.00  0.00     0.124 HD
ENDBRANCH   9  12
ENDBRANCH   3   4
ENDBRANCH   1   3
BRANCH   1  15
HETATM   15  C7  UNL     1      24.203   3.274  51.615  1.00  0.00     0.394 A 
HETATM   16  N2  UNL     1      23.198   3.205  50.597  1.00  0.00    -0.211 NA
HETATM   17  C14 UNL     1      22.114   3.870  50.518  1.00  0.00     0.234 A 
HETATM   18  N3  UNL     1      21.830   4.796  51.536  1.00  0.00    -0.231 NA
HETATM   19  C15 UNL     1      22.670   4.926  52.486  1.00  0.00     0.258 A 
HETATM   20  O2  UNL     1      23.847   4.216  52.588  1.00  0.00    -0.282 OA
BRANCH  15  21
HETATM   21  C8  UNL     1      24.428   1.920  52.238  1.00  0.00     0.033 A 
HETATM   22  C9  UNL     1      25.725   1.455  51.993  1.00  0.00     0.014 A 
HETATM   23  C10 UNL     1      26.108   0.225  52.488  1.00  0.00     0.002 A 
HETATM   24  C11 UNL     1      25.234  -0.563  53.228  1.00  0.00     0.019 A 
HETATM   25  C12 UNL     1      23.976  -0.072  53.445  1.00  0.00     0.011 A 
HETATM   26 BR1  UNL     1      22.622  -1.011  54.442  1.00  0.00    -0.051 Br
HETATM   27  C13 UNL     1      23.565   1.133  52.972  1.00  0.00     0.033 A 
ENDBRANCH  15  21
ENDBRANCH   1  15
TORSDOF 6
ENDMDL
MODEL 8
REMARK VINA RESULT:      -7.3      3.276      5.763
REMARK  6 active torsions:
REMARK  status: ('A' for Active; 'I' for Inactive)
REMARK    1  A    between atoms: O1_2  and  C2_3 
REMARK    2  A    between atoms: C5_6  and  C6_7 
REMARK    3  A    between atoms: C6_7  and  N1_8 
REMARK    4  A    between atoms: N1_8  and  C7_9 
REMARK    5  A    between atoms: C7_9  and  C8_10 
REMARK    6  A    between atoms: C16_22  and  N4_23 
ROOT
HETATM    1  N1  UNL     1      23.097   3.096  51.937  1.00  0.00     0.151 N 
HETATM    2  H8  UNL     1      22.475   3.782  52.420  1.00  0.00     0.323 HD
ENDROOT
BRANCH   1   3
HETATM    3  C6  UNL     1      22.873   1.741  52.390  1.00  0.00     0.317 C 
BRANCH   3   4
HETATM    4  C5  UNL     1      24.149   1.348  53.087  1.00  0.00    -0.009 A 
HETATM    5  C4  UNL     1      25.264   2.116  53.339  1.00  0.00     0.013 A 
HETATM    6  C3  UNL     1      26.340   1.581  53.996  1.00  0.00     0.037 A 
HETATM    7  C2  UNL     1      26.284   0.269  54.396  1.00  0.00     0.070 A 
HETATM    8  C17 UNL     1      25.173  -0.542  54.159  1.00  0.00     0.060 A 
HETATM    9  C16 UNL     1      24.094   0.031  53.488  1.00  0.00     0.016 A 
BRANCH   7  10
HETATM   10  O1  UNL     1      27.378  -0.298  55.073  1.00  0.00    -0.356 OA
HETATM   11  C1  UNL     1      28.663   0.132  54.697  1.00  0.00     0.210 C 
ENDBRANCH   7  10
BRANCH   9  12
HETATM   12  N4  UNL     1      23.020  -0.895  53.303  1.00  0.00    -0.302 NA
HETATM   13  H15 UNL     1      22.913  -1.549  54.123  1.00  0.00     0.124 HD
HETATM   14  H16 UNL     1      23.074  -1.431  54.183  1.00  0.00     0.124 HD
ENDBRANCH   9  12
ENDBRANCH   3   4
ENDBRANCH   1   3
BRANCH   1  15
HETATM   15  C7  UNL     1      23.009   3.248  50.495  1.00  0.00     0.394 A 
HETATM   16  N2  UNL     1      21.882   4.078  50.191  1.00  0.00    -0.211 NA
HETATM   17  C14 UNL     1      20.877   3.798  49.459  1.00  0.00     0.234 A 
HETATM   18  N3  UNL     1      20.830   2.531  48.855  1.00  0.00    -0.231 NA
HETATM   19  C15 UNL     1      21.792   1.723  49.069  1.00  0.00     0.258 A 
HETATM   20  O2  UNL     1      22.887   2.007  49.859  1.00  0.00    -0.282 OA
BRANCH  15  21
HETATM   21  C8  UNL     1      24.296   3.927  50.100  1.00  0.00     0.033 A 
HETATM   22  C9  UNL     1      25.276   2.994  49.743  1.00  0.00     0.014 A 
HETATM   23  C10 UNL     1      26.523   3.439  49.354  1.00  0.00     0.002 A 
HETATM   24  C11 UNL     1      26.829   4.794  49.309  1.00  0.00     0.019 A 
HETATM   25  C12 UNL     1      25.843   5.673  49.666  1.00  0.00     0.011 A 
HETATM   26 BR1  UNL     1      26.069   7.585  49.671  1.00  0.00    -0.051 Br
HETATM   27  C13 UNL     1      24.605   5.270  50.054  1.00  0.00     0.033 A 
ENDBRANCH  15  21
ENDBRANCH   1  15
TORSDOF 6
ENDMDL
MODEL 9
REMARK VINA RESULT:      -7.1      3.453      5.437
REMARK  6 active torsions:
REMARK  status: ('A' for Active; 'I' for Inactive)
REMARK    1  A    between atoms: O1_2  and  C2_3 
REMARK    2  A    between atoms: C5_6  and  C6_7 
REMARK    3  A    between atoms: C6_7  and  N1_8 
REMARK    4  A    between atoms: N1_8  and  C7_9 
REMARK    5  A    between atoms: C7_9  and  C8_10 
REMARK    6  A    between atoms: C16_22  and  N4_23 
ROOT
HETATM    1  N1  UNL     1      25.432   3.530  51.726  1.00  0.00     0.151 N 
HETATM    2  H8  UNL     1      24.647   3.201  52.332  1.00  0.00     0.323 HD
ENDROOT
BRANCH   1   3
HETATM    3  C6  UNL     1      26.407   2.490  51.483  1.00  0.00     0.317 C 
BRANCH   3   4
HETATM    4  C5  UNL     1      26.039   1.382  52.435  1.00  0.00    -0.009 A 
HETATM    5  C4  UNL     1      25.227   0.292  52.214  1.00  0.00     0.013 A 
HETATM    6  C3  UNL     1      25.010  -0.623  53.210  1.00  0.00     0.037 A 
HETATM    7  C2  UNL     1      25.616  -0.432  54.427  1.00  0.00     0.070 A 
HETATM    8  C17 UNL     1      26.445   0.660  54.689  1.00  0.00     0.060 A 
HETATM    9  C16 UNL     1      26.647   1.573  53.657  1.00  0.00     0.016 A 
BRANCH   7  10
HETATM   10  O1  UNL     1      25.405  -1.361  55.461  1.00  0.00    -0.356 OA
HETATM   11  C1  UNL     1      24.911  -0.867  56.682  1.00  0.00     0.210 C 
ENDBRANCH   7  10
BRANCH   9  12
HETATM   12  N4  UNL     1      27.510   2.646  54.045  1.00  0.00    -0.302 NA
HETATM   13  H15 UNL     1      27.042   3.310  54.716  1.00  0.00     0.124 HD
HETATM   14  H16 UNL     1      26.891   3.170  54.683  1.00  0.00     0.124 HD
ENDBRANCH   9  12
ENDBRANCH   3   4
ENDBRANCH   1   3
BRANCH   1  15
HETATM   15  C7  UNL     1      24.923   4.143  50.511  1.00  0.00     0.394 A 
HETATM   16  N2  UNL     1      25.984   4.205  49.552  1.00  0.00    -0.211 NA
HETATM   17  C14 UNL     1      26.454   5.237  48.968  1.00  0.00     0.234 A 
HETATM   18  N3  UNL     1      25.888   6.485  49.273  1.00  0.00    -0.231 NA
HETATM   19  C15 UNL     1      24.935   6.526  50.118  1.00  0.00     0.258 A 
HETATM   20  O2  UNL     1      24.414   5.423  50.760  1.00  0.00    -0.282 OA
BRANCH  15  21
HETATM   21  C8  UNL     1      23.830   3.215  50.041  1.00  0.00     0.033 A 
HETATM   22  C9  UNL     1      23.654   3.297  48.655  1.00  0.00     0.014 A 
HETATM   23  C10 UNL     1      22.692   2.516  48.049  1.00  0.00     0.002 A 
HETATM   24  C11 UNL     1      21.892   1.649  48.783  1.00  0.00     0.019 A 
HETATM   25  C12 UNL     1      22.096   1.599  50.135  1.00  0.00     0.011 A 
HETATM   26 BR1  UNL     1      21.092   0.465  51.325  1.00  0.00    -0.051 Br
HETATM   27  C13 UNL     1      23.034   2.353  50.765  1.00  0.00     0.033 A 
ENDBRANCH  15  21
ENDBRANCH   1  15
TORSDOF 6
ENDMDL
