MODEL 1
REMARK VINA RESULT:      -8.5      0.000      0.000
REMARK  9 active torsions:
REMARK  status: ('A' for Active; 'I' for Inactive)
REMARK    1  A    between atoms: C2_2  and  N1_3 
REMARK    2  A    between atoms: N1_3  and  C3_4 
REMARK    3  A    between atoms: N1_3  and  C5_6 
REMARK    4  A    between atoms: C5_6  and  C6_7 
REMARK    5  A    between atoms: C6_7  and  C7_8 
REMARK    6  A    between atoms: C8_9  and  C9_10 
REMARK       I    between atoms: C9_10  and  N2_12 
REMARK    7  A    between atoms: N2_12  and  C10_13 
REMARK    8  A    between atoms: C15_20  and  N5_21 
REMARK    9  A    between atoms: N5_21  and  C16_22 
ROOT
HETATM    1  C10 UNL     1      25.460   4.552  49.847  1.00  0.00     0.036 A 
HETATM    2  C11 UNL     1      24.406   4.328  48.951  1.00  0.00     0.032 A 
HETATM    3  C12 UNL     1      23.450   3.366  49.260  1.00  0.00     0.035 A 
HETATM    4  C13 UNL     1      23.517   2.635  50.419  1.00  0.00     0.072 A 
HETATM    5  N3  UNL     1      22.627   1.696  50.768  1.00  0.00    -0.241 NA
HETATM    6  C14 UNL     1      22.716   0.984  51.928  1.00  0.00     0.236 A 
HETATM    7  N4  UNL     1      23.775   1.286  52.715  1.00  0.00    -0.224 NA
HETATM    8  C15 UNL     1      24.677   2.210  52.401  1.00  0.00     0.142 A 
HETATM    9  C22 UNL     1      24.587   2.936  51.220  1.00  0.00     0.041 A 
HETATM   10  C23 UNL     1      25.590   3.854  51.031  1.00  0.00     0.047 A 
ENDROOT
BRANCH   1  11
HETATM   11  N2  UNL     1      26.357   5.553  49.399  1.00  0.00    -0.316 N 
HETATM   12  C9  UNL     1      27.503   4.909  48.855  1.00  0.00     0.300 C 
HETATM   13  O1  UNL     1      27.441   3.637  48.909  1.00  0.00    -0.258 OA
HETATM   14  H15 UNL     1      26.364   6.593  49.382  1.00  0.00     0.170 HD
BRANCH  12  15
HETATM   15  C8  UNL     1      28.649   5.598  48.283  1.00  0.00    -0.005 C 
HETATM   16  C7  UNL     1      29.612   6.153  47.810  1.00  0.00    -0.095 C 
BRANCH  16  17
HETATM   17  C6  UNL     1      30.763   6.837  47.223  1.00  0.00     0.114 C 
BRANCH  17  18
HETATM   18  C5  UNL     1      31.870   5.892  46.855  1.00  0.00     0.129 C 
BRANCH  18  19
HETATM   19  N1  UNL     1      32.446   5.164  47.919  1.00  0.00    -0.412 N 
BRANCH  19  20
HETATM   20  C2  UNL     1      32.728   3.795  47.727  1.00  0.00     0.112 C 
HETATM   21  C1  UNL     1      31.959   3.098  46.642  1.00  0.00     0.026 C 
ENDBRANCH  19  20
BRANCH  19  22
HETATM   22  C3  UNL     1      33.235   5.884  48.849  1.00  0.00     0.112 C 
HETATM   23  C4  UNL     1      34.686   6.023  48.523  1.00  0.00     0.026 C 
ENDBRANCH  19  22
ENDBRANCH  18  19
ENDBRANCH  17  18
ENDBRANCH  16  17
ENDBRANCH  12  15
ENDBRANCH   1  11
BRANCH   8  24
HETATM   24  N5  UNL     1      25.645   2.306  53.432  1.00  0.00    -0.340 N 
HETATM   25  H19 UNL     1      25.445   3.023  54.149  1.00  0.00     0.167 HD
BRANCH  24  26
HETATM   26  C16 UNL     1      26.773   1.452  53.415  1.00  0.00     0.035 A 
HETATM   27  C17 UNL     1      28.019   1.985  53.697  1.00  0.00     0.032 A 
HETATM   28  C18 UNL     1      29.025   1.040  53.613  1.00  0.00     0.046 A 
HETATM   29  C19 UNL     1      28.862  -0.287  53.292  1.00  0.00     0.138 A 
HETATM   30  F1  UNL     1      29.912  -1.130  53.235  1.00  0.00    -0.204 F 
HETATM   31  C20 UNL     1      27.599  -0.720  53.033  1.00  0.00     0.074 A 
HETATM   32 CL1  UNL     1      27.349  -2.405  52.620  1.00  0.00    -0.081 Cl
HETATM   33  C21 UNL     1      26.547   0.151  53.094  1.00  0.00     0.056 A 
ENDBRANCH  24  26
ENDBRANCH   8  24
TORSDOF 9
ENDMDL
MODEL 2
REMARK VINA RESULT:      -8.4      2.183      3.103
REMARK  9 active torsions:
REMARK  status: ('A' for Active; 'I' for Inactive)
REMARK    1  A    between atoms: C2_2  and  N1_3 
REMARK    2  A    between atoms: N1_3  and  C3_4 
REMARK    3  A    between atoms: N1_3  and  C5_6 
REMARK    4  A    between atoms: C5_6  and  C6_7 
REMARK    5  A    between atoms: C6_7  and  C7_8 
REMARK    6  A    between atoms: C8_9  and  C9_10 
REMARK       I    between atoms: C9_10  and  N2_12 
REMARK    7  A    between atoms: N2_12  and  C10_13 
REMARK    8  A    between atoms: C15_20  and  N5_21 
REMARK    9  A    between atoms: N5_21  and  C16_22 
ROOT
HETATM    1  C10 UNL     1      24.467   3.573  50.554  1.00  0.00     0.036 A 
HETATM    2  C11 UNL     1      23.436   3.466  49.610  1.00  0.00     0.032 A 
HETATM    3  C12 UNL     1      22.473   2.476  49.772  1.00  0.00     0.035 A 
HETATM    4  C13 UNL     1      22.509   1.605  50.832  1.00  0.00     0.072 A 
HETATM    5  N3  UNL     1      21.611   0.634  51.037  1.00  0.00    -0.241 NA
HETATM    6  C14 UNL     1      21.670  -0.219  52.102  1.00  0.00     0.236 A 
HETATM    7  N4  UNL     1      22.708  -0.020  52.947  1.00  0.00    -0.224 NA
HETATM    8  C15 UNL     1      23.618   0.933  52.774  1.00  0.00     0.142 A 
HETATM    9  C22 UNL     1      23.558   1.801  51.691  1.00  0.00     0.041 A 
HETATM   10  C23 UNL     1      24.566   2.732  51.644  1.00  0.00     0.047 A 
ENDROOT
BRANCH   1  11
HETATM   11  N2  UNL     1      25.375   4.619  50.258  1.00  0.00    -0.316 N 
HETATM   12  C9  UNL     1      26.397   4.094  49.419  1.00  0.00     0.300 C 
HETATM   13  O1  UNL     1      26.249   2.855  49.157  1.00  0.00    -0.258 OA
HETATM   14  H15 UNL     1      25.456   5.626  50.504  1.00  0.00     0.170 HD
BRANCH  12  15
HETATM   15  C8  UNL     1      27.514   4.862  48.892  1.00  0.00    -0.005 C 
HETATM   16  C7  UNL     1      28.434   5.518  48.464  1.00  0.00    -0.095 C 
BRANCH  16  17
HETATM   17  C6  UNL     1      29.561   6.292  47.949  1.00  0.00     0.114 C 
BRANCH  17  18
HETATM   18  C5  UNL     1      29.245   7.754  47.816  1.00  0.00     0.129 C 
BRANCH  18  19
HETATM   19  N1  UNL     1      29.541   8.559  48.937  1.00  0.00    -0.412 N 
BRANCH  19  20
HETATM   20  C2  UNL     1      30.893   8.782  49.271  1.00  0.00     0.112 C 
HETATM   21  C1  UNL     1      31.770   9.332  48.183  1.00  0.00     0.026 C 
ENDBRANCH  19  20
BRANCH  19  22
HETATM   22  C3  UNL     1      28.592   9.546  49.299  1.00  0.00     0.112 C 
HETATM   23  C4  UNL     1      27.408   9.077  50.080  1.00  0.00     0.026 C 
ENDBRANCH  19  22
ENDBRANCH  18  19
ENDBRANCH  17  18
ENDBRANCH  16  17
ENDBRANCH  12  15
ENDBRANCH   1  11
BRANCH   8  24
HETATM   24  N5  UNL     1      24.559   0.896  53.834  1.00  0.00    -0.340 N 
HETATM   25  H19 UNL     1      24.218   1.281  54.730  1.00  0.00     0.167 HD
BRANCH  24  26
HETATM   26  C16 UNL     1      25.849   0.358  53.607  1.00  0.00     0.035 A 
HETATM   27  C17 UNL     1      25.959  -0.866  52.970  1.00  0.00     0.032 A 
HETATM   28  C18 UNL     1      27.273  -1.275  52.846  1.00  0.00     0.046 A 
HETATM   29  C19 UNL     1      28.379  -0.586  53.284  1.00  0.00     0.138 A 
HETATM   30  F1  UNL     1      29.624  -1.074  53.116  1.00  0.00    -0.204 F 
HETATM   31  C20 UNL     1      28.171   0.611  53.897  1.00  0.00     0.074 A 
HETATM   32 CL1  UNL     1      29.555   1.520  54.471  1.00  0.00    -0.081 Cl
HETATM   33  C21 UNL     1      26.901   1.088  54.060  1.00  0.00     0.056 A 
ENDBRANCH  24  26
ENDBRANCH   8  24
TORSDOF 9
ENDMDL
MODEL 3
REMARK VINA RESULT:      -8.3      1.723      2.811
REMARK  9 active torsions:
REMARK  status: ('A' for Active; 'I' for Inactive)
REMARK    1  A    between atoms: C2_2  and  N1_3 
REMARK    2  A    between atoms: N1_3  and  C3_4 
REMARK    3  A    between atoms: N1_3  and  C5_6 
REMARK    4  A    between atoms: C5_6  and  C6_7 
REMARK    5  A    between atoms: C6_7  and  C7_8 
REMARK    6  A    between atoms: C8_9  and  C9_10 
REMARK       I    between atoms: C9_10  and  N2_12 
REMARK    7  A    between atoms: N2_12  and  C10_13 
REMARK    8  A    between atoms: C15_20  and  N5_21 
REMARK    9  A    between atoms: N5_21  and  C16_22 
ROOT
HETATM    1  C10 UNL     1      25.170   4.286  50.051  1.00  0.00     0.036 A 
HETATM    2  C11 UNL     1      24.143   4.073  49.121  1.00  0.00     0.032 A 
HETATM    3  C12 UNL     1      23.190   3.094  49.380  1.00  0.00     0.035 A 
HETATM    4  C13 UNL     1      23.233   2.335  50.522  1.00  0.00     0.072 A 
HETATM    5  N3  UNL     1      22.344   1.380  50.823  1.00  0.00    -0.241 NA
HETATM    6  C14 UNL     1      22.409   0.640  51.968  1.00  0.00     0.236 A 
HETATM    7  N4  UNL     1      23.442   0.934  52.791  1.00  0.00    -0.224 NA
HETATM    8  C15 UNL     1      24.342   1.874  52.525  1.00  0.00     0.142 A 
HETATM    9  C22 UNL     1      24.277   2.628  51.360  1.00  0.00     0.041 A 
HETATM   10  C23 UNL     1      25.275   3.560  51.221  1.00  0.00     0.047 A 
ENDROOT
BRANCH   1  11
HETATM   11  N2  UNL     1      26.068   5.307  49.653  1.00  0.00    -0.316 N 
HETATM   12  C9  UNL     1      27.186   4.692  49.024  1.00  0.00     0.300 C 
HETATM   13  O1  UNL     1      27.107   3.421  48.983  1.00  0.00    -0.258 OA
HETATM   14  H15 UNL     1      26.090   6.345  49.715  1.00  0.00     0.170 HD
BRANCH  12  15
HETATM   15  C8  UNL     1      28.325   5.409  48.471  1.00  0.00    -0.005 C 
HETATM   16  C7  UNL     1      29.257   6.017  48.001  1.00  0.00    -0.095 C 
BRANCH  16  17
HETATM   17  C6  UNL     1      30.396   6.749  47.453  1.00  0.00     0.114 C 
BRANCH  17  18
HETATM   18  C5  UNL     1      30.557   8.110  48.068  1.00  0.00     0.129 C 
BRANCH  18  19
HETATM   19  N1  UNL     1      29.403   8.923  48.090  1.00  0.00    -0.412 N 
BRANCH  19  20
HETATM   20  C2  UNL     1      29.019   9.519  49.310  1.00  0.00     0.112 C 
HETATM   21  C1  UNL     1      27.688   9.105  49.868  1.00  0.00     0.026 C 
ENDBRANCH  19  20
BRANCH  19  22
HETATM   22  C3  UNL     1      29.041   9.574  46.886  1.00  0.00     0.112 C 
HETATM   23  C4  UNL     1      27.887   8.993  46.135  1.00  0.00     0.026 C 
ENDBRANCH  19  22
ENDBRANCH  18  19
ENDBRANCH  17  18
ENDBRANCH  16  17
ENDBRANCH  12  15
ENDBRANCH   1  11
BRANCH   8  24
HETATM   24  N5  UNL     1      25.281   1.955  53.585  1.00  0.00    -0.340 N 
HETATM   25  H19 UNL     1      24.995   2.562  54.371  1.00  0.00     0.167 HD
BRANCH  24  26
HETATM   26  C16 UNL     1      26.495   1.232  53.502  1.00  0.00     0.035 A 
HETATM   27  C17 UNL     1      27.687   1.900  53.724  1.00  0.00     0.032 A 
HETATM   28  C18 UNL     1      28.785   1.074  53.580  1.00  0.00     0.046 A 
HETATM   29  C19 UNL     1      28.754  -0.262  53.256  1.00  0.00     0.138 A 
HETATM   30  F1  UNL     1      29.887  -0.983  53.137  1.00  0.00    -0.204 F 
HETATM   31  C20 UNL     1      27.535  -0.832  53.058  1.00  0.00     0.074 A 
HETATM   32 CL1  UNL     1      27.453  -2.534  52.643  1.00  0.00    -0.081 Cl
HETATM   33  C21 UNL     1      26.398  -0.085  53.181  1.00  0.00     0.056 A 
ENDBRANCH  24  26
ENDBRANCH   8  24
TORSDOF 9
ENDMDL
MODEL 4
REMARK VINA RESULT:      -8.0      1.835      2.435
REMARK  9 active torsions:
REMARK  status: ('A' for Active; 'I' for Inactive)
REMARK    1  A    between atoms: C2_2  and  N1_3 
REMARK    2  A    between atoms: N1_3  and  C3_4 
REMARK    3  A    between atoms: N1_3  and  C5_6 
REMARK    4  A    between atoms: C5_6  and  C6_7 
REMARK    5  A    between atoms: C6_7  and  C7_8 
REMARK    6  A    between atoms: C8_9  and  C9_10 
REMARK       I    between atoms: C9_10  and  N2_12 
REMARK    7  A    between atoms: N2_12  and  C10_13 
REMARK    8  A    between atoms: C15_20  and  N5_21 
REMARK    9  A    between atoms: N5_21  and  C16_22 
ROOT
HETATM    1  C10 UNL     1      25.947   5.763  49.264  1.00  0.00     0.036 A 
HETATM    2  C11 UNL     1      24.963   6.071  48.314  1.00  0.00     0.032 A 
HETATM    3  C12 UNL     1      23.680   5.560  48.482  1.00  0.00     0.035 A 
HETATM    4  C13 UNL     1      23.358   4.767  49.554  1.00  0.00     0.072 A 
HETATM    5  N3  UNL     1      22.142   4.248  49.767  1.00  0.00    -0.241 NA
HETATM    6  C14 UNL     1      21.848   3.461  50.843  1.00  0.00     0.236 A 
HETATM    7  N4  UNL     1      22.877   3.234  51.693  1.00  0.00    -0.224 NA
HETATM    8  C15 UNL     1      24.095   3.731  51.513  1.00  0.00     0.142 A 
HETATM    9  C22 UNL     1      24.395   4.531  50.419  1.00  0.00     0.041 A 
HETATM   10  C23 UNL     1      25.695   4.971  50.366  1.00  0.00     0.047 A 
ENDROOT
BRANCH   1  11
HETATM   11  N2  UNL     1      27.203   6.345  48.960  1.00  0.00    -0.316 N 
HETATM   12  C9  UNL     1      28.093   5.303  48.582  1.00  0.00     0.300 C 
HETATM   13  O1  UNL     1      27.561   4.145  48.615  1.00  0.00    -0.258 OA
HETATM   14  H15 UNL     1      27.594   7.309  48.953  1.00  0.00     0.170 HD
BRANCH  12  15
HETATM   15  C8  UNL     1      29.480   5.498  48.189  1.00  0.00    -0.005 C 
HETATM   16  C7  UNL     1      30.629   5.646  47.847  1.00  0.00    -0.095 C 
BRANCH  16  17
HETATM   17  C6  UNL     1      32.018   5.849  47.440  1.00  0.00     0.114 C 
BRANCH  17  18
HETATM   18  C5  UNL     1      32.913   4.718  47.858  1.00  0.00     0.129 C 
BRANCH  18  19
HETATM   19  N1  UNL     1      33.257   3.791  46.850  1.00  0.00    -0.412 N 
BRANCH  19  20
HETATM   20  C2  UNL     1      34.585   3.767  46.377  1.00  0.00     0.112 C 
HETATM   21  C1  UNL     1      34.804   4.241  44.969  1.00  0.00     0.026 C 
ENDBRANCH  19  20
BRANCH  19  22
HETATM   22  C3  UNL     1      32.502   2.594  46.782  1.00  0.00     0.112 C 
HETATM   23  C4  UNL     1      32.871   1.518  47.750  1.00  0.00     0.026 C 
ENDBRANCH  19  22
ENDBRANCH  18  19
ENDBRANCH  17  18
ENDBRANCH  16  17
ENDBRANCH  12  15
ENDBRANCH   1  11
BRANCH   8  24
HETATM   24  N5  UNL     1      24.939   3.331  52.580  1.00  0.00    -0.340 N 
HETATM   25  H19 UNL     1      25.158   4.075  53.262  1.00  0.00     0.167 HD
BRANCH  24  26
HETATM   26  C16 UNL     1      25.408   1.996  52.639  1.00  0.00     0.035 A 
HETATM   27  C17 UNL     1      26.269   1.546  51.654  1.00  0.00     0.032 A 
HETATM   28  C18 UNL     1      26.616   0.220  51.827  1.00  0.00     0.046 A 
HETATM   29  C19 UNL     1      26.186  -0.602  52.842  1.00  0.00     0.138 A 
HETATM   30  F1  UNL     1      26.583  -1.888  52.921  1.00  0.00    -0.204 F 
HETATM   31  C20 UNL     1      25.342  -0.069  53.766  1.00  0.00     0.074 A 
HETATM   32 CL1  UNL     1      24.770  -1.085  55.075  1.00  0.00    -0.081 Cl
HETATM   33  C21 UNL     1      24.949   1.236  53.667  1.00  0.00     0.056 A 
ENDBRANCH  24  26
ENDBRANCH   8  24
TORSDOF 9
ENDMDL
MODEL 5
REMARK VINA RESULT:      -7.9      4.668     10.663
REMARK  9 active torsions:
REMARK  status: ('A' for Active; 'I' for Inactive)
REMARK    1  A    between atoms: C2_2  and  N1_3 
REMARK    2  A    between atoms: N1_3  and  C3_4 
REMARK    3  A    between atoms: N1_3  and  C5_6 
REMARK    4  A    between atoms: C5_6  and  C6_7 
REMARK    5  A    between atoms: C6_7  and  C7_8 
REMARK    6  A    between atoms: C8_9  and  C9_10 
REMARK       I    between atoms: C9_10  and  N2_12 
REMARK    7  A    between atoms: N2_12  and  C10_13 
REMARK    8  A    between atoms: C15_20  and  N5_21 
REMARK    9  A    between atoms: N5_21  and  C16_22 
ROOT
HETATM    1  C10 UNL     1      24.367  -0.390  53.492  1.00  0.00     0.036 A 
HETATM    2  C11 UNL     1      24.889  -0.527  54.786  1.00  0.00     0.032 A 
HETATM    3  C12 UNL     1      26.079   0.120  55.104  1.00  0.00     0.035 A 
HETATM    4  C13 UNL     1      26.748   0.886  54.184  1.00  0.00     0.072 A 
HETATM    5  N3  UNL     1      27.896   1.529  54.434  1.00  0.00    -0.241 NA
HETATM    6  C14 UNL     1      28.541   2.286  53.499  1.00  0.00     0.236 A 
HETATM    7  N4  UNL     1      27.942   2.346  52.287  1.00  0.00    -0.224 NA
HETATM    8  C15 UNL     1      26.805   1.720  52.004  1.00  0.00     0.142 A 
HETATM    9  C22 UNL     1      26.148   0.950  52.953  1.00  0.00     0.041 A 
HETATM   10  C23 UNL     1      24.986   0.364  52.516  1.00  0.00     0.047 A 
ENDROOT
BRANCH   1  11
HETATM   11  N2  UNL     1      23.158  -1.107  53.311  1.00  0.00    -0.316 N 
HETATM   12  C9  UNL     1      22.076  -0.198  53.470  1.00  0.00     0.300 C 
HETATM   13  O1  UNL     1      22.450   0.992  53.732  1.00  0.00    -0.258 OA
HETATM   14  H15 UNL     1      22.902  -2.093  53.101  1.00  0.00     0.170 HD
BRANCH  12  15
HETATM   15  C8  UNL     1      20.670  -0.553  53.351  1.00  0.00    -0.005 C 
HETATM   16  C7  UNL     1      19.506  -0.865  53.265  1.00  0.00    -0.095 C 
BRANCH  16  17
HETATM   17  C6  UNL     1      18.092  -1.220  53.161  1.00  0.00     0.114 C 
BRANCH  17  18
HETATM   18  C5  UNL     1      17.358  -0.376  52.158  1.00  0.00     0.129 C 
BRANCH  18  19
HETATM   19  N1  UNL     1      15.970  -0.608  52.048  1.00  0.00    -0.412 N 
BRANCH  19  20
HETATM   20  C2  UNL     1      15.083   0.268  52.706  1.00  0.00     0.112 C 
HETATM   21  C1  UNL     1      15.153   1.715  52.310  1.00  0.00     0.026 C 
ENDBRANCH  19  20
BRANCH  19  22
HETATM   22  C3  UNL     1      15.512  -1.271  50.883  1.00  0.00     0.112 C 
HETATM   23  C4  UNL     1      15.936  -0.687  49.575  1.00  0.00     0.026 C 
ENDBRANCH  19  22
ENDBRANCH  18  19
ENDBRANCH  17  18
ENDBRANCH  16  17
ENDBRANCH  12  15
ENDBRANCH   1  11
BRANCH   8  24
HETATM   24  N5  UNL     1      26.428   1.994  50.664  1.00  0.00    -0.340 N 
HETATM   25  H19 UNL     1      26.455   1.178  50.031  1.00  0.00     0.167 HD
BRANCH  24  26
HETATM   26  C16 UNL     1      26.054   3.309  50.296  1.00  0.00     0.035 A 
HETATM   27  C17 UNL     1      26.816   3.980  49.356  1.00  0.00     0.032 A 
HETATM   28  C18 UNL     1      26.349   5.260  49.121  1.00  0.00     0.046 A 
HETATM   29  C19 UNL     1      25.261   5.846  49.723  1.00  0.00     0.138 A 
HETATM   30  F1  UNL     1      24.887   7.107  49.425  1.00  0.00    -0.204 F 
HETATM   31  C20 UNL     1      24.573   5.106  50.634  1.00  0.00     0.074 A 
HETATM   32 CL1  UNL     1      23.179   5.818  51.424  1.00  0.00    -0.081 Cl
HETATM   33  C21 UNL     1      24.968   3.831  50.924  1.00  0.00     0.056 A 
ENDBRANCH  24  26
ENDBRANCH   8  24
TORSDOF 9
ENDMDL
MODEL 6
REMARK VINA RESULT:      -7.8      1.703      2.435
REMARK  9 active torsions:
REMARK  status: ('A' for Active; 'I' for Inactive)
REMARK    1  A    between atoms: C2_2  and  N1_3 
REMARK    2  A    between atoms: N1_3  and  C3_4 
REMARK    3  A    between atoms: N1_3  and  C5_6 
REMARK    4  A    between atoms: C5_6  and  C6_7 
REMARK    5  A    between atoms: C6_7  and  C7_8 
REMARK    6  A    between atoms: C8_9  and  C9_10 
REMARK       I    between atoms: C9_10  and  N2_12 
REMARK    7  A    between atoms: N2_12  and  C10_13 
REMARK    8  A    between atoms: C15_20  and  N5_21 
REMARK    9  A    between atoms: N5_21  and  C16_22 
ROOT
HETATM    1  C10 UNL     1      25.421   5.338  49.526  1.00  0.00     0.036 A 
HETATM    2  C11 UNL     1      24.366   5.472  48.614  1.00  0.00     0.032 A 
HETATM    3  C12 UNL     1      23.152   4.851  48.890  1.00  0.00     0.035 A 
HETATM    4  C13 UNL     1      22.967   4.114  50.033  1.00  0.00     0.072 A 
HETATM    5  N3  UNL     1      21.822   3.495  50.350  1.00  0.00    -0.241 NA
HETATM    6  C14 UNL     1      21.664   2.769  51.494  1.00  0.00     0.236 A 
HETATM    7  N4  UNL     1      22.751   2.710  52.299  1.00  0.00    -0.224 NA
HETATM    8  C15 UNL     1      23.901   3.311  52.016  1.00  0.00     0.142 A 
HETATM    9  C22 UNL     1      24.063   4.050  50.852  1.00  0.00     0.041 A 
HETATM   10  C23 UNL     1      25.307   4.612  50.695  1.00  0.00     0.047 A 
ENDROOT
BRANCH   1  11
HETATM   11  N2  UNL     1      26.594   6.016  49.111  1.00  0.00    -0.316 N 
HETATM   12  C9  UNL     1      27.580   5.042  48.794  1.00  0.00     0.300 C 
HETATM   13  O1  UNL     1      27.180   3.843  48.962  1.00  0.00    -0.258 OA
HETATM   14  H15 UNL     1      26.877   7.010  48.995  1.00  0.00     0.170 HD
BRANCH  12  15
HETATM   15  C8  UNL     1      28.923   5.343  48.322  1.00  0.00    -0.005 C 
HETATM   16  C7  UNL     1      30.032   5.614  47.926  1.00  0.00    -0.095 C 
BRANCH  16  17
HETATM   17  C6  UNL     1      31.382   5.925  47.463  1.00  0.00     0.114 C 
BRANCH  17  18
HETATM   18  C5  UNL     1      31.502   7.326  46.933  1.00  0.00     0.129 C 
BRANCH  18  19
HETATM   19  N1  UNL     1      32.011   8.289  47.830  1.00  0.00    -0.412 N 
BRANCH  19  20
HETATM   20  C2  UNL     1      31.211   9.406  48.150  1.00  0.00     0.112 C 
HETATM   21  C1  UNL     1      30.259   9.241  49.299  1.00  0.00     0.026 C 
ENDBRANCH  19  20
BRANCH  19  22
HETATM   22  C3  UNL     1      32.958   7.850  48.789  1.00  0.00     0.112 C 
HETATM   23  C4  UNL     1      34.396   7.942  48.394  1.00  0.00     0.026 C 
ENDBRANCH  19  22
ENDBRANCH  18  19
ENDBRANCH  17  18
ENDBRANCH  16  17
ENDBRANCH  12  15
ENDBRANCH   1  11
BRANCH   8  24
HETATM   24  N5  UNL     1      24.833   3.080  53.060  1.00  0.00    -0.340 N 
HETATM   25  H19 UNL     1      24.775   3.746  53.848  1.00  0.00     0.167 HD
BRANCH  24  26
HETATM   26  C16 UNL     1      25.743   2.000  52.960  1.00  0.00     0.035 A 
HETATM   27  C17 UNL     1      25.384   0.892  52.212  1.00  0.00     0.032 A 
HETATM   28  C18 UNL     1      26.356  -0.090  52.231  1.00  0.00     0.046 A 
HETATM   29  C19 UNL     1      27.557  -0.025  52.898  1.00  0.00     0.138 A 
HETATM   30  F1  UNL     1      28.441  -1.043  52.855  1.00  0.00    -0.204 F 
HETATM   31  C20 UNL     1      27.822   1.105  53.606  1.00  0.00     0.074 A 
HETATM   32 CL1  UNL     1      29.342   1.226  54.471  1.00  0.00    -0.081 Cl
HETATM   33  C21 UNL     1      26.913   2.125  53.639  1.00  0.00     0.056 A 
ENDBRANCH  24  26
ENDBRANCH   8  24
TORSDOF 9
ENDMDL
MODEL 7
REMARK VINA RESULT:      -7.7      2.934      8.638
REMARK  9 active torsions:
REMARK  status: ('A' for Active; 'I' for Inactive)
REMARK    1  A    between atoms: C2_2  and  N1_3 
REMARK    2  A    between atoms: N1_3  and  C3_4 
REMARK    3  A    between atoms: N1_3  and  C5_6 
REMARK    4  A    between atoms: C5_6  and  C6_7 
REMARK    5  A    between atoms: C6_7  and  C7_8 
REMARK    6  A    between atoms: C8_9  and  C9_10 
REMARK       I    between atoms: C9_10  and  N2_12 
REMARK    7  A    between atoms: N2_12  and  C10_13 
REMARK    8  A    between atoms: C15_20  and  N5_21 
REMARK    9  A    between atoms: N5_21  and  C16_22 
ROOT
HETATM    1  C10 UNL     1      27.773   6.883  48.456  1.00  0.00     0.036 A 
HETATM    2  C11 UNL     1      27.133   7.501  47.373  1.00  0.00     0.032 A 
HETATM    3  C12 UNL     1      27.904   8.162  46.422  1.00  0.00     0.035 A 
HETATM    4  C13 UNL     1      29.271   8.220  46.522  1.00  0.00     0.072 A 
HETATM    5  N3  UNL     1      30.063   8.842  45.638  1.00  0.00    -0.241 NA
HETATM    6  C14 UNL     1      31.422   8.883  45.760  1.00  0.00     0.236 A 
HETATM    7  N4  UNL     1      31.927   8.251  46.844  1.00  0.00    -0.224 NA
HETATM    8  C15 UNL     1      31.172   7.625  47.741  1.00  0.00     0.142 A 
HETATM    9  C22 UNL     1      29.789   7.582  47.618  1.00  0.00     0.041 A 
HETATM   10  C23 UNL     1      29.143   6.901  48.620  1.00  0.00     0.047 A 
ENDROOT
BRANCH   1  11
HETATM   11  N2  UNL     1      26.864   6.257  49.345  1.00  0.00    -0.316 N 
HETATM   12  C9  UNL     1      27.040   4.849  49.239  1.00  0.00     0.300 C 
HETATM   13  O1  UNL     1      27.936   4.514  48.397  1.00  0.00    -0.258 OA
HETATM   14  H15 UNL     1      26.138   6.579  50.017  1.00  0.00     0.170 HD
BRANCH  12  15
HETATM   15  C8  UNL     1      26.292   3.860  49.999  1.00  0.00    -0.005 C 
HETATM   16  C7  UNL     1      25.686   3.024  50.627  1.00  0.00    -0.095 C 
BRANCH  16  17
HETATM   17  C6  UNL     1      24.946   2.030  51.401  1.00  0.00     0.114 C 
BRANCH  17  18
HETATM   18  C5  UNL     1      25.838   0.975  51.990  1.00  0.00     0.129 C 
BRANCH  18  19
HETATM   19  N1  UNL     1      25.570   0.608  53.326  1.00  0.00    -0.412 N 
BRANCH  19  20
HETATM   20  C2  UNL     1      24.802  -0.551  53.569  1.00  0.00     0.112 C 
HETATM   21  C1  UNL     1      23.316  -0.359  53.676  1.00  0.00     0.026 C 
ENDBRANCH  19  20
BRANCH  19  22
HETATM   22  C3  UNL     1      26.506   1.006  54.312  1.00  0.00     0.112 C 
HETATM   23  C4  UNL     1      27.847   0.350  54.259  1.00  0.00     0.026 C 
ENDBRANCH  19  22
ENDBRANCH  18  19
ENDBRANCH  17  18
ENDBRANCH  16  17
ENDBRANCH  12  15
ENDBRANCH   1  11
BRANCH   8  24
HETATM   24  N5  UNL     1      31.994   7.048  48.742  1.00  0.00    -0.340 N 
HETATM   25  H19 UNL     1      31.883   7.458  49.683  1.00  0.00     0.167 HD
BRANCH  24  26
HETATM   26  C16 UNL     1      32.876   5.994  48.402  1.00  0.00     0.035 A 
HETATM   27  C17 UNL     1      34.231   6.155  48.635  1.00  0.00     0.032 A 
HETATM   28  C18 UNL     1      34.967   5.059  48.227  1.00  0.00     0.046 A 
HETATM   29  C19 UNL     1      34.463   3.916  47.652  1.00  0.00     0.138 A 
HETATM   30  F1  UNL     1      35.269   2.900  47.285  1.00  0.00    -0.204 F 
HETATM   31  C20 UNL     1      33.117   3.848  47.464  1.00  0.00     0.074 A 
HETATM   32 CL1  UNL     1      32.436   2.408  46.733  1.00  0.00    -0.081 Cl
HETATM   33  C21 UNL     1      32.317   4.890  47.840  1.00  0.00     0.056 A 
ENDBRANCH  24  26
ENDBRANCH   8  24
TORSDOF 9
ENDMDL
MODEL 8
REMARK VINA RESULT:      -7.5      2.965      3.912
REMARK  9 active torsions:
REMARK  status: ('A' for Active; 'I' for Inactive)
REMARK    1  A    between atoms: C2_2  and  N1_3 
REMARK    2  A    between atoms: N1_3  and  C3_4 
REMARK    3  A    between atoms: N1_3  and  C5_6 
REMARK    4  A    between atoms: C5_6  and  C6_7 
REMARK    5  A    between atoms: C6_7  and  C7_8 
REMARK    6  A    between atoms: C8_9  and  C9_10 
REMARK       I    between atoms: C9_10  and  N2_12 
REMARK    7  A    between atoms: N2_12  and  C10_13 
REMARK    8  A    between atoms: C15_20  and  N5_21 
REMARK    9  A    between atoms: N5_21  and  C16_22 
ROOT
HETATM    1  C10 UNL     1      24.170   5.389  50.722  1.00  0.00     0.036 A 
HETATM    2  C11 UNL     1      23.308   6.483  50.877  1.00  0.00     0.032 A 
HETATM    3  C12 UNL     1      21.944   6.250  51.026  1.00  0.00     0.035 A 
HETATM    4  C13 UNL     1      21.429   4.979  51.026  1.00  0.00     0.072 A 
HETATM    5  N3  UNL     1      20.127   4.696  51.165  1.00  0.00    -0.241 NA
HETATM    6  C14 UNL     1      19.640   3.421  51.163  1.00  0.00     0.236 A 
HETATM    7  N4  UNL     1      20.567   2.447  51.008  1.00  0.00    -0.224 NA
HETATM    8  C15 UNL     1      21.865   2.690  50.867  1.00  0.00     0.142 A 
HETATM    9  C22 UNL     1      22.361   3.987  50.869  1.00  0.00     0.041 A 
HETATM   10  C23 UNL     1      23.722   4.083  50.713  1.00  0.00     0.047 A 
ENDROOT
BRANCH   1  11
HETATM   11  N2  UNL     1      25.526   5.776  50.575  1.00  0.00    -0.316 N 
HETATM   12  C9  UNL     1      25.811   5.869  49.185  1.00  0.00     0.300 C 
HETATM   13  O1  UNL     1      24.813   5.584  48.444  1.00  0.00    -0.258 OA
HETATM   14  H15 UNL     1      26.312   5.995  51.220  1.00  0.00     0.170 HD
BRANCH  12  15
HETATM   15  C8  UNL     1      27.099   6.247  48.625  1.00  0.00    -0.005 C 
HETATM   16  C7  UNL     1      28.168   6.544  48.148  1.00  0.00    -0.095 C 
BRANCH  16  17
HETATM   17  C6  UNL     1      29.456   6.928  47.573  1.00  0.00     0.114 C 
BRANCH  17  18
HETATM   18  C5  UNL     1      30.569   6.899  48.580  1.00  0.00     0.129 C 
BRANCH  18  19
HETATM   19  N1  UNL     1      31.159   8.143  48.891  1.00  0.00    -0.412 N 
BRANCH  19  20
HETATM   20  C2  UNL     1      32.375   8.491  48.266  1.00  0.00     0.112 C 
HETATM   21  C1  UNL     1      33.551   7.600  48.545  1.00  0.00     0.026 C 
ENDBRANCH  19  20
BRANCH  19  22
HETATM   22  C3  UNL     1      30.295   9.189  49.300  1.00  0.00     0.112 C 
HETATM   23  C4  UNL     1      30.697  10.574  48.911  1.00  0.00     0.026 C 
ENDBRANCH  19  22
ENDBRANCH  18  19
ENDBRANCH  17  18
ENDBRANCH  16  17
ENDBRANCH  12  15
ENDBRANCH   1  11
BRANCH   8  24
HETATM   24  N5  UNL     1      22.573   1.468  50.747  1.00  0.00    -0.340 N 
HETATM   25  H19 UNL     1      22.731   1.152  49.776  1.00  0.00     0.167 HD
BRANCH  24  26
HETATM   26  C16 UNL     1      22.999   0.787  51.913  1.00  0.00     0.035 A 
HETATM   27  C17 UNL     1      24.303   0.953  52.344  1.00  0.00     0.032 A 
HETATM   28  C18 UNL     1      24.581   0.206  53.473  1.00  0.00     0.046 A 
HETATM   29  C19 UNL     1      23.701  -0.621  54.131  1.00  0.00     0.138 A 
HETATM   30  F1  UNL     1      24.072  -1.312  55.228  1.00  0.00    -0.204 F 
HETATM   31  C20 UNL     1      22.439  -0.719  53.633  1.00  0.00     0.074 A 
HETATM   32 CL1  UNL     1      21.288  -1.764  54.442  1.00  0.00    -0.081 Cl
HETATM   33  C21 UNL     1      22.083  -0.013  52.519  1.00  0.00     0.056 A 
ENDBRANCH  24  26
ENDBRANCH   8  24
TORSDOF 9
ENDMDL
MODEL 9
REMARK VINA RESULT:      -7.5      4.307      7.830
REMARK  9 active torsions:
REMARK  status: ('A' for Active; 'I' for Inactive)
REMARK    1  A    between atoms: C2_2  and  N1_3 
REMARK    2  A    between atoms: N1_3  and  C3_4 
REMARK    3  A    between atoms: N1_3  and  C5_6 
REMARK    4  A    between atoms: C5_6  and  C6_7 
REMARK    5  A    between atoms: C6_7  and  C7_8 
REMARK    6  A    between atoms: C8_9  and  C9_10 
REMARK       I    between atoms: C9_10  and  N2_12 
REMARK    7  A    between atoms: N2_12  and  C10_13 
REMARK    8  A    between atoms: C15_20  and  N5_21 
REMARK    9  A    between atoms: N5_21  and  C16_22 
ROOT
HETATM    1  C10 UNL     1      22.927   5.034  51.872  1.00  0.00     0.036 A 
HETATM    2  C11 UNL     1      21.601   4.999  51.418  1.00  0.00     0.032 A 
HETATM    3  C12 UNL     1      21.151   6.009  50.573  1.00  0.00     0.035 A 
HETATM    4  C13 UNL     1      21.974   7.032  50.176  1.00  0.00     0.072 A 
HETATM    5  N3  UNL     1      21.596   8.029  49.365  1.00  0.00    -0.241 NA
HETATM    6  C14 UNL     1      22.436   9.035  48.985  1.00  0.00     0.236 A 
HETATM    7  N4  UNL     1      23.692   8.963  49.484  1.00  0.00    -0.224 NA
HETATM    8  C15 UNL     1      24.101   7.989  50.290  1.00  0.00     0.142 A 
HETATM    9  C22 UNL     1      23.247   6.965  50.679  1.00  0.00     0.041 A 
HETATM   10  C23 UNL     1      23.810   6.032  51.514  1.00  0.00     0.047 A 
ENDROOT
BRANCH   1  11
HETATM   11  N2  UNL     1      23.241   3.948  52.728  1.00  0.00    -0.316 N 
HETATM   12  C9  UNL     1      23.913   2.959  51.959  1.00  0.00     0.300 C 
HETATM   13  O1  UNL     1      24.055   3.280  50.734  1.00  0.00    -0.258 OA
HETATM   14  H15 UNL     1      23.097   3.728  53.734  1.00  0.00     0.170 HD
BRANCH  12  15
HETATM   15  C8  UNL     1      24.405   1.694  52.482  1.00  0.00    -0.005 C 
HETATM   16  C7  UNL     1      24.800   0.633  52.903  1.00  0.00    -0.095 C 
BRANCH  16  17
HETATM   17  C6  UNL     1      25.301  -0.641  53.416  1.00  0.00     0.114 C 
BRANCH  17  18
HETATM   18  C5  UNL     1      26.543  -1.100  52.707  1.00  0.00     0.129 C 
BRANCH  18  19
HETATM   19  N1  UNL     1      27.767  -0.633  53.233  1.00  0.00    -0.412 N 
BRANCH  19  20
HETATM   20  C2  UNL     1      27.743   0.423  54.168  1.00  0.00     0.112 C 
HETATM   21  C1  UNL     1      28.115   1.783  53.652  1.00  0.00     0.026 C 
ENDBRANCH  19  20
BRANCH  19  22
HETATM   22  C3  UNL     1      28.844  -1.552  53.290  1.00  0.00     0.112 C 
HETATM   23  C4  UNL     1      30.169  -0.998  53.700  1.00  0.00     0.026 C 
ENDBRANCH  19  22
ENDBRANCH  18  19
ENDBRANCH  17  18
ENDBRANCH  16  17
ENDBRANCH  12  15
ENDBRANCH   1  11
BRANCH   8  24
HETATM   24  N5  UNL     1      25.466   8.183  50.623  1.00  0.00    -0.340 N 
HETATM   25  H19 UNL     1      25.630   8.606  51.551  1.00  0.00     0.167 HD
BRANCH  24  26
HETATM   26  C16 UNL     1      26.472   7.801  49.703  1.00  0.00     0.035 A 
HETATM   27  C17 UNL     1      26.392   6.556  49.104  1.00  0.00     0.032 A 
HETATM   28  C18 UNL     1      27.456   6.313  48.256  1.00  0.00     0.046 A 
HETATM   29  C19 UNL     1      28.499   7.173  48.002  1.00  0.00     0.138 A 
HETATM   30  F1  UNL     1      29.494   6.838  47.156  1.00  0.00    -0.204 F 
HETATM   31  C20 UNL     1      28.490   8.375  48.636  1.00  0.00     0.074 A 
HETATM   32 CL1  UNL     1      29.803   9.499  48.339  1.00  0.00    -0.081 Cl
HETATM   33  C21 UNL     1      27.474   8.695  49.492  1.00  0.00     0.056 A 
ENDBRANCH  24  26
ENDBRANCH   8  24
TORSDOF 9
ENDMDL
