MODEL 1
REMARK VINA RESULT:      -8.1      0.000      0.000
REMARK  1 active torsions:
REMARK  status: ('A' for Active; 'I' for Inactive)
REMARK    1  A    between atoms: C6_8  and  C7_9 
ROOT
HETATM    1  C1  UNL     1      19.742   1.902  52.262  1.00  0.00     0.066 A 
HETATM    2  C2  UNL     1      20.537   1.194  53.048  1.00  0.00     0.101 A 
HETATM    3  N1  UNL     1      21.780   0.916  52.531  1.00  0.00    -0.323 N 
HETATM    4  C3  UNL     1      22.747   0.239  53.339  1.00  0.00     0.066 A 
HETATM    5  C4  UNL     1      22.185  -0.468  54.306  1.00  0.00     0.032 A 
HETATM    6  C5  UNL     1      22.928  -1.276  55.304  1.00  0.00     0.205 A 
HETATM    7  O1  UNL     1      24.323  -1.214  55.124  1.00  0.00    -0.344 OA
HETATM    8  C6  UNL     1      24.965  -0.495  54.125  1.00  0.00     0.110 A 
HETATM    9  C13 UNL     1      24.227   0.215  53.254  1.00  0.00     0.118 A 
HETATM   10  N2  UNL     1      24.997   0.915  52.296  1.00  0.00    -0.239 NA
HETATM   11  C14 UNL     1      24.585   1.725  51.384  1.00  0.00     0.205 C 
HETATM   12  N3  UNL     1      23.262   2.156  51.065  1.00  0.00    -0.354 N 
HETATM   13  C15 UNL     1      22.083   1.317  51.183  1.00  0.00     0.258 A 
HETATM   14  S1  UNL     1      20.606   2.262  50.736  1.00  0.00    -0.093 SA
HETATM   15  H12 UNL     1      23.257   3.164  50.734  1.00  0.00     0.163 HD
ENDROOT
BRANCH   8  16
HETATM   16  C7  UNL     1      26.420  -0.505  54.017  1.00  0.00    -0.000 A 
HETATM   17  C8  UNL     1      27.121  -1.276  53.106  1.00  0.00     0.014 A 
HETATM   18  C9  UNL     1      28.499  -1.224  53.059  1.00  0.00     0.001 A 
HETATM   19  C10 UNL     1      29.249  -0.416  53.898  1.00  0.00     0.000 A 
HETATM   20  C11 UNL     1      28.556   0.350  54.803  1.00  0.00     0.001 A 
HETATM   21  C12 UNL     1      27.181   0.295  54.846  1.00  0.00     0.014 A 
ENDBRANCH   8  16
TORSDOF 1
ENDMDL
MODEL 2
REMARK VINA RESULT:      -8.0      1.874      2.549
REMARK  1 active torsions:
REMARK  status: ('A' for Active; 'I' for Inactive)
REMARK    1  A    between atoms: C6_8  and  C7_9 
ROOT
HETATM    1  C1  UNL     1      22.223   4.687  51.263  1.00  0.00     0.066 A 
HETATM    2  C2  UNL     1      22.460   3.547  51.890  1.00  0.00     0.101 A 
HETATM    3  N1  UNL     1      23.610   2.895  51.513  1.00  0.00    -0.323 N 
HETATM    4  C3  UNL     1      24.005   1.703  52.198  1.00  0.00     0.066 A 
HETATM    5  C4  UNL     1      22.983   1.099  52.781  1.00  0.00     0.032 A 
HETATM    6  C5  UNL     1      23.079  -0.157  53.566  1.00  0.00     0.205 A 
HETATM    7  O1  UNL     1      24.394  -0.655  53.637  1.00  0.00    -0.344 OA
HETATM    8  C6  UNL     1      25.501  -0.066  53.040  1.00  0.00     0.110 A 
HETATM    9  C13 UNL     1      25.339   1.072  52.342  1.00  0.00     0.118 A 
HETATM   10  N2  UNL     1      26.541   1.579  51.798  1.00  0.00    -0.239 NA
HETATM   11  C14 UNL     1      26.718   2.676  51.146  1.00  0.00     0.205 C 
HETATM   12  N3  UNL     1      25.781   3.690  50.781  1.00  0.00    -0.354 N 
HETATM   13  C15 UNL     1      24.396   3.431  50.434  1.00  0.00     0.258 A 
HETATM   14  S1  UNL     1      23.543   4.991  50.092  1.00  0.00    -0.093 SA
HETATM   15  H12 UNL     1      26.232   4.650  50.800  1.00  0.00     0.163 HD
ENDROOT
BRANCH   8  16
HETATM   16  C7  UNL     1      26.823  -0.670  53.164  1.00  0.00    -0.000 A 
HETATM   17  C8  UNL     1      27.893  -0.060  53.796  1.00  0.00     0.014 A 
HETATM   18  C9  UNL     1      29.113  -0.701  53.881  1.00  0.00     0.001 A 
HETATM   19  C10 UNL     1      29.336  -1.962  53.356  1.00  0.00     0.000 A 
HETATM   20  C11 UNL     1      28.276  -2.570  52.729  1.00  0.00     0.001 A 
HETATM   21  C12 UNL     1      27.061  -1.927  52.646  1.00  0.00     0.014 A 
ENDBRANCH   8  16
TORSDOF 1
ENDMDL
MODEL 3
REMARK VINA RESULT:      -7.6      1.943      2.943
REMARK  1 active torsions:
REMARK  status: ('A' for Active; 'I' for Inactive)
REMARK    1  A    between atoms: C6_8  and  C7_9 
ROOT
HETATM    1  C1  UNL     1      19.917   0.571  51.814  1.00  0.00     0.066 A 
HETATM    2  C2  UNL     1      21.118   1.007  51.472  1.00  0.00     0.101 A 
HETATM    3  N1  UNL     1      22.100   0.829  52.418  1.00  0.00    -0.323 N 
HETATM    4  C3  UNL     1      23.453   1.180  52.108  1.00  0.00     0.066 A 
HETATM    5  C4  UNL     1      23.528   2.076  51.138  1.00  0.00     0.032 A 
HETATM    6  C5  UNL     1      24.792   2.633  50.598  1.00  0.00     0.205 A 
HETATM    7  O1  UNL     1      25.933   2.101  51.227  1.00  0.00    -0.344 OA
HETATM    8  C6  UNL     1      25.913   1.164  52.252  1.00  0.00     0.110 A 
HETATM    9  C13 UNL     1      24.729   0.704  52.692  1.00  0.00     0.118 A 
HETATM   10  N2  UNL     1      24.842  -0.255  53.725  1.00  0.00    -0.239 NA
HETATM   11  C14 UNL     1      23.900  -0.922  54.298  1.00  0.00     0.205 C 
HETATM   12  N3  UNL     1      22.490  -0.898  54.074  1.00  0.00    -0.354 N 
HETATM   13  C15 UNL     1      21.745   0.291  53.703  1.00  0.00     0.258 A 
HETATM   14  S1  UNL     1      20.000  -0.125  53.461  1.00  0.00    -0.093 SA
HETATM   15  H12 UNL     1      22.065  -1.861  54.213  1.00  0.00     0.163 HD
ENDROOT
BRANCH   8  16
HETATM   16  C7  UNL     1      27.155   0.683  52.846  1.00  0.00    -0.000 A 
HETATM   17  C8  UNL     1      27.603  -0.623  52.747  1.00  0.00     0.014 A 
HETATM   18  C9  UNL     1      28.796  -1.000  53.330  1.00  0.00     0.001 A 
HETATM   19  C10 UNL     1      29.601  -0.118  54.031  1.00  0.00     0.000 A 
HETATM   20  C11 UNL     1      29.159   1.179  54.131  1.00  0.00     0.001 A 
HETATM   21  C12 UNL     1      27.968   1.551  53.548  1.00  0.00     0.014 A 
ENDBRANCH   8  16
TORSDOF 1
ENDMDL
MODEL 4
REMARK VINA RESULT:      -7.5      2.734      4.028
REMARK  1 active torsions:
REMARK  status: ('A' for Active; 'I' for Inactive)
REMARK    1  A    between atoms: C6_8  and  C7_9 
ROOT
HETATM    1  C1  UNL     1      21.140   4.678  49.536  1.00  0.00     0.066 A 
HETATM    2  C2  UNL     1      22.442   4.457  49.480  1.00  0.00     0.101 A 
HETATM    3  N1  UNL     1      23.008   3.975  50.638  1.00  0.00    -0.323 N 
HETATM    4  C3  UNL     1      24.392   3.614  50.652  1.00  0.00     0.066 A 
HETATM    5  C4  UNL     1      25.081   4.233  49.707  1.00  0.00     0.032 A 
HETATM    6  C5  UNL     1      26.536   4.062  49.472  1.00  0.00     0.205 A 
HETATM    7  O1  UNL     1      27.128   3.152  50.368  1.00  0.00    -0.344 OA
HETATM    8  C6  UNL     1      26.456   2.480  51.381  1.00  0.00     0.110 A 
HETATM    9  C13 UNL     1      25.136   2.685  51.536  1.00  0.00     0.118 A 
HETATM   10  N2  UNL     1      24.565   1.932  52.588  1.00  0.00    -0.239 NA
HETATM   11  C14 UNL     1      23.326   1.863  52.935  1.00  0.00     0.205 C 
HETATM   12  N3  UNL     1      22.179   2.506  52.380  1.00  0.00    -0.354 N 
HETATM   13  C15 UNL     1      22.190   3.842  51.813  1.00  0.00     0.258 A 
HETATM   14  S1  UNL     1      20.548   4.253  51.171  1.00  0.00    -0.093 SA
HETATM   15  H12 UNL     1      21.325   1.878  52.436  1.00  0.00     0.163 HD
ENDROOT
BRANCH   8  16
HETATM   16  C7  UNL     1      27.166   1.564  52.266  1.00  0.00    -0.000 A 
HETATM   17  C8  UNL     1      27.027   0.187  52.225  1.00  0.00     0.014 A 
HETATM   18  C9  UNL     1      27.742  -0.615  53.091  1.00  0.00     0.001 A 
HETATM   19  C10 UNL     1      28.623  -0.106  54.030  1.00  0.00     0.000 A 
HETATM   20  C11 UNL     1      28.764   1.260  54.073  1.00  0.00     0.001 A 
HETATM   21  C12 UNL     1      28.048   2.056  53.207  1.00  0.00     0.014 A 
ENDBRANCH   8  16
TORSDOF 1
ENDMDL
MODEL 5
REMARK VINA RESULT:      -7.2      3.701      5.678
REMARK  1 active torsions:
REMARK  status: ('A' for Active; 'I' for Inactive)
REMARK    1  A    between atoms: C6_8  and  C7_9 
ROOT
HETATM    1  C1  UNL     1      23.903   6.374  48.259  1.00  0.00     0.066 A 
HETATM    2  C2  UNL     1      23.322   5.194  48.389  1.00  0.00     0.101 A 
HETATM    3  N1  UNL     1      23.643   4.503  49.534  1.00  0.00    -0.323 N 
HETATM    4  C3  UNL     1      22.995   3.259  49.815  1.00  0.00     0.066 A 
HETATM    5  C4  UNL     1      22.527   2.680  48.721  1.00  0.00     0.032 A 
HETATM    6  C5  UNL     1      21.807   1.383  48.694  1.00  0.00     0.205 A 
HETATM    7  O1  UNL     1      21.661   0.815  49.973  1.00  0.00    -0.344 OA
HETATM    8  C6  UNL     1      22.136   1.374  51.152  1.00  0.00     0.110 A 
HETATM    9  C13 UNL     1      22.782   2.553  51.101  1.00  0.00     0.118 A 
HETATM   10  N2  UNL     1      23.202   3.024  52.366  1.00  0.00    -0.239 NA
HETATM   11  C14 UNL     1      23.777   4.142  52.647  1.00  0.00     0.205 C 
HETATM   12  N3  UNL     1      24.159   5.220  51.792  1.00  0.00    -0.354 N 
HETATM   13  C15 UNL     1      24.627   5.051  50.429  1.00  0.00     0.258 A 
HETATM   14  S1  UNL     1      24.948   6.668  49.681  1.00  0.00    -0.093 SA
HETATM   15  H12 UNL     1      24.052   6.154  52.285  1.00  0.00     0.163 HD
ENDROOT
BRANCH   8  16
HETATM   16  C7  UNL     1      21.942   0.698  52.430  1.00  0.00    -0.000 A 
HETATM   17  C8  UNL     1      20.832   0.875  53.236  1.00  0.00     0.014 A 
HETATM   18  C9  UNL     1      20.716   0.191  54.429  1.00  0.00     0.001 A 
HETATM   19  C10 UNL     1      21.678  -0.696  54.881  1.00  0.00     0.000 A 
HETATM   20  C11 UNL     1      22.781  -0.875  54.083  1.00  0.00     0.001 A 
HETATM   21  C12 UNL     1      22.892  -0.190  52.894  1.00  0.00     0.014 A 
ENDBRANCH   8  16
TORSDOF 1
ENDMDL
MODEL 6
REMARK VINA RESULT:      -7.0      4.003      6.075
REMARK  1 active torsions:
REMARK  status: ('A' for Active; 'I' for Inactive)
REMARK    1  A    between atoms: C6_8  and  C7_9 
ROOT
HETATM    1  C1  UNL     1      26.460   7.745  49.396  1.00  0.00     0.066 A 
HETATM    2  C2  UNL     1      25.454   7.209  50.064  1.00  0.00     0.101 A 
HETATM    3  N1  UNL     1      25.352   5.841  49.978  1.00  0.00    -0.323 N 
HETATM    4  C3  UNL     1      24.355   5.155  50.742  1.00  0.00     0.066 A 
HETATM    5  C4  UNL     1      23.341   5.943  51.062  1.00  0.00     0.032 A 
HETATM    6  C5  UNL     1      22.157   5.518  51.850  1.00  0.00     0.205 A 
HETATM    7  O1  UNL     1      22.218   4.167  52.237  1.00  0.00    -0.344 OA
HETATM    8  C6  UNL     1      23.253   3.295  51.925  1.00  0.00     0.110 A 
HETATM    9  C13 UNL     1      24.294   3.749  51.206  1.00  0.00     0.118 A 
HETATM   10  N2  UNL     1      25.288   2.771  50.967  1.00  0.00    -0.239 NA
HETATM   11  C14 UNL     1      26.422   2.918  50.374  1.00  0.00     0.205 C 
HETATM   12  N3  UNL     1      27.011   4.081  49.791  1.00  0.00    -0.354 N 
HETATM   13  C15 UNL     1      26.257   5.125  49.120  1.00  0.00     0.258 A 
HETATM   14  S1  UNL     1      27.375   6.442  48.579  1.00  0.00    -0.093 SA
HETATM   15  H12 UNL     1      28.064   4.079  49.916  1.00  0.00     0.163 HD
ENDROOT
BRANCH   8  16
HETATM   16  C7  UNL     1      23.215   1.905  52.366  1.00  0.00    -0.000 A 
HETATM   17  C8  UNL     1      24.183   1.323  53.167  1.00  0.00     0.014 A 
HETATM   18  C9  UNL     1      24.072   0.002  53.552  1.00  0.00     0.001 A 
HETATM   19  C10 UNL     1      23.011  -0.803  53.172  1.00  0.00     0.000 A 
HETATM   20  C11 UNL     1      22.049  -0.228  52.378  1.00  0.00     0.001 A 
HETATM   21  C12 UNL     1      22.164   1.090  51.997  1.00  0.00     0.014 A 
ENDBRANCH   8  16
TORSDOF 1
ENDMDL
MODEL 7
REMARK VINA RESULT:      -7.0      2.646      5.124
REMARK  1 active torsions:
REMARK  status: ('A' for Active; 'I' for Inactive)
REMARK    1  A    between atoms: C6_8  and  C7_9 
ROOT
HETATM    1  C1  UNL     1      25.887   5.618  49.160  1.00  0.00     0.066 A 
HETATM    2  C2  UNL     1      26.059   4.430  49.715  1.00  0.00     0.101 A 
HETATM    3  N1  UNL     1      25.146   4.097  50.688  1.00  0.00    -0.323 N 
HETATM    4  C3  UNL     1      25.187   2.796  51.282  1.00  0.00     0.066 A 
HETATM    5  C4  UNL     1      26.383   2.239  51.183  1.00  0.00     0.032 A 
HETATM    6  C5  UNL     1      26.735   0.894  51.703  1.00  0.00     0.205 A 
HETATM    7  O1  UNL     1      25.648   0.250  52.323  1.00  0.00    -0.344 OA
HETATM    8  C6  UNL     1      24.375   0.790  52.461  1.00  0.00     0.110 A 
HETATM    9  C13 UNL     1      24.129   2.015  51.965  1.00  0.00     0.118 A 
HETATM   10  N2  UNL     1      22.795   2.445  52.154  1.00  0.00    -0.239 NA
HETATM   11  C14 UNL     1      22.243   3.531  51.734  1.00  0.00     0.205 C 
HETATM   12  N3  UNL     1      22.792   4.606  50.972  1.00  0.00    -0.354 N 
HETATM   13  C15 UNL     1      24.163   5.069  51.087  1.00  0.00     0.258 A 
HETATM   14  S1  UNL     1      24.464   6.407  49.906  1.00  0.00    -0.093 SA
HETATM   15  H12 UNL     1      22.067   5.016  50.314  1.00  0.00     0.163 HD
ENDROOT
BRANCH   8  16
HETATM   16  C7  UNL     1      23.318   0.042  53.132  1.00  0.00    -0.000 A 
HETATM   17  C8  UNL     1      22.050  -0.141  52.608  1.00  0.00     0.014 A 
HETATM   18  C9  UNL     1      21.104  -0.870  53.300  1.00  0.00     0.001 A 
HETATM   19  C10 UNL     1      21.359  -1.451  54.531  1.00  0.00     0.000 A 
HETATM   20  C11 UNL     1      22.617  -1.271  55.054  1.00  0.00     0.001 A 
HETATM   21  C12 UNL     1      23.556  -0.543  54.359  1.00  0.00     0.014 A 
ENDBRANCH   8  16
TORSDOF 1
ENDMDL
MODEL 8
REMARK VINA RESULT:      -6.7      2.483      3.779
REMARK  1 active torsions:
REMARK  status: ('A' for Active; 'I' for Inactive)
REMARK    1  A    between atoms: C6_8  and  C7_9 
ROOT
HETATM    1  C1  UNL     1      18.803   4.580  49.854  1.00  0.00     0.066 A 
HETATM    2  C2  UNL     1      19.951   4.637  50.507  1.00  0.00     0.101 A 
HETATM    3  N1  UNL     1      20.403   3.439  51.008  1.00  0.00    -0.323 N 
HETATM    4  C3  UNL     1      21.682   3.376  51.647  1.00  0.00     0.066 A 
HETATM    5  C4  UNL     1      22.066   4.553  52.113  1.00  0.00     0.032 A 
HETATM    6  C5  UNL     1      23.345   4.804  52.823  1.00  0.00     0.205 A 
HETATM    7  O1  UNL     1      24.132   3.644  52.953  1.00  0.00    -0.344 OA
HETATM    8  C6  UNL     1      23.776   2.385  52.489  1.00  0.00     0.110 A 
HETATM    9  C13 UNL     1      22.600   2.231  51.855  1.00  0.00     0.118 A 
HETATM   10  N2  UNL     1      22.361   0.907  51.417  1.00  0.00    -0.239 NA
HETATM   11  C14 UNL     1      21.366   0.466  50.728  1.00  0.00     0.205 C 
HETATM   12  N3  UNL     1      20.229   1.156  50.209  1.00  0.00    -0.354 N 
HETATM   13  C15 UNL     1      19.577   2.268  50.875  1.00  0.00     0.258 A 
HETATM   14  S1  UNL     1      18.217   2.888  49.855  1.00  0.00    -0.093 SA
HETATM   15  H12 UNL     1      19.929   0.748  49.276  1.00  0.00     0.163 HD
ENDROOT
BRANCH   8  16
HETATM   16  C7  UNL     1      24.660   1.241  52.684  1.00  0.00    -0.000 A 
HETATM   17  C8  UNL     1      24.475   0.281  53.663  1.00  0.00     0.014 A 
HETATM   18  C9  UNL     1      25.352  -0.779  53.778  1.00  0.00     0.001 A 
HETATM   19  C10 UNL     1      26.443  -0.945  52.942  1.00  0.00     0.000 A 
HETATM   20  C11 UNL     1      26.629   0.007  51.969  1.00  0.00     0.001 A 
HETATM   21  C12 UNL     1      25.752   1.062  51.858  1.00  0.00     0.014 A 
ENDBRANCH   8  16
TORSDOF 1
ENDMDL
MODEL 9
REMARK VINA RESULT:      -6.6      2.970      4.902
REMARK  1 active torsions:
REMARK  status: ('A' for Active; 'I' for Inactive)
REMARK    1  A    between atoms: C6_8  and  C7_9 
ROOT
HETATM    1  C1  UNL     1      20.548  -0.152  53.145  1.00  0.00     0.066 A 
HETATM    2  C2  UNL     1      21.817   0.214  53.082  1.00  0.00     0.101 A 
HETATM    3  N1  UNL     1      22.172   0.914  51.953  1.00  0.00    -0.323 N 
HETATM    4  C3  UNL     1      23.499   1.437  51.833  1.00  0.00     0.066 A 
HETATM    5  C4  UNL     1      24.366   0.781  52.586  1.00  0.00     0.032 A 
HETATM    6  C5  UNL     1      25.814   1.092  52.674  1.00  0.00     0.205 A 
HETATM    7  O1  UNL     1      26.187   2.180  51.862  1.00  0.00    -0.344 OA
HETATM    8  C6  UNL     1      25.322   2.899  51.048  1.00  0.00     0.110 A 
HETATM    9  C13 UNL     1      24.021   2.560  51.018  1.00  0.00     0.118 A 
HETATM   10  N2  UNL     1      23.242   3.376  50.165  1.00  0.00    -0.239 NA
HETATM   11  C14 UNL     1      21.968   3.344  49.980  1.00  0.00     0.205 C 
HETATM   12  N3  UNL     1      20.975   2.498  50.561  1.00  0.00    -0.354 N 
HETATM   13  C15 UNL     1      21.197   1.108  50.914  1.00  0.00     0.258 A 
HETATM   14  S1  UNL     1      19.705   0.419  51.673  1.00  0.00    -0.093 SA
HETATM   15  H12 UNL     1      20.062   3.021  50.700  1.00  0.00     0.163 HD
ENDROOT
BRANCH   8  16
HETATM   16  C7  UNL     1      25.811   4.006  50.235  1.00  0.00    -0.000 A 
HETATM   17  C8  UNL     1      25.246   5.270  50.230  1.00  0.00     0.014 A 
HETATM   18  C9  UNL     1      25.774   6.270  49.439  1.00  0.00     0.001 A 
HETATM   19  C10 UNL     1      26.875   6.077  48.622  1.00  0.00     0.000 A 
HETATM   20  C11 UNL     1      27.439   4.825  48.625  1.00  0.00     0.001 A 
HETATM   21  C12 UNL     1      26.909   3.831  49.416  1.00  0.00     0.014 A 
ENDBRANCH   8  16
TORSDOF 1
ENDMDL
