MODEL 1
REMARK VINA RESULT:      -7.5      0.000      0.000
REMARK  4 active torsions:
REMARK  status: ('A' for Active; 'I' for Inactive)
REMARK    1  A    between atoms: C2_2  and  C3_3 
REMARK    2  A    between atoms: C5_5  and  C6_6 
REMARK    3  A    between atoms: N3_14  and  C12_15 
REMARK    4  A    between atoms: C12_15  and  C13_16 
ROOT
HETATM    1  C6  UNL     1      25.772   1.215  52.783  1.00  0.00     0.020 C 
HETATM    2  C7  UNL     1      26.947   0.782  53.213  1.00  0.00     0.121 C 
HETATM    3  C8  UNL     1      27.893   1.728  53.732  1.00  0.00     0.110 C 
HETATM    4  N1  UNL     1      28.644   2.506  54.144  1.00  0.00    -0.191 NA
HETATM    5  C9  UNL     1      27.205  -0.629  53.130  1.00  0.00     0.110 C 
HETATM    6  N2  UNL     1      27.414  -1.773  53.074  1.00  0.00    -0.191 NA
ENDROOT
BRANCH   1   7
HETATM    7  C5  UNL     1      24.521   0.646  52.187  1.00  0.00     0.058 A 
HETATM    8  C4  UNL     1      23.703   0.073  53.289  1.00  0.00     0.011 A 
HETATM    9  C3  UNL     1      22.453   0.437  53.515  1.00  0.00     0.008 A 
HETATM   10  N3  UNL     1      21.820   1.415  52.698  1.00  0.00    -0.356 N 
HETATM   11  C11 UNL     1      22.545   2.011  51.620  1.00  0.00     0.088 A 
HETATM   12  C10 UNL     1      23.786   1.645  51.400  1.00  0.00     0.003 A 
BRANCH   9  13
HETATM   13  C2  UNL     1      21.668  -0.152  54.616  1.00  0.00     0.052 C 
HETATM   14  C1  UNL     1      21.403  -1.613  54.431  1.00  0.00     0.011 C 
ENDBRANCH   9  13
BRANCH  10  15
HETATM   15  C12 UNL     1      20.457   1.843  52.908  1.00  0.00     0.166 C 
BRANCH  15  16
HETATM   16  C13 UNL     1      19.475   1.222  52.016  1.00  0.00    -0.040 A 
HETATM   17  C14 UNL     1      19.168   1.831  50.795  1.00  0.00     0.009 A 
HETATM   18  C15 UNL     1      18.235   1.234  49.954  1.00  0.00     0.001 A 
HETATM   19  C16 UNL     1      17.594   0.047  50.285  1.00  0.00     0.000 A 
HETATM   20  C17 UNL     1      17.886  -0.566  51.486  1.00  0.00     0.001 A 
HETATM   21  C18 UNL     1      18.816   0.045  52.304  1.00  0.00     0.009 A 
ENDBRANCH  15  16
ENDBRANCH  10  15
ENDBRANCH   1   7
TORSDOF 4
ENDMDL
MODEL 2
REMARK VINA RESULT:      -7.3      2.755      3.953
REMARK  4 active torsions:
REMARK  status: ('A' for Active; 'I' for Inactive)
REMARK    1  A    between atoms: C2_2  and  C3_3 
REMARK    2  A    between atoms: C5_5  and  C6_6 
REMARK    3  A    between atoms: N3_14  and  C12_15 
REMARK    4  A    between atoms: C12_15  and  C13_16 
ROOT
HETATM    1  C6  UNL     1      27.538   1.699  52.677  1.00  0.00     0.020 C 
HETATM    2  C7  UNL     1      28.313   0.991  53.483  1.00  0.00     0.121 C 
HETATM    3  C8  UNL     1      29.150   1.676  54.427  1.00  0.00     0.110 C 
HETATM    4  N1  UNL     1      29.822   2.246  55.178  1.00  0.00    -0.191 NA
HETATM    5  C9  UNL     1      28.267  -0.439  53.361  1.00  0.00     0.110 C 
HETATM    6  N2  UNL     1      28.225  -1.599  53.272  1.00  0.00    -0.191 NA
ENDROOT
BRANCH   1   7
HETATM    7  C5  UNL     1      26.544   1.455  51.584  1.00  0.00     0.058 A 
HETATM    8  C4  UNL     1      25.218   1.211  52.211  1.00  0.00     0.011 A 
HETATM    9  C3  UNL     1      24.143   1.920  51.912  1.00  0.00     0.008 A 
HETATM   10  N3  UNL     1      24.209   2.972  50.957  1.00  0.00    -0.356 N 
HETATM   11  C11 UNL     1      25.450   3.266  50.313  1.00  0.00     0.088 A 
HETATM   12  C10 UNL     1      26.513   2.558  50.614  1.00  0.00     0.003 A 
BRANCH   9  13
HETATM   13  C2  UNL     1      22.842   1.652  52.552  1.00  0.00     0.052 C 
HETATM   14  C1  UNL     1      22.173   0.421  52.026  1.00  0.00     0.011 C 
ENDBRANCH   9  13
BRANCH  10  15
HETATM   15  C12 UNL     1      23.061   3.773  50.599  1.00  0.00     0.166 C 
BRANCH  15  16
HETATM   16  C13 UNL     1      22.697   3.723  49.182  1.00  0.00    -0.040 A 
HETATM   17  C14 UNL     1      22.384   2.494  48.591  1.00  0.00     0.009 A 
HETATM   18  C15 UNL     1      22.039   2.456  47.245  1.00  0.00     0.001 A 
HETATM   19  C16 UNL     1      21.994   3.602  46.460  1.00  0.00     0.000 A 
HETATM   20  C17 UNL     1      22.300   4.822  47.027  1.00  0.00     0.001 A 
HETATM   21  C18 UNL     1      22.639   4.835  48.367  1.00  0.00     0.009 A 
ENDBRANCH  15  16
ENDBRANCH  10  15
ENDBRANCH   1   7
TORSDOF 4
ENDMDL
MODEL 3
REMARK VINA RESULT:      -7.2      2.661      4.285
REMARK  4 active torsions:
REMARK  status: ('A' for Active; 'I' for Inactive)
REMARK    1  A    between atoms: C2_2  and  C3_3 
REMARK    2  A    between atoms: C5_5  and  C6_6 
REMARK    3  A    between atoms: N3_14  and  C12_15 
REMARK    4  A    between atoms: C12_15  and  C13_16 
ROOT
HETATM    1  C6  UNL     1      26.763   0.605  52.640  1.00  0.00     0.020 C 
HETATM    2  C7  UNL     1      27.545  -0.225  53.312  1.00  0.00     0.121 C 
HETATM    3  C8  UNL     1      27.582  -1.610  52.935  1.00  0.00     0.110 C 
HETATM    4  N1  UNL     1      27.596  -2.724  52.618  1.00  0.00    -0.191 NA
HETATM    5  C9  UNL     1      28.318   0.320  54.393  1.00  0.00     0.110 C 
HETATM    6  N2  UNL     1      28.954   0.760  55.263  1.00  0.00    -0.191 NA
ENDROOT
BRANCH   1   7
HETATM    7  C5  UNL     1      26.402   2.058  52.655  1.00  0.00     0.058 A 
HETATM    8  C4  UNL     1      26.544   2.584  51.271  1.00  0.00     0.011 A 
HETATM    9  C3  UNL     1      25.557   3.187  50.630  1.00  0.00     0.008 A 
HETATM   10  N3  UNL     1      24.288   3.361  51.248  1.00  0.00    -0.356 N 
HETATM   11  C11 UNL     1      24.077   2.880  52.577  1.00  0.00     0.088 A 
HETATM   12  C10 UNL     1      25.060   2.283  53.208  1.00  0.00     0.003 A 
BRANCH   9  13
HETATM   13  C2  UNL     1      25.731   3.698  49.257  1.00  0.00     0.052 C 
HETATM   14  C1  UNL     1      27.033   4.408  49.058  1.00  0.00     0.011 C 
ENDBRANCH   9  13
BRANCH  10  15
HETATM   15  C12 UNL     1      23.181   4.012  50.585  1.00  0.00     0.166 C 
BRANCH  15  16
HETATM   16  C13 UNL     1      22.093   3.116  50.188  1.00  0.00    -0.040 A 
HETATM   17  C14 UNL     1      22.382   1.958  49.459  1.00  0.00     0.009 A 
HETATM   18  C15 UNL     1      21.343   1.114  49.086  1.00  0.00     0.001 A 
HETATM   19  C16 UNL     1      20.019   1.380  49.414  1.00  0.00     0.000 A 
HETATM   20  C17 UNL     1      19.717   2.518  50.132  1.00  0.00     0.001 A 
HETATM   21  C18 UNL     1      20.767   3.342  50.491  1.00  0.00     0.009 A 
ENDBRANCH  15  16
ENDBRANCH  10  15
ENDBRANCH   1   7
TORSDOF 4
ENDMDL
MODEL 4
REMARK VINA RESULT:      -7.2      2.315      4.117
REMARK  4 active torsions:
REMARK  status: ('A' for Active; 'I' for Inactive)
REMARK    1  A    between atoms: C2_2  and  C3_3 
REMARK    2  A    between atoms: C5_5  and  C6_6 
REMARK    3  A    between atoms: N3_14  and  C12_15 
REMARK    4  A    between atoms: C12_15  and  C13_16 
ROOT
HETATM    1  C6  UNL     1      27.621   0.561  53.059  1.00  0.00     0.020 C 
HETATM    2  C7  UNL     1      27.073  -0.643  53.101  1.00  0.00     0.121 C 
HETATM    3  C8  UNL     1      27.925  -1.798  53.132  1.00  0.00     0.110 C 
HETATM    4  N1  UNL     1      28.629  -2.718  53.153  1.00  0.00    -0.191 NA
HETATM    5  C9  UNL     1      25.639  -0.720  53.112  1.00  0.00     0.110 C 
HETATM    6  N2  UNL     1      24.477  -0.785  53.132  1.00  0.00    -0.191 NA
ENDROOT
BRANCH   1   7
HETATM    7  C5  UNL     1      27.176   1.990  53.016  1.00  0.00     0.058 A 
HETATM    8  C4  UNL     1      26.920   2.352  51.597  1.00  0.00     0.011 A 
HETATM    9  C3  UNL     1      25.763   2.834  51.178  1.00  0.00     0.008 A 
HETATM   10  N3  UNL     1      24.685   3.031  52.087  1.00  0.00    -0.356 N 
HETATM   11  C11 UNL     1      24.857   2.704  53.468  1.00  0.00     0.088 A 
HETATM   12  C10 UNL     1      26.009   2.227  53.877  1.00  0.00     0.003 A 
BRANCH   9  13
HETATM   13  C2  UNL     1      25.541   3.184  49.763  1.00  0.00     0.052 C 
HETATM   14  C1  UNL     1      26.358   4.355  49.315  1.00  0.00     0.011 C 
ENDBRANCH   9  13
BRANCH  10  15
HETATM   15  C12 UNL     1      23.404   3.554  51.675  1.00  0.00     0.166 C 
BRANCH  15  16
HETATM   16  C13 UNL     1      22.317   2.572  51.663  1.00  0.00    -0.040 A 
HETATM   17  C14 UNL     1      21.130   2.845  52.350  1.00  0.00     0.009 A 
HETATM   18  C15 UNL     1      20.104   1.907  52.333  1.00  0.00     0.001 A 
HETATM   19  C16 UNL     1      20.216   0.700  51.652  1.00  0.00     0.000 A 
HETATM   20  C17 UNL     1      21.380   0.416  50.970  1.00  0.00     0.001 A 
HETATM   21  C18 UNL     1      22.386   1.363  51.001  1.00  0.00     0.009 A 
ENDBRANCH  15  16
ENDBRANCH  10  15
ENDBRANCH   1   7
TORSDOF 4
ENDMDL
MODEL 5
REMARK VINA RESULT:      -7.1      3.666      6.302
REMARK  4 active torsions:
REMARK  status: ('A' for Active; 'I' for Inactive)
REMARK    1  A    between atoms: C2_2  and  C3_3 
REMARK    2  A    between atoms: C5_5  and  C6_6 
REMARK    3  A    between atoms: N3_14  and  C12_15 
REMARK    4  A    between atoms: C12_15  and  C13_16 
ROOT
HETATM    1  C6  UNL     1      23.254   0.424  53.099  1.00  0.00     0.020 C 
HETATM    2  C7  UNL     1      23.478  -0.505  54.016  1.00  0.00     0.121 C 
HETATM    3  C8  UNL     1      22.373  -1.269  54.521  1.00  0.00     0.110 C 
HETATM    4  N1  UNL     1      21.469  -1.873  54.919  1.00  0.00    -0.191 NA
HETATM    5  C9  UNL     1      24.833  -0.692  54.453  1.00  0.00     0.110 C 
HETATM    6  N2  UNL     1      25.932  -0.853  54.803  1.00  0.00    -0.191 NA
ENDROOT
BRANCH   1   7
HETATM    7  C5  UNL     1      24.037   1.426  52.309  1.00  0.00     0.058 A 
HETATM    8  C4  UNL     1      23.292   1.711  51.055  1.00  0.00     0.011 A 
HETATM    9  C3  UNL     1      22.931   2.932  50.698  1.00  0.00     0.008 A 
HETATM   10  N3  UNL     1      23.245   4.052  51.518  1.00  0.00    -0.356 N 
HETATM   11  C11 UNL     1      23.960   3.855  52.740  1.00  0.00     0.088 A 
HETATM   12  C10 UNL     1      24.316   2.640  53.087  1.00  0.00     0.003 A 
BRANCH   9  13
HETATM   13  C2  UNL     1      22.191   3.181  49.447  1.00  0.00     0.052 C 
HETATM   14  C1  UNL     1      22.761   2.445  48.275  1.00  0.00     0.011 C 
ENDBRANCH   9  13
BRANCH  10  15
HETATM   15  C12 UNL     1      22.871   5.402  51.169  1.00  0.00     0.166 C 
BRANCH  15  16
HETATM   16  C13 UNL     1      23.957   6.216  50.620  1.00  0.00    -0.040 A 
HETATM   17  C14 UNL     1      23.944   7.603  50.803  1.00  0.00     0.009 A 
HETATM   18  C15 UNL     1      24.980   8.367  50.278  1.00  0.00     0.001 A 
HETATM   19  C16 UNL     1      26.035   7.800  49.574  1.00  0.00     0.000 A 
HETATM   20  C17 UNL     1      26.063   6.434  49.385  1.00  0.00     0.001 A 
HETATM   21  C18 UNL     1      25.023   5.695  49.916  1.00  0.00     0.009 A 
ENDBRANCH  15  16
ENDBRANCH  10  15
ENDBRANCH   1   7
TORSDOF 4
ENDMDL
MODEL 6
REMARK VINA RESULT:      -7.1      2.911      7.050
REMARK  4 active torsions:
REMARK  status: ('A' for Active; 'I' for Inactive)
REMARK    1  A    between atoms: C2_2  and  C3_3 
REMARK    2  A    between atoms: C5_5  and  C6_6 
REMARK    3  A    between atoms: N3_14  and  C12_15 
REMARK    4  A    between atoms: C12_15  and  C13_16 
ROOT
HETATM    1  C6  UNL     1      22.971   2.510  50.257  1.00  0.00     0.020 C 
HETATM    2  C7  UNL     1      22.988   3.433  49.307  1.00  0.00     0.121 C 
HETATM    3  C8  UNL     1      22.554   3.082  47.985  1.00  0.00     0.110 C 
HETATM    4  N1  UNL     1      22.204   2.779  46.923  1.00  0.00    -0.191 NA
HETATM    5  C9  UNL     1      23.446   4.746  49.666  1.00  0.00     0.110 C 
HETATM    6  N2  UNL     1      23.808   5.814  49.955  1.00  0.00    -0.191 NA
ENDROOT
BRANCH   1   7
HETATM    7  C5  UNL     1      23.309   2.398  51.711  1.00  0.00     0.058 A 
HETATM    8  C4  UNL     1      22.543   1.255  52.277  1.00  0.00     0.011 A 
HETATM    9  C3  UNL     1      23.123   0.246  52.905  1.00  0.00     0.008 A 
HETATM   10  N3  UNL     1      24.535   0.206  53.069  1.00  0.00    -0.356 N 
HETATM   11  C11 UNL     1      25.337   1.270  52.550  1.00  0.00     0.088 A 
HETATM   12  C10 UNL     1      24.756   2.269  51.929  1.00  0.00     0.003 A 
BRANCH   9  13
HETATM   13  C2  UNL     1      22.334  -0.872  53.455  1.00  0.00     0.052 C 
HETATM   14  C1  UNL     1      21.619  -0.516  54.721  1.00  0.00     0.011 C 
ENDBRANCH   9  13
BRANCH  10  15
HETATM   15  C12 UNL     1      25.211  -0.875  53.747  1.00  0.00     0.166 C 
BRANCH  15  16
HETATM   16  C13 UNL     1      26.666  -0.730  53.833  1.00  0.00    -0.040 A 
HETATM   17  C14 UNL     1      27.488  -1.487  52.993  1.00  0.00     0.009 A 
HETATM   18  C15 UNL     1      28.868  -1.341  53.083  1.00  0.00     0.001 A 
HETATM   19  C16 UNL     1      29.463  -0.465  53.982  1.00  0.00     0.000 A 
HETATM   20  C17 UNL     1      28.666   0.289  54.818  1.00  0.00     0.001 A 
HETATM   21  C18 UNL     1      27.298   0.128  54.710  1.00  0.00     0.009 A 
ENDBRANCH  15  16
ENDBRANCH  10  15
ENDBRANCH   1   7
TORSDOF 4
ENDMDL
MODEL 7
REMARK VINA RESULT:      -7.1      3.606      5.691
REMARK  4 active torsions:
REMARK  status: ('A' for Active; 'I' for Inactive)
REMARK    1  A    between atoms: C2_2  and  C3_3 
REMARK    2  A    between atoms: C5_5  and  C6_6 
REMARK    3  A    between atoms: N3_14  and  C12_15 
REMARK    4  A    between atoms: C12_15  and  C13_16 
ROOT
HETATM    1  C6  UNL     1      25.779   5.553  48.926  1.00  0.00     0.020 C 
HETATM    2  C7  UNL     1      26.863   4.812  49.090  1.00  0.00     0.121 C 
HETATM    3  C8  UNL     1      28.094   5.231  48.482  1.00  0.00     0.110 C 
HETATM    4  N1  UNL     1      29.077   5.584  47.982  1.00  0.00    -0.191 NA
HETATM    5  C9  UNL     1      26.738   3.617  49.876  1.00  0.00     0.110 C 
HETATM    6  N2  UNL     1      26.642   2.652  50.521  1.00  0.00    -0.191 NA
ENDROOT
BRANCH   1   7
HETATM    7  C5  UNL     1      24.340   5.534  49.339  1.00  0.00     0.058 A 
HETATM    8  C4  UNL     1      23.755   4.233  48.918  1.00  0.00     0.011 A 
HETATM    9  C3  UNL     1      23.159   3.409  49.763  1.00  0.00     0.008 A 
HETATM   10  N3  UNL     1      23.050   3.737  51.143  1.00  0.00    -0.356 N 
HETATM   11  C11 UNL     1      23.589   4.971  51.622  1.00  0.00     0.088 A 
HETATM   12  C10 UNL     1      24.179   5.784  50.777  1.00  0.00     0.003 A 
BRANCH   9  13
HETATM   13  C2  UNL     1      22.590   2.125  49.313  1.00  0.00     0.052 C 
HETATM   14  C1  UNL     1      22.346   2.078  47.837  1.00  0.00     0.011 C 
ENDBRANCH   9  13
BRANCH  10  15
HETATM   15  C12 UNL     1      22.409   2.867  52.102  1.00  0.00     0.166 C 
BRANCH  15  16
HETATM   16  C13 UNL     1      23.273   1.823  52.656  1.00  0.00    -0.040 A 
HETATM   17  C14 UNL     1      22.797   0.512  52.757  1.00  0.00     0.009 A 
HETATM   18  C15 UNL     1      23.625  -0.473  53.283  1.00  0.00     0.001 A 
HETATM   19  C16 UNL     1      24.918  -0.200  53.715  1.00  0.00     0.000 A 
HETATM   20  C17 UNL     1      25.403   1.088  53.622  1.00  0.00     0.001 A 
HETATM   21  C18 UNL     1      24.561   2.049  53.095  1.00  0.00     0.009 A 
ENDBRANCH  15  16
ENDBRANCH  10  15
ENDBRANCH   1   7
TORSDOF 4
ENDMDL
MODEL 8
REMARK VINA RESULT:      -7.1      3.170      5.947
REMARK  4 active torsions:
REMARK  status: ('A' for Active; 'I' for Inactive)
REMARK    1  A    between atoms: C2_2  and  C3_3 
REMARK    2  A    between atoms: C5_5  and  C6_6 
REMARK    3  A    between atoms: N3_14  and  C12_15 
REMARK    4  A    between atoms: C12_15  and  C13_16 
ROOT
HETATM    1  C6  UNL     1      23.170   0.415  53.114  1.00  0.00     0.020 C 
HETATM    2  C7  UNL     1      23.241  -0.545  54.023  1.00  0.00     0.121 C 
HETATM    3  C8  UNL     1      24.514  -0.868  54.601  1.00  0.00     0.110 C 
HETATM    4  N1  UNL     1      25.551  -1.117  55.053  1.00  0.00    -0.191 NA
HETATM    5  C9  UNL     1      22.020  -1.214  54.378  1.00  0.00     0.110 C 
HETATM    6  N2  UNL     1      21.031  -1.751  54.675  1.00  0.00    -0.191 NA
ENDROOT
BRANCH   1   7
HETATM    7  C5  UNL     1      22.127   1.079  52.269  1.00  0.00     0.058 A 
HETATM    8  C4  UNL     1      22.143   2.534  52.573  1.00  0.00     0.011 A 
HETATM    9  C3  UNL     1      22.313   3.458  51.643  1.00  0.00     0.008 A 
HETATM   10  N3  UNL     1      22.494   3.093  50.279  1.00  0.00    -0.356 N 
HETATM   11  C11 UNL     1      22.491   1.712  49.912  1.00  0.00     0.088 A 
HETATM   12  C10 UNL     1      22.322   0.800  50.840  1.00  0.00     0.003 A 
BRANCH   9  13
HETATM   13  C2  UNL     1      22.323   4.894  51.978  1.00  0.00     0.052 C 
HETATM   14  C1  UNL     1      23.576   5.323  52.675  1.00  0.00     0.011 C 
ENDBRANCH   9  13
BRANCH  10  15
HETATM   15  C12 UNL     1      22.684   4.067  49.230  1.00  0.00     0.166 C 
BRANCH  15  16
HETATM   16  C13 UNL     1      24.054   4.567  49.100  1.00  0.00    -0.040 A 
HETATM   17  C14 UNL     1      24.275   5.868  48.636  1.00  0.00     0.009 A 
HETATM   18  C15 UNL     1      25.579   6.334  48.516  1.00  0.00     0.001 A 
HETATM   19  C16 UNL     1      26.679   5.548  48.842  1.00  0.00     0.000 A 
HETATM   20  C17 UNL     1      26.478   4.263  49.300  1.00  0.00     0.001 A 
HETATM   21  C18 UNL     1      25.173   3.822  49.412  1.00  0.00     0.009 A 
ENDBRANCH  15  16
ENDBRANCH  10  15
ENDBRANCH   1   7
TORSDOF 4
ENDMDL
MODEL 9
REMARK VINA RESULT:      -7.1      3.679      5.231
REMARK  4 active torsions:
REMARK  status: ('A' for Active; 'I' for Inactive)
REMARK    1  A    between atoms: C2_2  and  C3_3 
REMARK    2  A    between atoms: C5_5  and  C6_6 
REMARK    3  A    between atoms: N3_14  and  C12_15 
REMARK    4  A    between atoms: C12_15  and  C13_16 
ROOT
HETATM    1  C6  UNL     1      27.226   0.719  52.980  1.00  0.00     0.020 C 
HETATM    2  C7  UNL     1      28.339   0.353  53.598  1.00  0.00     0.121 C 
HETATM    3  C8  UNL     1      28.782  -1.008  53.492  1.00  0.00     0.110 C 
HETATM    4  N1  UNL     1      29.121  -2.111  53.398  1.00  0.00    -0.191 NA
HETATM    5  C9  UNL     1      29.042   1.357  54.346  1.00  0.00     0.110 C 
HETATM    6  N2  UNL     1      29.620   2.170  54.946  1.00  0.00    -0.191 NA
ENDROOT
BRANCH   1   7
HETATM    7  C5  UNL     1      26.402   1.956  52.802  1.00  0.00     0.058 A 
HETATM    8  C4  UNL     1      26.763   2.569  51.497  1.00  0.00     0.011 A 
HETATM    9  C3  UNL     1      25.872   2.828  50.556  1.00  0.00     0.008 A 
HETATM   10  N3  UNL     1      24.496   2.523  50.754  1.00  0.00    -0.356 N 
HETATM   11  C11 UNL     1      24.074   1.930  51.984  1.00  0.00     0.088 A 
HETATM   12  C10 UNL     1      24.964   1.677  52.914  1.00  0.00     0.003 A 
BRANCH   9  13
HETATM   13  C2  UNL     1      26.264   3.438  49.272  1.00  0.00     0.052 C 
HETATM   14  C1  UNL     1      26.596   4.892  49.392  1.00  0.00     0.011 C 
ENDBRANCH   9  13
BRANCH  10  15
HETATM   15  C12 UNL     1      23.488   2.787  49.754  1.00  0.00     0.166 C 
BRANCH  15  16
HETATM   16  C13 UNL     1      22.955   4.151  49.767  1.00  0.00    -0.040 A 
HETATM   17  C14 UNL     1      22.954   4.905  48.589  1.00  0.00     0.009 A 
HETATM   18  C15 UNL     1      22.446   6.199  48.612  1.00  0.00     0.001 A 
HETATM   19  C16 UNL     1      21.935   6.773  49.769  1.00  0.00     0.000 A 
HETATM   20  C17 UNL     1      21.929   6.043  50.939  1.00  0.00     0.001 A 
HETATM   21  C18 UNL     1      22.439   4.760  50.893  1.00  0.00     0.009 A 
ENDBRANCH  15  16
ENDBRANCH  10  15
ENDBRANCH   1   7
TORSDOF 4
ENDMDL
