MODEL 1
REMARK VINA RESULT:      -8.1      0.000      0.000
REMARK  5 active torsions:
REMARK  status: ('A' for Active; 'I' for Inactive)
REMARK    1  A    between atoms: C2_2  and  C3_3 
REMARK    2  A    between atoms: C4_4  and  N1_5 
REMARK    3  A    between atoms: C7_9  and  N3_10 
REMARK    4  A    between atoms: N3_10  and  C8_11 
REMARK    5  A    between atoms: C8_11  and  C9_12 
ROOT
HETATM    1  N1  UNL     1      21.013   1.385  52.398  1.00  0.00    -0.226 N 
HETATM    2  N2  UNL     1      21.744   0.325  52.773  1.00  0.00    -0.178 NA
HETATM    3  C5  UNL     1      23.006   0.738  52.967  1.00  0.00     0.158 A 
HETATM    4  C6  UNL     1      23.073   2.090  52.707  1.00  0.00     0.076 A 
HETATM    5  C7  UNL     1      24.039   3.094  52.713  1.00  0.00     0.140 A 
HETATM    6  N4  UNL     1      23.699   4.348  52.383  1.00  0.00    -0.224 NA
HETATM    7  C16 UNL     1      22.452   4.730  52.033  1.00  0.00     0.237 A 
HETATM    8  N5  UNL     1      21.554   3.733  52.040  1.00  0.00    -0.221 NA
HETATM    9  C17 UNL     1      21.784   2.466  52.348  1.00  0.00     0.167 A 
ENDROOT
BRANCH   5  10
HETATM   10  N3  UNL     1      25.377   2.725  53.080  1.00  0.00    -0.370 N 
HETATM   11  H9  UNL     1      25.712   2.837  54.039  1.00  0.00     0.161 HD
BRANCH  10  12
HETATM   12  C8  UNL     1      26.218   2.185  51.989  1.00  0.00     0.156 C 
BRANCH  12  13
HETATM   13  C9  UNL     1      27.132   1.185  52.644  1.00  0.00    -0.055 C 
HETATM   14  C10 UNL     1      27.859   2.110  52.970  1.00  0.00     0.032 C 
HETATM   15  C11 UNL     1      28.998   1.419  53.733  1.00  0.00     0.093 C 
HETATM   16  C12 UNL     1      29.387   0.181  54.131  1.00  0.00     0.107 C 
HETATM   17  O1  UNL     1      29.222  -1.215  54.230  1.00  0.00    -0.366 OA
HETATM   18  C13 UNL     1      29.017  -2.052  53.082  1.00  0.00     0.343 C 
HETATM   19  O2  UNL     1      27.625  -2.426  53.073  1.00  0.00    -0.338 OA
HETATM   20  C14 UNL     1      26.807  -1.358  52.602  1.00  0.00     0.138 C 
HETATM   21  C15 UNL     1      26.411  -0.096  52.337  1.00  0.00     0.029 C 
ENDBRANCH  12  13
ENDBRANCH  10  12
ENDBRANCH   5  10
BRANCH   1  22
HETATM   22  C4  UNL     1      19.632   1.224  52.125  1.00  0.00     0.116 C 
HETATM   23  C3  UNL     1      19.105   0.032  51.969  1.00  0.00    -0.008 C 
BRANCH  23  24
HETATM   24  C2  UNL     1      17.716  -0.400  51.682  1.00  0.00     0.024 C 
HETATM   25  C1  UNL     1      17.253  -1.319  52.816  1.00  0.00     0.009 C 
ENDBRANCH  23  24
ENDBRANCH   1  22
TORSDOF 5
ENDMDL
MODEL 2
REMARK VINA RESULT:      -7.9      2.187      3.549
REMARK  5 active torsions:
REMARK  status: ('A' for Active; 'I' for Inactive)
REMARK    1  A    between atoms: C2_2  and  C3_3 
REMARK    2  A    between atoms: C4_4  and  N1_5 
REMARK    3  A    between atoms: C7_9  and  N3_10 
REMARK    4  A    between atoms: N3_10  and  C8_11 
REMARK    5  A    between atoms: C8_11  and  C9_12 
ROOT
HETATM    1  N1  UNL     1      19.856  -0.500  53.152  1.00  0.00    -0.226 N 
HETATM    2  N2  UNL     1      20.084   0.352  52.141  1.00  0.00    -0.178 NA
HETATM    3  C5  UNL     1      21.394   0.641  52.128  1.00  0.00     0.158 A 
HETATM    4  C6  UNL     1      22.008  -0.044  53.156  1.00  0.00     0.076 A 
HETATM    5  C7  UNL     1      23.291  -0.184  53.679  1.00  0.00     0.140 A 
HETATM    6  N4  UNL     1      23.495  -0.981  54.738  1.00  0.00    -0.224 NA
HETATM    7  C16 UNL     1      22.524  -1.683  55.360  1.00  0.00     0.237 A 
HETATM    8  N5  UNL     1      21.305  -1.519  54.823  1.00  0.00    -0.221 NA
HETATM    9  C17 UNL     1      20.996  -0.760  53.784  1.00  0.00     0.167 A 
ENDROOT
BRANCH   5  10
HETATM   10  N3  UNL     1      24.350   0.548  53.044  1.00  0.00    -0.370 N 
HETATM   11  H9  UNL     1      24.464   1.552  53.194  1.00  0.00     0.161 HD
BRANCH  10  12
HETATM   12  C8  UNL     1      25.244  -0.244  52.169  1.00  0.00     0.156 C 
BRANCH  12  13
HETATM   13  C9  UNL     1      26.634   0.002  52.688  1.00  0.00    -0.055 C 
HETATM   14  C10 UNL     1      26.834  -1.201  52.634  1.00  0.00     0.032 C 
HETATM   15  C11 UNL     1      28.282  -1.346  53.125  1.00  0.00     0.093 C 
HETATM   16  C12 UNL     1      29.322  -0.583  53.549  1.00  0.00     0.107 C 
HETATM   17  O1  UNL     1      29.930   0.649  53.857  1.00  0.00    -0.366 OA
HETATM   18  C13 UNL     1      29.348   1.591  54.771  1.00  0.00     0.343 C 
HETATM   19  O2  UNL     1      28.802   2.666  53.982  1.00  0.00    -0.338 OA
HETATM   20  C14 UNL     1      27.566   2.289  53.381  1.00  0.00     0.138 C 
HETATM   21  C15 UNL     1      26.610   1.494  52.856  1.00  0.00     0.029 C 
ENDBRANCH  12  13
ENDBRANCH  10  12
ENDBRANCH   5  10
BRANCH   1  22
HETATM   22  C4  UNL     1      18.540  -0.968  53.392  1.00  0.00     0.116 C 
HETATM   23  C3  UNL     1      18.238  -2.238  53.268  1.00  0.00    -0.008 C 
BRANCH  23  24
HETATM   24  C2  UNL     1      16.962  -2.970  53.457  1.00  0.00     0.024 C 
HETATM   25  C1  UNL     1      17.262  -4.473  53.442  1.00  0.00     0.009 C 
ENDBRANCH  23  24
ENDBRANCH   1  22
TORSDOF 5
ENDMDL
MODEL 3
REMARK VINA RESULT:      -7.7      3.403      6.441
REMARK  5 active torsions:
REMARK  status: ('A' for Active; 'I' for Inactive)
REMARK    1  A    between atoms: C2_2  and  C3_3 
REMARK    2  A    between atoms: C4_4  and  N1_5 
REMARK    3  A    between atoms: C7_9  and  N3_10 
REMARK    4  A    between atoms: N3_10  and  C8_11 
REMARK    5  A    between atoms: C8_11  and  C9_12 
ROOT
HETATM    1  N1  UNL     1      26.515   5.140  49.219  1.00  0.00    -0.226 N 
HETATM    2  N2  UNL     1      27.191   3.984  49.302  1.00  0.00    -0.178 NA
HETATM    3  C5  UNL     1      26.471   3.136  50.052  1.00  0.00     0.158 A 
HETATM    4  C6  UNL     1      25.315   3.771  50.452  1.00  0.00     0.076 A 
HETATM    5  C7  UNL     1      24.187   3.475  51.214  1.00  0.00     0.140 A 
HETATM    6  N4  UNL     1      23.234   4.403  51.382  1.00  0.00    -0.224 NA
HETATM    7  C16 UNL     1      23.280   5.645  50.854  1.00  0.00     0.237 A 
HETATM    8  N5  UNL     1      24.383   5.887  50.128  1.00  0.00    -0.221 NA
HETATM    9  C17 UNL     1      25.379   5.045  49.901  1.00  0.00     0.167 A 
ENDROOT
BRANCH   5  10
HETATM   10  N3  UNL     1      24.103   2.164  51.792  1.00  0.00    -0.370 N 
HETATM   11  H9  UNL     1      23.760   1.368  51.251  1.00  0.00     0.161 HD
BRANCH  10  12
HETATM   12  C8  UNL     1      24.537   2.053  53.203  1.00  0.00     0.156 C 
BRANCH  12  13
HETATM   13  C9  UNL     1      25.732   1.141  53.185  1.00  0.00    -0.055 C 
HETATM   14  C10 UNL     1      24.980   0.211  52.941  1.00  0.00     0.032 C 
HETATM   15  C11 UNL     1      25.924  -0.995  52.835  1.00  0.00     0.093 C 
HETATM   16  C12 UNL     1      27.245  -1.297  52.912  1.00  0.00     0.107 C 
HETATM   17  O1  UNL     1      28.601  -0.958  53.090  1.00  0.00    -0.366 OA
HETATM   18  C13 UNL     1      29.075  -0.249  54.244  1.00  0.00     0.343 C 
HETATM   19  O2  UNL     1      29.345   1.104  53.828  1.00  0.00    -0.338 OA
HETATM   20  C14 UNL     1      28.140   1.856  53.701  1.00  0.00     0.138 C 
HETATM   21  C15 UNL     1      26.832   2.114  53.497  1.00  0.00     0.029 C 
ENDBRANCH  12  13
ENDBRANCH  10  12
ENDBRANCH   5  10
BRANCH   1  22
HETATM   22  C4  UNL     1      27.060   6.219  48.478  1.00  0.00     0.116 C 
HETATM   23  C3  UNL     1      28.306   6.200  48.067  1.00  0.00    -0.008 C 
BRANCH  23  24
HETATM   24  C2  UNL     1      29.102   7.182  47.292  1.00  0.00     0.024 C 
HETATM   25  C1  UNL     1      30.563   6.722  47.288  1.00  0.00     0.009 C 
ENDBRANCH  23  24
ENDBRANCH   1  22
TORSDOF 5
ENDMDL
MODEL 4
REMARK VINA RESULT:      -7.7      1.680      2.681
REMARK  5 active torsions:
REMARK  status: ('A' for Active; 'I' for Inactive)
REMARK    1  A    between atoms: C2_2  and  C3_3 
REMARK    2  A    between atoms: C4_4  and  N1_5 
REMARK    3  A    between atoms: C7_9  and  N3_10 
REMARK    4  A    between atoms: N3_10  and  C8_11 
REMARK    5  A    between atoms: C8_11  and  C9_12 
ROOT
HETATM    1  N1  UNL     1      19.760  -0.054  52.665  1.00  0.00    -0.226 N 
HETATM    2  N2  UNL     1      19.940   1.008  51.865  1.00  0.00    -0.178 NA
HETATM    3  C5  UNL     1      21.214   1.411  51.992  1.00  0.00     0.158 A 
HETATM    4  C6  UNL     1      21.851   0.585  52.893  1.00  0.00     0.076 A 
HETATM    5  C7  UNL     1      23.120   0.457  53.455  1.00  0.00     0.140 A 
HETATM    6  N4  UNL     1      23.361  -0.521  54.339  1.00  0.00    -0.224 NA
HETATM    7  C16 UNL     1      22.442  -1.424  54.744  1.00  0.00     0.237 A 
HETATM    8  N5  UNL     1      21.235  -1.263  54.179  1.00  0.00    -0.221 NA
HETATM    9  C17 UNL     1      20.893  -0.336  53.300  1.00  0.00     0.167 A 
ENDROOT
BRANCH   5  10
HETATM   10  N3  UNL     1      24.124   1.398  53.047  1.00  0.00    -0.370 N 
HETATM   11  H9  UNL     1      24.187   2.324  53.476  1.00  0.00     0.161 HD
BRANCH  10  12
HETATM   12  C8  UNL     1      25.041   0.940  51.979  1.00  0.00     0.156 C 
BRANCH  12  13
HETATM   13  C9  UNL     1      26.366   0.718  52.655  1.00  0.00    -0.055 C 
HETATM   14  C10 UNL     1      26.473   1.928  52.773  1.00  0.00     0.032 C 
HETATM   15  C11 UNL     1      27.820   2.099  53.490  1.00  0.00     0.093 C 
HETATM   16  C12 UNL     1      28.832   1.354  54.003  1.00  0.00     0.107 C 
HETATM   17  O1  UNL     1      29.461   0.129  54.304  1.00  0.00    -0.366 OA
HETATM   18  C13 UNL     1      29.724  -0.869  53.307  1.00  0.00     0.343 C 
HETATM   19  O2  UNL     1      28.765  -1.926  53.502  1.00  0.00    -0.338 OA
HETATM   20  C14 UNL     1      27.486  -1.565  52.986  1.00  0.00     0.138 C 
HETATM   21  C15 UNL     1      26.458  -0.780  52.603  1.00  0.00     0.029 C 
ENDBRANCH  12  13
ENDBRANCH  10  12
ENDBRANCH   5  10
BRANCH   1  22
HETATM   22  C4  UNL     1      18.489  -0.680  52.724  1.00  0.00     0.116 C 
HETATM   23  C3  UNL     1      17.552  -0.398  51.850  1.00  0.00    -0.008 C 
BRANCH  23  24
HETATM   24  C2  UNL     1      16.167  -0.902  51.695  1.00  0.00     0.024 C 
HETATM   25  C1  UNL     1      15.261  -0.129  52.659  1.00  0.00     0.009 C 
ENDBRANCH  23  24
ENDBRANCH   1  22
TORSDOF 5
ENDMDL
MODEL 5
REMARK VINA RESULT:      -7.6      4.412      5.962
REMARK  5 active torsions:
REMARK  status: ('A' for Active; 'I' for Inactive)
REMARK    1  A    between atoms: C2_2  and  C3_3 
REMARK    2  A    between atoms: C4_4  and  N1_5 
REMARK    3  A    between atoms: C7_9  and  N3_10 
REMARK    4  A    between atoms: N3_10  and  C8_11 
REMARK    5  A    between atoms: C8_11  and  C9_12 
ROOT
HETATM    1  N1  UNL     1      23.193   0.742  53.095  1.00  0.00    -0.226 N 
HETATM    2  N2  UNL     1      22.706   1.941  52.742  1.00  0.00    -0.178 NA
HETATM    3  C5  UNL     1      23.699   2.643  52.177  1.00  0.00     0.158 A 
HETATM    4  C6  UNL     1      24.841   1.870  52.174  1.00  0.00     0.076 A 
HETATM    5  C7  UNL     1      26.165   1.989  51.757  1.00  0.00     0.140 A 
HETATM    6  N4  UNL     1      27.014   0.968  51.938  1.00  0.00    -0.224 NA
HETATM    7  C16 UNL     1      26.679  -0.208  52.510  1.00  0.00     0.237 A 
HETATM    8  N5  UNL     1      25.396  -0.279  52.896  1.00  0.00    -0.221 NA
HETATM    9  C17 UNL     1      24.479   0.666  52.766  1.00  0.00     0.167 A 
ENDROOT
BRANCH   5  10
HETATM   10  N3  UNL     1      26.558   3.226  51.143  1.00  0.00    -0.370 N 
HETATM   11  H9  UNL     1      27.168   3.887  51.628  1.00  0.00     0.161 HD
BRANCH  10  12
HETATM   12  C8  UNL     1      26.022   3.469  49.785  1.00  0.00     0.156 C 
BRANCH  12  13
HETATM   13  C9  UNL     1      26.386   4.892  49.459  1.00  0.00    -0.055 C 
HETATM   14  C10 UNL     1      27.364   4.472  48.862  1.00  0.00     0.032 C 
HETATM   15  C11 UNL     1      28.039   5.748  48.337  1.00  0.00     0.093 C 
HETATM   16  C12 UNL     1      27.865   7.094  48.332  1.00  0.00     0.107 C 
HETATM   17  O1  UNL     1      27.162   8.269  48.663  1.00  0.00    -0.366 OA
HETATM   18  C13 UNL     1      26.800   8.600  50.012  1.00  0.00     0.343 C 
HETATM   19  O2  UNL     1      25.386   8.356  50.143  1.00  0.00    -0.338 OA
HETATM   20  C14 UNL     1      25.112   6.963  50.273  1.00  0.00     0.138 C 
HETATM   21  C15 UNL     1      25.272   5.630  50.145  1.00  0.00     0.029 C 
ENDBRANCH  12  13
ENDBRANCH  10  12
ENDBRANCH   5  10
BRANCH   1  22
HETATM   22  C4  UNL     1      22.344  -0.204  53.721  1.00  0.00     0.116 C 
HETATM   23  C3  UNL     1      21.114  -0.392  53.306  1.00  0.00    -0.008 C 
BRANCH  23  24
HETATM   24  C2  UNL     1      20.043  -1.301  53.780  1.00  0.00     0.024 C 
HETATM   25  C1  UNL     1      18.734  -0.907  53.087  1.00  0.00     0.009 C 
ENDBRANCH  23  24
ENDBRANCH   1  22
TORSDOF 5
ENDMDL
MODEL 6
REMARK VINA RESULT:      -7.4      3.624      7.461
REMARK  5 active torsions:
REMARK  status: ('A' for Active; 'I' for Inactive)
REMARK    1  A    between atoms: C2_2  and  C3_3 
REMARK    2  A    between atoms: C4_4  and  N1_5 
REMARK    3  A    between atoms: C7_9  and  N3_10 
REMARK    4  A    between atoms: N3_10  and  C8_11 
REMARK    5  A    between atoms: C8_11  and  C9_12 
ROOT
HETATM    1  N1  UNL     1      25.217  -0.122  53.345  1.00  0.00    -0.226 N 
HETATM    2  N2  UNL     1      25.320   0.835  52.410  1.00  0.00    -0.178 NA
HETATM    3  C5  UNL     1      24.095   1.340  52.197  1.00  0.00     0.158 A 
HETATM    4  C6  UNL     1      23.199   0.687  53.016  1.00  0.00     0.076 A 
HETATM    5  C7  UNL     1      21.831   0.719  53.281  1.00  0.00     0.140 A 
HETATM    6  N4  UNL     1      21.309  -0.116  54.190  1.00  0.00    -0.224 NA
HETATM    7  C16 UNL     1      22.025  -1.018  54.895  1.00  0.00     0.237 A 
HETATM    8  N5  UNL     1      23.337  -1.015  54.609  1.00  0.00    -0.221 NA
HETATM    9  C17 UNL     1      23.951  -0.237  53.732  1.00  0.00     0.167 A 
ENDROOT
BRANCH   5  10
HETATM   10  N3  UNL     1      21.037   1.666  52.551  1.00  0.00    -0.370 N 
HETATM   11  H9  UNL     1      20.908   2.621  52.890  1.00  0.00     0.161 HD
BRANCH  10  12
HETATM   12  C8  UNL     1      20.429   1.165  51.298  1.00  0.00     0.156 C 
BRANCH  12  13
HETATM   13  C9  UNL     1      21.061   1.969  50.195  1.00  0.00    -0.055 C 
HETATM   14  C10 UNL     1      21.171   0.939  49.550  1.00  0.00     0.032 C 
HETATM   15  C11 UNL     1      21.826   1.405  48.242  1.00  0.00     0.093 C 
HETATM   16  C12 UNL     1      22.266   2.540  47.640  1.00  0.00     0.107 C 
HETATM   17  O1  UNL     1      22.490   3.930  47.596  1.00  0.00    -0.366 OA
HETATM   18  C13 UNL     1      23.219   4.629  48.616  1.00  0.00     0.343 C 
HETATM   19  O2  UNL     1      22.255   5.349  49.408  1.00  0.00    -0.338 OA
HETATM   20  C14 UNL     1      21.574   4.479  50.310  1.00  0.00     0.138 C 
HETATM   21  C15 UNL     1      21.048   3.341  50.807  1.00  0.00     0.029 C 
ENDBRANCH  12  13
ENDBRANCH  10  12
ENDBRANCH   5  10
BRANCH   1  22
HETATM   22  C4  UNL     1      26.376  -0.825  53.759  1.00  0.00     0.116 C 
HETATM   23  C3  UNL     1      27.446  -0.877  53.001  1.00  0.00    -0.008 C 
BRANCH  23  24
HETATM   24  C2  UNL     1      28.761  -1.533  53.197  1.00  0.00     0.024 C 
HETATM   25  C1  UNL     1      29.774  -0.464  53.622  1.00  0.00     0.009 C 
ENDBRANCH  23  24
ENDBRANCH   1  22
TORSDOF 5
ENDMDL
MODEL 7
REMARK VINA RESULT:      -7.4      1.884      3.310
REMARK  5 active torsions:
REMARK  status: ('A' for Active; 'I' for Inactive)
REMARK    1  A    between atoms: C2_2  and  C3_3 
REMARK    2  A    between atoms: C4_4  and  N1_5 
REMARK    3  A    between atoms: C7_9  and  N3_10 
REMARK    4  A    between atoms: N3_10  and  C8_11 
REMARK    5  A    between atoms: C8_11  and  C9_12 
ROOT
HETATM    1  N1  UNL     1      20.246   1.422  52.142  1.00  0.00    -0.226 N 
HETATM    2  N2  UNL     1      21.209   2.262  51.733  1.00  0.00    -0.178 NA
HETATM    3  C5  UNL     1      22.378   1.825  52.227  1.00  0.00     0.158 A 
HETATM    4  C6  UNL     1      22.147   0.684  52.965  1.00  0.00     0.076 A 
HETATM    5  C7  UNL     1      22.889  -0.228  53.713  1.00  0.00     0.140 A 
HETATM    6  N4  UNL     1      22.272  -1.257  54.312  1.00  0.00    -0.224 NA
HETATM    7  C16 UNL     1      20.944  -1.490  54.245  1.00  0.00     0.237 A 
HETATM    8  N5  UNL     1      20.268  -0.589  53.515  1.00  0.00    -0.221 NA
HETATM    9  C17 UNL     1      20.778   0.458  52.887  1.00  0.00     0.167 A 
ENDROOT
BRANCH   5  10
HETATM   10  N3  UNL     1      24.305  -0.012  53.806  1.00  0.00    -0.370 N 
HETATM   11  H9  UNL     1      24.704   0.570  54.545  1.00  0.00     0.161 HD
BRANCH  10  12
HETATM   12  C8  UNL     1      25.127  -0.680  52.771  1.00  0.00     0.156 C 
BRANCH  12  13
HETATM   13  C9  UNL     1      26.544  -0.264  53.055  1.00  0.00    -0.055 C 
HETATM   14  C10 UNL     1      26.873  -1.436  52.962  1.00  0.00     0.032 C 
HETATM   15  C11 UNL     1      28.389  -1.402  53.205  1.00  0.00     0.093 C 
HETATM   16  C12 UNL     1      29.387  -0.517  53.456  1.00  0.00     0.107 C 
HETATM   17  O1  UNL     1      29.887   0.783  53.666  1.00  0.00    -0.366 OA
HETATM   18  C13 UNL     1      29.357   1.663  54.669  1.00  0.00     0.343 C 
HETATM   19  O2  UNL     1      28.564   2.654  53.987  1.00  0.00    -0.338 OA
HETATM   20  C14 UNL     1      27.299   2.126  53.597  1.00  0.00     0.138 C 
HETATM   21  C15 UNL     1      26.371   1.217  53.233  1.00  0.00     0.029 C 
ENDBRANCH  12  13
ENDBRANCH  10  12
ENDBRANCH   5  10
BRANCH   1  22
HETATM   22  C4  UNL     1      18.902   1.657  51.758  1.00  0.00     0.116 C 
HETATM   23  C3  UNL     1      18.276   0.842  50.943  1.00  0.00    -0.008 C 
BRANCH  23  24
HETATM   24  C2  UNL     1      16.898   0.862  50.397  1.00  0.00     0.024 C 
HETATM   25  C1  UNL     1      16.667  -0.439  49.622  1.00  0.00     0.009 C 
ENDBRANCH  23  24
ENDBRANCH   1  22
TORSDOF 5
ENDMDL
MODEL 8
REMARK VINA RESULT:      -7.3      3.601      7.713
REMARK  5 active torsions:
REMARK  status: ('A' for Active; 'I' for Inactive)
REMARK    1  A    between atoms: C2_2  and  C3_3 
REMARK    2  A    between atoms: C4_4  and  N1_5 
REMARK    3  A    between atoms: C7_9  and  N3_10 
REMARK    4  A    between atoms: N3_10  and  C8_11 
REMARK    5  A    between atoms: C8_11  and  C9_12 
ROOT
HETATM    1  N1  UNL     1      25.758   0.245  53.748  1.00  0.00    -0.226 N 
HETATM    2  N2  UNL     1      25.459   0.851  52.589  1.00  0.00    -0.178 NA
HETATM    3  C5  UNL     1      24.159   0.641  52.335  1.00  0.00     0.158 A 
HETATM    4  C6  UNL     1      23.625  -0.116  53.356  1.00  0.00     0.076 A 
HETATM    5  C7  UNL     1      22.390  -0.665  53.695  1.00  0.00     0.140 A 
HETATM    6  N4  UNL     1      22.265  -1.375  54.825  1.00  0.00    -0.224 NA
HETATM    7  C16 UNL     1      23.273  -1.609  55.692  1.00  0.00     0.237 A 
HETATM    8  N5  UNL     1      24.443  -1.063  55.327  1.00  0.00    -0.221 NA
HETATM    9  C17 UNL     1      24.674  -0.348  54.237  1.00  0.00     0.167 A 
ENDROOT
BRANCH   5  10
HETATM   10  N3  UNL     1      21.294  -0.437  52.797  1.00  0.00    -0.370 N 
HETATM   11  H9  UNL     1      21.122  -1.056  52.003  1.00  0.00     0.161 HD
BRANCH  10  12
HETATM   12  C8  UNL     1      20.450   0.742  53.098  1.00  0.00     0.156 C 
BRANCH  12  13
HETATM   13  C9  UNL     1      20.629   1.673  51.931  1.00  0.00    -0.055 C 
HETATM   14  C10 UNL     1      20.500   2.612  52.700  1.00  0.00     0.032 C 
HETATM   15  C11 UNL     1      20.645   3.841  51.791  1.00  0.00     0.093 C 
HETATM   16  C12 UNL     1      20.872   4.157  50.490  1.00  0.00     0.107 C 
HETATM   17  O1  UNL     1      21.122   3.826  49.144  1.00  0.00    -0.366 OA
HETATM   18  C13 UNL     1      20.276   2.940  48.396  1.00  0.00     0.343 C 
HETATM   19  O2  UNL     1      20.974   1.686  48.277  1.00  0.00    -0.338 OA
HETATM   20  C14 UNL     1      20.903   0.938  49.489  1.00  0.00     0.138 C 
HETATM   21  C15 UNL     1      20.793   0.687  50.810  1.00  0.00     0.029 C 
ENDBRANCH  12  13
ENDBRANCH  10  12
ENDBRANCH   5  10
BRANCH   1  22
HETATM   22  C4  UNL     1      27.081   0.310  54.252  1.00  0.00     0.116 C 
HETATM   23  C3  UNL     1      28.118   0.182  53.459  1.00  0.00    -0.008 C 
BRANCH  23  24
HETATM   24  C2  UNL     1      29.575   0.210  53.730  1.00  0.00     0.024 C 
HETATM   25  C1  UNL     1      30.095  -1.231  53.722  1.00  0.00     0.009 C 
ENDBRANCH  23  24
ENDBRANCH   1  22
TORSDOF 5
ENDMDL
MODEL 9
REMARK VINA RESULT:      -7.2      4.288      8.910
REMARK  5 active torsions:
REMARK  status: ('A' for Active; 'I' for Inactive)
REMARK    1  A    between atoms: C2_2  and  C3_3 
REMARK    2  A    between atoms: C4_4  and  N1_5 
REMARK    3  A    between atoms: C7_9  and  N3_10 
REMARK    4  A    between atoms: N3_10  and  C8_11 
REMARK    5  A    between atoms: C8_11  and  C9_12 
ROOT
HETATM    1  N1  UNL     1      25.314   0.093  53.025  1.00  0.00    -0.226 N 
HETATM    2  N2  UNL     1      25.120   0.968  52.027  1.00  0.00    -0.178 NA
HETATM    3  C5  UNL     1      23.809   1.246  51.968  1.00  0.00     0.158 A 
HETATM    4  C6  UNL     1      23.160   0.529  52.950  1.00  0.00     0.076 A 
HETATM    5  C7  UNL     1      21.857   0.361  53.413  1.00  0.00     0.140 A 
HETATM    6  N4  UNL     1      21.616  -0.466  54.441  1.00  0.00    -0.224 NA
HETATM    7  C16 UNL     1      22.568  -1.174  55.086  1.00  0.00     0.237 A 
HETATM    8  N5  UNL     1      23.807  -0.982  54.608  1.00  0.00    -0.221 NA
HETATM    9  C17 UNL     1      24.152  -0.193  53.603  1.00  0.00     0.167 A 
ENDROOT
BRANCH   5  10
HETATM   10  N3  UNL     1      20.818   1.098  52.752  1.00  0.00    -0.370 N 
HETATM   11  H9  UNL     1      20.585   2.053  53.032  1.00  0.00     0.161 HD
BRANCH  10  12
HETATM   12  C8  UNL     1      20.120   0.386  51.658  1.00  0.00     0.156 C 
BRANCH  12  13
HETATM   13  C9  UNL     1      18.665   0.731  51.818  1.00  0.00    -0.055 C 
HETATM   14  C10 UNL     1      18.434  -0.455  51.990  1.00  0.00     0.032 C 
HETATM   15  C11 UNL     1      16.916  -0.496  52.213  1.00  0.00     0.093 C 
HETATM   16  C12 UNL     1      15.848   0.339  52.286  1.00  0.00     0.107 C 
HETATM   17  O1  UNL     1      15.248   1.613  52.253  1.00  0.00    -0.366 OA
HETATM   18  C13 UNL     1      15.410   2.516  51.149  1.00  0.00     0.343 C 
HETATM   19  O2  UNL     1      16.323   3.546  51.574  1.00  0.00    -0.338 OA
HETATM   20  C14 UNL     1      17.671   3.081  51.560  1.00  0.00     0.138 C 
HETATM   21  C15 UNL     1      18.707   2.219  51.616  1.00  0.00     0.029 C 
ENDBRANCH  12  13
ENDBRANCH  10  12
ENDBRANCH   5  10
BRANCH   1  22
HETATM   22  C4  UNL     1      26.623  -0.373  53.305  1.00  0.00     0.116 C 
HETATM   23  C3  UNL     1      27.391   0.241  54.173  1.00  0.00    -0.008 C 
BRANCH  23  24
HETATM   24  C2  UNL     1      28.772  -0.038  54.636  1.00  0.00     0.024 C 
HETATM   25  C1  UNL     1      29.470  -0.901  53.580  1.00  0.00     0.009 C 
ENDBRANCH  23  24
ENDBRANCH   1  22
TORSDOF 5
ENDMDL
