MODEL 1
REMARK VINA RESULT:      -7.1      0.000      0.000
REMARK  7 active torsions:
REMARK  status: ('A' for Active; 'I' for Inactive)
REMARK    1  A    between atoms: O1_2  and  C2_3 
REMARK    2  A    between atoms: C7_8  and  O2_9 
REMARK    3  A    between atoms: C9_11  and  N1_12 
REMARK    4  A    between atoms: N1_12  and  C10_13 
REMARK    5  A    between atoms: C12_15  and  O3_16 
REMARK    6  A    between atoms: C14_18  and  O4_19 
REMARK    7  A    between atoms: C16_21  and  O5_22 
ROOT
HETATM    1  C2  UNL     1      26.707   0.110  54.184  1.00  0.00     0.103 A 
HETATM    2  C3  UNL     1      25.617  -0.705  53.890  1.00  0.00     0.071 A 
HETATM    3  C4  UNL     1      24.423  -0.208  53.401  1.00  0.00     0.068 A 
HETATM    4  C5  UNL     1      24.371   1.160  53.216  1.00  0.00     0.021 A 
HETATM    5  C6  UNL     1      25.412   2.029  53.486  1.00  0.00     0.055 A 
HETATM    6  C7  UNL     1      26.575   1.476  53.971  1.00  0.00     0.102 A 
HETATM    7  C9  UNL     1      23.177   1.495  52.746  1.00  0.00     0.062 A 
HETATM    8  C19 UNL     1      22.372   0.254  52.607  1.00  0.00     0.255 A 
HETATM    9 CL1  UNL     1      21.055   0.350  53.790  1.00  0.00    -0.094 Cl
HETATM   10  N2  UNL     1      23.303  -0.753  53.064  1.00  0.00    -0.262 NA
ENDROOT
BRANCH   7  11
HETATM   11  N1  UNL     1      22.553   2.692  52.377  1.00  0.00    -0.356 N 
HETATM   12  H9  UNL     1      21.829   2.988  53.064  1.00  0.00     0.166 HD
BRANCH  11  13
HETATM   13  C10 UNL     1      22.801   3.488  51.224  1.00  0.00     0.037 A 
HETATM   14  C11 UNL     1      23.452   4.700  51.327  1.00  0.00     0.069 A 
HETATM   15  C12 UNL     1      23.665   5.429  50.167  1.00  0.00     0.106 A 
HETATM   16  C14 UNL     1      23.246   4.971  48.935  1.00  0.00     0.135 A 
HETATM   17  C16 UNL     1      22.587   3.740  48.840  1.00  0.00     0.106 A 
HETATM   18  C18 UNL     1      22.377   3.021  49.995  1.00  0.00     0.069 A 
BRANCH  15  19
HETATM   19  O3  UNL     1      24.313   6.657  50.201  1.00  0.00    -0.353 OA
HETATM   20  C13 UNL     1      23.825   7.803  50.844  1.00  0.00     0.210 C 
ENDBRANCH  15  19
BRANCH  16  21
HETATM   21  O4  UNL     1      23.487   5.750  47.787  1.00  0.00    -0.351 OA
HETATM   22  C15 UNL     1      22.548   6.680  47.307  1.00  0.00     0.210 C 
ENDBRANCH  16  21
BRANCH  17  23
HETATM   23  O5  UNL     1      22.203   3.362  47.560  1.00  0.00    -0.353 OA
HETATM   24  C17 UNL     1      20.825   3.141  47.333  1.00  0.00     0.210 C 
ENDBRANCH  17  23
ENDBRANCH  11  13
ENDBRANCH   7  11
BRANCH   6  25
HETATM   25  O2  UNL     1      27.691   2.211  54.284  1.00  0.00    -0.353 OA
HETATM   26  C8  UNL     1      28.720   2.590  53.421  1.00  0.00     0.210 C 
ENDBRANCH   6  25
BRANCH   1  27
HETATM   27  O1  UNL     1      27.885  -0.462  54.677  1.00  0.00    -0.353 OA
HETATM   28  C1  UNL     1      28.734  -1.053  53.709  1.00  0.00     0.210 C 
ENDBRANCH   1  27
TORSDOF 7
ENDMDL
MODEL 2
REMARK VINA RESULT:      -7.1      0.176      2.370
REMARK  7 active torsions:
REMARK  status: ('A' for Active; 'I' for Inactive)
REMARK    1  A    between atoms: O1_2  and  C2_3 
REMARK    2  A    between atoms: C7_8  and  O2_9 
REMARK    3  A    between atoms: C9_11  and  N1_12 
REMARK    4  A    between atoms: N1_12  and  C10_13 
REMARK    5  A    between atoms: C12_15  and  O3_16 
REMARK    6  A    between atoms: C14_18  and  O4_19 
REMARK    7  A    between atoms: C16_21  and  O5_22 
ROOT
HETATM    1  C2  UNL     1      26.657   0.162  54.244  1.00  0.00     0.103 A 
HETATM    2  C3  UNL     1      25.558  -0.651  53.985  1.00  0.00     0.071 A 
HETATM    3  C4  UNL     1      24.370  -0.162  53.474  1.00  0.00     0.068 A 
HETATM    4  C5  UNL     1      24.334   1.197  53.231  1.00  0.00     0.021 A 
HETATM    5  C6  UNL     1      25.386   2.064  53.463  1.00  0.00     0.055 A 
HETATM    6  C7  UNL     1      26.542   1.519  53.972  1.00  0.00     0.102 A 
HETATM    7  C9  UNL     1      23.144   1.526  52.746  1.00  0.00     0.062 A 
HETATM    8  C19 UNL     1      22.325   0.290  52.660  1.00  0.00     0.255 A 
HETATM    9 CL1  UNL     1      21.008   0.452  53.837  1.00  0.00    -0.094 Cl
HETATM   10  N2  UNL     1      23.243  -0.708  53.160  1.00  0.00    -0.262 NA
ENDROOT
BRANCH   7  11
HETATM   11  N1  UNL     1      22.534   2.714  52.325  1.00  0.00    -0.356 N 
HETATM   12  H9  UNL     1      21.777   3.018  52.971  1.00  0.00     0.166 HD
BRANCH  11  13
HETATM   13  C10 UNL     1      22.835   3.489  51.171  1.00  0.00     0.037 A 
HETATM   14  C11 UNL     1      22.461   3.060  49.913  1.00  0.00     0.069 A 
HETATM   15  C12 UNL     1      22.782   3.860  48.827  1.00  0.00     0.106 A 
HETATM   16  C14 UNL     1      23.456   5.054  48.979  1.00  0.00     0.135 A 
HETATM   17  C16 UNL     1      23.831   5.481  50.259  1.00  0.00     0.106 A 
HETATM   18  C18 UNL     1      23.510   4.683  51.333  1.00  0.00     0.069 A 
BRANCH  15  19
HETATM   19  O3  UNL     1      22.436   3.487  47.535  1.00  0.00    -0.353 OA
HETATM   20  C13 UNL     1      21.123   3.396  47.053  1.00  0.00     0.210 C 
ENDBRANCH  15  19
BRANCH  16  21
HETATM   21  O4  UNL     1      23.759   5.830  47.844  1.00  0.00    -0.351 OA
HETATM   22  C15 UNL     1      22.856   6.773  47.323  1.00  0.00     0.210 C 
ENDBRANCH  16  21
BRANCH  17  23
HETATM   23  O5  UNL     1      24.504   6.695  50.313  1.00  0.00    -0.353 OA
HETATM   24  C17 UNL     1      23.779   7.820  50.769  1.00  0.00     0.210 C 
ENDBRANCH  17  23
ENDBRANCH  11  13
ENDBRANCH   7  11
BRANCH   6  25
HETATM   25  O2  UNL     1      27.666   2.253  54.254  1.00  0.00    -0.353 OA
HETATM   26  C8  UNL     1      28.680   2.617  53.365  1.00  0.00     0.210 C 
ENDBRANCH   6  25
BRANCH   1  27
HETATM   27  O1  UNL     1      27.829  -0.402  54.762  1.00  0.00    -0.353 OA
HETATM   28  C1  UNL     1      28.706  -0.980  53.811  1.00  0.00     0.210 C 
ENDBRANCH   1  27
TORSDOF 7
ENDMDL
MODEL 3
REMARK VINA RESULT:      -7.1      3.336      7.276
REMARK  7 active torsions:
REMARK  status: ('A' for Active; 'I' for Inactive)
REMARK    1  A    between atoms: O1_2  and  C2_3 
REMARK    2  A    between atoms: C7_8  and  O2_9 
REMARK    3  A    between atoms: C9_11  and  N1_12 
REMARK    4  A    between atoms: N1_12  and  C10_13 
REMARK    5  A    between atoms: C12_15  and  O3_16 
REMARK    6  A    between atoms: C14_18  and  O4_19 
REMARK    7  A    between atoms: C16_21  and  O5_22 
ROOT
HETATM    1  C2  UNL     1      27.245   7.885  48.983  1.00  0.00     0.103 A 
HETATM    2  C3  UNL     1      26.187   8.135  49.851  1.00  0.00     0.071 A 
HETATM    3  C4  UNL     1      25.347   7.139  50.313  1.00  0.00     0.068 A 
HETATM    4  C5  UNL     1      25.621   5.863  49.859  1.00  0.00     0.021 A 
HETATM    5  C6  UNL     1      26.653   5.541  48.998  1.00  0.00     0.055 A 
HETATM    6  C7  UNL     1      27.455   6.574  48.572  1.00  0.00     0.102 A 
HETATM    7  C9  UNL     1      24.744   5.015  50.378  1.00  0.00     0.062 A 
HETATM    8  C19 UNL     1      23.814   5.785  51.244  1.00  0.00     0.255 A 
HETATM    9 CL1  UNL     1      22.217   5.730  50.476  1.00  0.00    -0.094 Cl
HETATM   10  N2  UNL     1      24.326   7.130  51.102  1.00  0.00    -0.262 NA
ENDROOT
BRANCH   7  11
HETATM   11  N1  UNL     1      24.520   3.636  50.290  1.00  0.00    -0.356 N 
HETATM   12  H9  UNL     1      23.951   3.381  49.456  1.00  0.00     0.166 HD
BRANCH  11  13
HETATM   13  C10 UNL     1      24.969   2.619  51.178  1.00  0.00     0.037 A 
HETATM   14  C11 UNL     1      26.299   2.531  51.539  1.00  0.00     0.069 A 
HETATM   15  C12 UNL     1      26.674   1.519  52.409  1.00  0.00     0.106 A 
HETATM   16  C14 UNL     1      25.760   0.615  52.910  1.00  0.00     0.135 A 
HETATM   17  C16 UNL     1      24.414   0.713  52.538  1.00  0.00     0.106 A 
HETATM   18  C18 UNL     1      24.046   1.719  51.674  1.00  0.00     0.069 A 
BRANCH  15  19
HETATM   19  O3  UNL     1      27.995   1.374  52.812  1.00  0.00    -0.353 OA
HETATM   20  C13 UNL     1      28.689   2.284  53.623  1.00  0.00     0.210 C 
ENDBRANCH  15  19
BRANCH  16  21
HETATM   21  O4  UNL     1      26.192  -0.395  53.790  1.00  0.00    -0.351 OA
HETATM   22  C15 UNL     1      26.197  -0.216  55.185  1.00  0.00     0.210 C 
ENDBRANCH  16  21
BRANCH  17  23
HETATM   23  O5  UNL     1      23.568  -0.239  53.093  1.00  0.00    -0.353 OA
HETATM   24  C17 UNL     1      22.249   0.165  53.404  1.00  0.00     0.210 C 
ENDBRANCH  17  23
ENDBRANCH  11  13
ENDBRANCH   7  11
BRANCH   6  25
HETATM   25  O2  UNL     1      28.516   6.409  47.718  1.00  0.00    -0.353 OA
HETATM   26  C8  UNL     1      29.746   5.815  48.006  1.00  0.00     0.210 C 
ENDBRANCH   6  25
BRANCH   1  27
HETATM   27  O1  UNL     1      28.056   8.943  48.555  1.00  0.00    -0.353 OA
HETATM   28  C1  UNL     1      28.997   9.419  49.501  1.00  0.00     0.210 C 
ENDBRANCH   1  27
TORSDOF 7
ENDMDL
MODEL 4
REMARK VINA RESULT:      -7.1      3.133      4.899
REMARK  7 active torsions:
REMARK  status: ('A' for Active; 'I' for Inactive)
REMARK    1  A    between atoms: O1_2  and  C2_3 
REMARK    2  A    between atoms: C7_8  and  O2_9 
REMARK    3  A    between atoms: C9_11  and  N1_12 
REMARK    4  A    between atoms: N1_12  and  C10_13 
REMARK    5  A    between atoms: C12_15  and  O3_16 
REMARK    6  A    between atoms: C14_18  and  O4_19 
REMARK    7  A    between atoms: C16_21  and  O5_22 
ROOT
HETATM    1  C2  UNL     1      27.347  -0.023  53.662  1.00  0.00     0.103 A 
HETATM    2  C3  UNL     1      27.714   0.900  52.687  1.00  0.00     0.071 A 
HETATM    3  C4  UNL     1      26.822   1.806  52.143  1.00  0.00     0.068 A 
HETATM    4  C5  UNL     1      25.531   1.745  52.628  1.00  0.00     0.021 A 
HETATM    5  C6  UNL     1      25.096   0.856  53.594  1.00  0.00     0.055 A 
HETATM    6  C7  UNL     1      26.027  -0.022  54.098  1.00  0.00     0.102 A 
HETATM    7  C9  UNL     1      24.790   2.663  52.023  1.00  0.00     0.062 A 
HETATM    8  C19 UNL     1      25.656   3.393  51.061  1.00  0.00     0.255 A 
HETATM    9 CL1  UNL     1      25.078   2.996  49.432  1.00  0.00    -0.094 Cl
HETATM   10  N2  UNL     1      26.928   2.732  51.251  1.00  0.00    -0.262 NA
ENDROOT
BRANCH   7  11
HETATM   11  N1  UNL     1      23.451   3.067  52.092  1.00  0.00    -0.356 N 
HETATM   12  H9  UNL     1      23.353   4.063  52.377  1.00  0.00     0.166 HD
BRANCH  11  13
HETATM   13  C10 UNL     1      22.290   2.288  51.827  1.00  0.00     0.037 A 
HETATM   14  C11 UNL     1      21.675   2.331  50.593  1.00  0.00     0.069 A 
HETATM   15  C12 UNL     1      20.547   1.550  50.396  1.00  0.00     0.106 A 
HETATM   16  C14 UNL     1      20.039   0.745  51.395  1.00  0.00     0.135 A 
HETATM   17  C16 UNL     1      20.670   0.707  52.644  1.00  0.00     0.106 A 
HETATM   18  C18 UNL     1      21.788   1.485  52.834  1.00  0.00     0.069 A 
BRANCH  15  19
HETATM   19  O3  UNL     1      19.880   1.546  49.178  1.00  0.00    -0.353 OA
HETATM   20  C13 UNL     1      19.591   2.691  48.421  1.00  0.00     0.210 C 
ENDBRANCH  15  19
BRANCH  16  21
HETATM   21  O4  UNL     1      18.890  -0.031  51.145  1.00  0.00    -0.351 OA
HETATM   22  C15 UNL     1      17.594   0.460  51.381  1.00  0.00     0.210 C 
ENDBRANCH  16  21
BRANCH  17  23
HETATM   23  O5  UNL     1      20.087  -0.132  53.585  1.00  0.00    -0.353 OA
HETATM   24  C17 UNL     1      20.887  -1.171  54.114  1.00  0.00     0.210 C 
ENDBRANCH  17  23
ENDBRANCH  11  13
ENDBRANCH   7  11
BRANCH   6  25
HETATM   25  O2  UNL     1      25.745  -0.960  55.058  1.00  0.00    -0.353 OA
HETATM   26  C8  UNL     1      24.489  -1.289  55.571  1.00  0.00     0.210 C 
ENDBRANCH   6  25
BRANCH   1  27
HETATM   27  O1  UNL     1      28.302  -0.912  54.169  1.00  0.00    -0.353 OA
HETATM   28  C1  UNL     1      29.646  -0.640  53.812  1.00  0.00     0.210 C 
ENDBRANCH   1  27
TORSDOF 7
ENDMDL
MODEL 5
REMARK VINA RESULT:      -7.0      3.176      4.818
REMARK  7 active torsions:
REMARK  status: ('A' for Active; 'I' for Inactive)
REMARK    1  A    between atoms: O1_2  and  C2_3 
REMARK    2  A    between atoms: C7_8  and  O2_9 
REMARK    3  A    between atoms: C9_11  and  N1_12 
REMARK    4  A    between atoms: N1_12  and  C10_13 
REMARK    5  A    between atoms: C12_15  and  O3_16 
REMARK    6  A    between atoms: C14_18  and  O4_19 
REMARK    7  A    between atoms: C16_21  and  O5_22 
ROOT
HETATM    1  C2  UNL     1      27.405   0.027  53.682  1.00  0.00     0.103 A 
HETATM    2  C3  UNL     1      27.753   0.943  52.694  1.00  0.00     0.071 A 
HETATM    3  C4  UNL     1      26.844   1.828  52.143  1.00  0.00     0.068 A 
HETATM    4  C5  UNL     1      25.556   1.753  52.635  1.00  0.00     0.021 A 
HETATM    5  C6  UNL     1      25.140   0.870  53.614  1.00  0.00     0.055 A 
HETATM    6  C7  UNL     1      26.088   0.013  54.124  1.00  0.00     0.102 A 
HETATM    7  C9  UNL     1      24.798   2.653  52.023  1.00  0.00     0.062 A 
HETATM    8  C19 UNL     1      25.648   3.383  51.047  1.00  0.00     0.255 A 
HETATM    9 CL1  UNL     1      25.069   2.958  49.427  1.00  0.00    -0.094 Cl
HETATM   10  N2  UNL     1      26.931   2.745  51.239  1.00  0.00    -0.262 NA
ENDROOT
BRANCH   7  11
HETATM   11  N1  UNL     1      23.454   3.036  52.094  1.00  0.00    -0.356 N 
HETATM   12  H9  UNL     1      23.343   4.044  52.325  1.00  0.00     0.166 HD
BRANCH  11  13
HETATM   13  C10 UNL     1      22.303   2.224  51.893  1.00  0.00     0.037 A 
HETATM   14  C11 UNL     1      21.844   1.387  52.890  1.00  0.00     0.069 A 
HETATM   15  C12 UNL     1      20.717   0.622  52.633  1.00  0.00     0.106 A 
HETATM   16  C14 UNL     1      20.059   0.681  51.422  1.00  0.00     0.135 A 
HETATM   17  C16 UNL     1      20.531   1.533  50.417  1.00  0.00     0.106 A 
HETATM   18  C18 UNL     1      21.651   2.290  50.677  1.00  0.00     0.069 A 
BRANCH  15  19
HETATM   19  O3  UNL     1      20.203  -0.241  53.593  1.00  0.00    -0.353 OA
HETATM   20  C13 UNL     1      20.920  -1.281  54.200  1.00  0.00     0.210 C 
ENDBRANCH  15  19
BRANCH  16  21
HETATM   21  O4  UNL     1      18.918  -0.117  51.212  1.00  0.00    -0.351 OA
HETATM   22  C15 UNL     1      17.621   0.345  51.498  1.00  0.00     0.210 C 
ENDBRANCH  16  21
BRANCH  17  23
HETATM   23  O5  UNL     1      19.804   1.526  49.234  1.00  0.00    -0.353 OA
HETATM   24  C17 UNL     1      19.224   2.747  48.819  1.00  0.00     0.210 C 
ENDBRANCH  17  23
ENDBRANCH  11  13
ENDBRANCH   7  11
BRANCH   6  25
HETATM   25  O2  UNL     1      25.825  -0.917  55.097  1.00  0.00    -0.353 OA
HETATM   26  C8  UNL     1      24.574  -1.280  55.601  1.00  0.00     0.210 C 
ENDBRANCH   6  25
BRANCH   1  27
HETATM   27  O1  UNL     1      28.376  -0.841  54.194  1.00  0.00    -0.353 OA
HETATM   28  C1  UNL     1      29.689  -0.662  53.691  1.00  0.00     0.210 C 
ENDBRANCH   1  27
TORSDOF 7
ENDMDL
MODEL 6
REMARK VINA RESULT:      -7.0      2.929      3.681
REMARK  7 active torsions:
REMARK  status: ('A' for Active; 'I' for Inactive)
REMARK    1  A    between atoms: O1_2  and  C2_3 
REMARK    2  A    between atoms: C7_8  and  O2_9 
REMARK    3  A    between atoms: C9_11  and  N1_12 
REMARK    4  A    between atoms: N1_12  and  C10_13 
REMARK    5  A    between atoms: C12_15  and  O3_16 
REMARK    6  A    between atoms: C14_18  and  O4_19 
REMARK    7  A    between atoms: C16_21  and  O5_22 
ROOT
HETATM    1  C2  UNL     1      26.934   0.701  54.083  1.00  0.00     0.103 A 
HETATM    2  C3  UNL     1      26.159  -0.112  54.905  1.00  0.00     0.071 A 
HETATM    3  C4  UNL     1      24.866  -0.482  54.585  1.00  0.00     0.068 A 
HETATM    4  C5  UNL     1      24.378   0.006  53.389  1.00  0.00     0.021 A 
HETATM    5  C6  UNL     1      25.089   0.817  52.525  1.00  0.00     0.055 A 
HETATM    6  C7  UNL     1      26.371   1.152  52.896  1.00  0.00     0.102 A 
HETATM    7  C9  UNL     1      23.137  -0.425  53.212  1.00  0.00     0.062 A 
HETATM    8  C19 UNL     1      22.770  -1.265  54.380  1.00  0.00     0.255 A 
HETATM    9 CL1  UNL     1      21.499  -0.403  55.266  1.00  0.00    -0.094 Cl
HETATM   10  N2  UNL     1      23.977  -1.209  55.174  1.00  0.00    -0.262 NA
ENDROOT
BRANCH   7  11
HETATM   11  N1  UNL     1      22.160  -0.267  52.221  1.00  0.00    -0.356 N 
HETATM   12  H9  UNL     1      22.194  -1.025  51.509  1.00  0.00     0.166 HD
BRANCH  11  13
HETATM   13  C10 UNL     1      21.191   0.769  52.108  1.00  0.00     0.037 A 
HETATM   14  C11 UNL     1      21.554   2.095  52.234  1.00  0.00     0.069 A 
HETATM   15  C12 UNL     1      20.565   3.058  52.113  1.00  0.00     0.106 A 
HETATM   16  C14 UNL     1      19.248   2.720  51.873  1.00  0.00     0.135 A 
HETATM   17  C16 UNL     1      18.890   1.374  51.746  1.00  0.00     0.106 A 
HETATM   18  C18 UNL     1      19.876   0.421  51.868  1.00  0.00     0.069 A 
BRANCH  15  19
HETATM   19  O3  UNL     1      20.862   4.410  52.230  1.00  0.00    -0.353 OA
HETATM   20  C13 UNL     1      21.911   5.059  51.564  1.00  0.00     0.210 C 
ENDBRANCH  15  19
BRANCH  16  21
HETATM   21  O4  UNL     1      18.281   3.737  51.759  1.00  0.00    -0.351 OA
HETATM   22  C15 UNL     1      17.984   4.348  50.528  1.00  0.00     0.210 C 
ENDBRANCH  16  21
BRANCH  17  23
HETATM   23  O5  UNL     1      17.544   1.131  51.506  1.00  0.00    -0.353 OA
HETATM   24  C17 UNL     1      17.175  -0.185  51.142  1.00  0.00     0.210 C 
ENDBRANCH  17  23
ENDBRANCH  11  13
ENDBRANCH   7  11
BRANCH   6  25
HETATM   25  O2  UNL     1      27.196   1.948  52.142  1.00  0.00    -0.353 OA
HETATM   26  C8  UNL     1      26.823   2.803  51.103  1.00  0.00     0.210 C 
ENDBRANCH   6  25
BRANCH   1  27
HETATM   27  O1  UNL     1      28.236   1.037  54.470  1.00  0.00    -0.353 OA
HETATM   28  C1  UNL     1      29.208   0.019  54.305  1.00  0.00     0.210 C 
ENDBRANCH   1  27
TORSDOF 7
ENDMDL
MODEL 7
REMARK VINA RESULT:      -7.0      3.338      7.580
REMARK  7 active torsions:
REMARK  status: ('A' for Active; 'I' for Inactive)
REMARK    1  A    between atoms: O1_2  and  C2_3 
REMARK    2  A    between atoms: C7_8  and  O2_9 
REMARK    3  A    between atoms: C9_11  and  N1_12 
REMARK    4  A    between atoms: N1_12  and  C10_13 
REMARK    5  A    between atoms: C12_15  and  O3_16 
REMARK    6  A    between atoms: C14_18  and  O4_19 
REMARK    7  A    between atoms: C16_21  and  O5_22 
ROOT
HETATM    1  C2  UNL     1      27.173   7.987  48.946  1.00  0.00     0.103 A 
HETATM    2  C3  UNL     1      26.136   8.235  49.840  1.00  0.00     0.071 A 
HETATM    3  C4  UNL     1      25.307   7.238  50.318  1.00  0.00     0.068 A 
HETATM    4  C5  UNL     1      25.568   5.964  49.854  1.00  0.00     0.021 A 
HETATM    5  C6  UNL     1      26.579   5.644  48.967  1.00  0.00     0.055 A 
HETATM    6  C7  UNL     1      27.372   6.677  48.525  1.00  0.00     0.102 A 
HETATM    7  C9  UNL     1      24.703   5.114  50.391  1.00  0.00     0.062 A 
HETATM    8  C19 UNL     1      23.795   5.882  51.281  1.00  0.00     0.255 A 
HETATM    9 CL1  UNL     1      22.180   5.831  50.552  1.00  0.00    -0.094 Cl
HETATM   10  N2  UNL     1      24.305   7.227  51.132  1.00  0.00    -0.262 NA
ENDROOT
BRANCH   7  11
HETATM   11  N1  UNL     1      24.476   3.735  50.303  1.00  0.00    -0.356 N 
HETATM   12  H9  UNL     1      23.831   3.491  49.524  1.00  0.00     0.166 HD
BRANCH  11  13
HETATM   13  C10 UNL     1      25.012   2.707  51.128  1.00  0.00     0.037 A 
HETATM   14  C11 UNL     1      24.199   1.720  51.647  1.00  0.00     0.069 A 
HETATM   15  C12 UNL     1      24.781   0.746  52.444  1.00  0.00     0.106 A 
HETATM   16  C14 UNL     1      26.133   0.747  52.721  1.00  0.00     0.135 A 
HETATM   17  C16 UNL     1      26.949   1.752  52.189  1.00  0.00     0.106 A 
HETATM   18  C18 UNL     1      26.367   2.716  51.400  1.00  0.00     0.069 A 
BRANCH  15  19
HETATM   19  O3  UNL     1      24.020  -0.275  52.998  1.00  0.00    -0.353 OA
HETATM   20  C13 UNL     1      22.673  -0.159  53.370  1.00  0.00     0.210 C 
ENDBRANCH  15  19
BRANCH  16  21
HETATM   21  O4  UNL     1      26.674  -0.266  53.536  1.00  0.00    -0.351 OA
HETATM   22  C15 UNL     1      27.198  -1.455  52.999  1.00  0.00     0.210 C 
ENDBRANCH  16  21
BRANCH  17  23
HETATM   23  O5  UNL     1      28.295   1.669  52.523  1.00  0.00    -0.353 OA
HETATM   24  C17 UNL     1      28.730   2.398  53.654  1.00  0.00     0.210 C 
ENDBRANCH  17  23
ENDBRANCH  11  13
ENDBRANCH   7  11
BRANCH   6  25
HETATM   25  O2  UNL     1      28.411   6.515  47.645  1.00  0.00    -0.353 OA
HETATM   26  C8  UNL     1      29.662   5.955  47.913  1.00  0.00     0.210 C 
ENDBRANCH   6  25
BRANCH   1  27
HETATM   27  O1  UNL     1      27.974   9.046  48.502  1.00  0.00    -0.353 OA
HETATM   28  C1  UNL     1      28.893   9.561  49.449  1.00  0.00     0.210 C 
ENDBRANCH   1  27
TORSDOF 7
ENDMDL
MODEL 8
REMARK VINA RESULT:      -6.9      2.629      7.198
REMARK  7 active torsions:
REMARK  status: ('A' for Active; 'I' for Inactive)
REMARK    1  A    between atoms: O1_2  and  C2_3 
REMARK    2  A    between atoms: C7_8  and  O2_9 
REMARK    3  A    between atoms: C9_11  and  N1_12 
REMARK    4  A    between atoms: N1_12  and  C10_13 
REMARK    5  A    between atoms: C12_15  and  O3_16 
REMARK    6  A    between atoms: C14_18  and  O4_19 
REMARK    7  A    between atoms: C16_21  and  O5_22 
ROOT
HETATM    1  C2  UNL     1      25.824   7.213  49.662  1.00  0.00     0.103 A 
HETATM    2  C3  UNL     1      24.734   7.163  50.526  1.00  0.00     0.071 A 
HETATM    3  C4  UNL     1      24.186   5.973  50.968  1.00  0.00     0.068 A 
HETATM    4  C5  UNL     1      24.788   4.822  50.500  1.00  0.00     0.021 A 
HETATM    5  C6  UNL     1      25.871   4.796  49.642  1.00  0.00     0.055 A 
HETATM    6  C7  UNL     1      26.374   6.011  49.236  1.00  0.00     0.102 A 
HETATM    7  C9  UNL     1      24.164   3.764  51.001  1.00  0.00     0.062 A 
HETATM    8  C19 UNL     1      23.062   4.249  51.870  1.00  0.00     0.255 A 
HETATM    9 CL1  UNL     1      21.538   3.786  51.091  1.00  0.00    -0.094 Cl
HETATM   10  N2  UNL     1      23.200   5.683  51.750  1.00  0.00    -0.262 NA
ENDROOT
BRANCH   7  11
HETATM   11  N1  UNL     1      24.313   2.377  50.892  1.00  0.00    -0.356 N 
HETATM   12  H9  UNL     1      24.226   2.046  49.910  1.00  0.00     0.166 HD
BRANCH  11  13
HETATM   13  C10 UNL     1      24.555   1.439  51.936  1.00  0.00     0.037 A 
HETATM   14  C11 UNL     1      25.810   1.311  52.495  1.00  0.00     0.069 A 
HETATM   15  C12 UNL     1      25.982   0.381  53.509  1.00  0.00     0.106 A 
HETATM   16  C14 UNL     1      24.940  -0.403  53.959  1.00  0.00     0.135 A 
HETATM   17  C16 UNL     1      23.671  -0.266  53.385  1.00  0.00     0.106 A 
HETATM   18  C18 UNL     1      23.505   0.659  52.380  1.00  0.00     0.069 A 
BRANCH  15  19
HETATM   19  O3  UNL     1      27.219   0.201  54.114  1.00  0.00    -0.353 OA
HETATM   20  C13 UNL     1      28.349  -0.337  53.482  1.00  0.00     0.210 C 
ENDBRANCH  15  19
BRANCH  16  21
HETATM   21  O4  UNL     1      25.167  -1.334  54.991  1.00  0.00    -0.351 OA
HETATM   22  C15 UNL     1      25.044  -0.986  56.348  1.00  0.00     0.210 C 
ENDBRANCH  16  21
BRANCH  17  23
HETATM   23  O5  UNL     1      22.686  -1.097  53.903  1.00  0.00    -0.353 OA
HETATM   24  C17 UNL     1      21.680  -0.496  54.696  1.00  0.00     0.210 C 
ENDBRANCH  17  23
ENDBRANCH  11  13
ENDBRANCH   7  11
BRANCH   6  25
HETATM   25  O2  UNL     1      27.443   6.144  48.387  1.00  0.00    -0.353 OA
HETATM   26  C8  UNL     1      28.559   5.310  48.300  1.00  0.00     0.210 C 
ENDBRANCH   6  25
BRANCH   1  27
HETATM   27  O1  UNL     1      26.327   8.454  49.254  1.00  0.00    -0.353 OA
HETATM   28  C1  UNL     1      27.171   9.112  50.184  1.00  0.00     0.210 C 
ENDBRANCH   1  27
TORSDOF 7
ENDMDL
MODEL 9
REMARK VINA RESULT:      -6.6      2.980      4.198
REMARK  7 active torsions:
REMARK  status: ('A' for Active; 'I' for Inactive)
REMARK    1  A    between atoms: O1_2  and  C2_3 
REMARK    2  A    between atoms: C7_8  and  O2_9 
REMARK    3  A    between atoms: C9_11  and  N1_12 
REMARK    4  A    between atoms: N1_12  and  C10_13 
REMARK    5  A    between atoms: C12_15  and  O3_16 
REMARK    6  A    between atoms: C14_18  and  O4_19 
REMARK    7  A    between atoms: C16_21  and  O5_22 
ROOT
HETATM    1  C2  UNL     1      26.063  -0.697  53.061  1.00  0.00     0.103 A 
HETATM    2  C3  UNL     1      26.699   0.025  52.056  1.00  0.00     0.071 A 
HETATM    3  C4  UNL     1      26.329   1.311  51.711  1.00  0.00     0.068 A 
HETATM    4  C5  UNL     1      25.279   1.849  52.429  1.00  0.00     0.021 A 
HETATM    5  C6  UNL     1      24.601   1.191  53.439  1.00  0.00     0.055 A 
HETATM    6  C7  UNL     1      25.014  -0.087  53.738  1.00  0.00     0.102 A 
HETATM    7  C9  UNL     1      25.033   3.078  51.997  1.00  0.00     0.062 A 
HETATM    8  C19 UNL     1      25.994   3.382  50.905  1.00  0.00     0.255 A 
HETATM    9 CL1  UNL     1      25.057   3.520  49.406  1.00  0.00    -0.094 Cl
HETATM   10  N2  UNL     1      26.759   2.157  50.836  1.00  0.00    -0.262 NA
ENDROOT
BRANCH   7  11
HETATM   11  N1  UNL     1      24.119   4.085  52.327  1.00  0.00    -0.356 N 
HETATM   12  H9  UNL     1      24.533   4.803  52.955  1.00  0.00     0.166 HD
BRANCH  11  13
HETATM   13  C10 UNL     1      22.764   4.207  51.909  1.00  0.00     0.037 A 
HETATM   14  C11 UNL     1      21.808   3.307  52.336  1.00  0.00     0.069 A 
HETATM   15  C12 UNL     1      20.505   3.479  51.894  1.00  0.00     0.106 A 
HETATM   16  C14 UNL     1      20.155   4.514  51.051  1.00  0.00     0.135 A 
HETATM   17  C16 UNL     1      21.131   5.421  50.624  1.00  0.00     0.106 A 
HETATM   18  C18 UNL     1      22.423   5.246  51.065  1.00  0.00     0.069 A 
BRANCH  15  19
HETATM   19  O3  UNL     1      19.495   2.610  52.286  1.00  0.00    -0.353 OA
HETATM   20  C13 UNL     1      19.582   1.211  52.245  1.00  0.00     0.210 C 
ENDBRANCH  15  19
BRANCH  16  21
HETATM   21  O4  UNL     1      18.817   4.644  50.632  1.00  0.00    -0.351 OA
HETATM   22  C15 UNL     1      18.339   4.025  49.463  1.00  0.00     0.210 C 
ENDBRANCH  16  21
BRANCH  17  23
HETATM   23  O5  UNL     1      20.684   6.428  49.779  1.00  0.00    -0.353 OA
HETATM   24  C17 UNL     1      20.903   7.765  50.187  1.00  0.00     0.210 C 
ENDBRANCH  17  23
ENDBRANCH  11  13
ENDBRANCH   7  11
BRANCH   6  25
HETATM   25  O2  UNL     1      24.439  -0.862  54.713  1.00  0.00    -0.353 OA
HETATM   26  C8  UNL     1      23.079  -1.126  54.887  1.00  0.00     0.210 C 
ENDBRANCH   6  25
BRANCH   1  27
HETATM   27  O1  UNL     1      26.490  -1.997  53.358  1.00  0.00    -0.353 OA
HETATM   28  C1  UNL     1      27.672  -2.421  52.701  1.00  0.00     0.210 C 
ENDBRANCH   1  27
TORSDOF 7
ENDMDL
