MODEL 1
REMARK VINA RESULT:      -8.4      0.000      0.000
REMARK  6 active torsions:
REMARK  status: ('A' for Active; 'I' for Inactive)
REMARK    1  A    between atoms: N1_2  and  C2_3 
REMARK    2  A    between atoms: C2_3  and  C3_4 
REMARK    3  A    between atoms: C4_5  and  C5_6 
REMARK       I    between atoms: C5_6  and  N2_8 
REMARK    4  A    between atoms: N2_8  and  C6_9 
REMARK    5  A    between atoms: C12_17  and  N5_18 
REMARK    6  A    between atoms: N5_18  and  C13_19 
ROOT
HETATM    1  C6  UNL     1      24.043   5.006  51.158  1.00  0.00     0.017 C 
HETATM    2  C7  UNL     1      23.468   3.838  51.374  1.00  0.00    -0.026 C 
HETATM    3  C8  UNL     1      22.164   4.004  52.182  1.00  0.00     0.092 C 
HETATM    4  C9  UNL     1      21.467   4.399  50.865  1.00  0.00     0.013 C 
HETATM    5  N3  UNL     1      21.139   3.175  50.560  1.00  0.00    -0.276 NA
HETATM    6  C10 UNL     1      22.150   2.141  50.332  1.00  0.00     0.241 C 
HETATM    7  C11 UNL     1      22.350   2.060  48.905  1.00  0.00     0.089 C 
HETATM    8  N4  UNL     1      22.518   2.011  47.768  1.00  0.00    -0.195 NA
HETATM    9  C12 UNL     1      23.474   2.393  51.093  1.00  0.00     0.152 C 
HETATM   10  C19 UNL     1      21.693   5.873  50.884  1.00  0.00     0.060 C 
HETATM   11  C20 UNL     1      23.157   6.181  51.246  1.00  0.00     0.063 C 
ENDROOT
BRANCH   9  12
HETATM   12  N5  UNL     1      23.501   1.628  52.314  1.00  0.00    -0.378 N 
HETATM   13  H14 UNL     1      22.559   1.400  52.755  1.00  0.00     0.160 HD
BRANCH  12  14
HETATM   14  C13 UNL     1      24.652   1.147  52.989  1.00  0.00     0.030 A 
HETATM   15  C14 UNL     1      24.615  -0.094  53.631  1.00  0.00     0.032 A 
HETATM   16  C15 UNL     1      25.785  -0.470  54.262  1.00  0.00     0.046 A 
HETATM   17  C16 UNL     1      26.960   0.247  54.317  1.00  0.00     0.138 A 
HETATM   18  F1  UNL     1      28.063  -0.187  54.954  1.00  0.00    -0.204 F 
HETATM   19  C17 UNL     1      26.952   1.473  53.667  1.00  0.00     0.074 A 
HETATM   20 CL1  UNL     1      28.364   2.507  53.642  1.00  0.00    -0.081 Cl
HETATM   21  C18 UNL     1      25.807   1.888  53.025  1.00  0.00     0.056 A 
ENDBRANCH  12  14
ENDBRANCH   9  12
BRANCH   1  22
HETATM   22  N2  UNL     1      25.383   4.653  50.869  1.00  0.00    -0.327 N 
HETATM   23  C5  UNL     1      25.798   4.886  49.537  1.00  0.00     0.245 C 
HETATM   24  O1  UNL     1      25.038   5.384  48.633  1.00  0.00    -0.268 OA
HETATM   25  H9  UNL     1      26.162   4.260  51.377  1.00  0.00     0.169 HD
BRANCH  23  26
HETATM   26  C4  UNL     1      27.102   4.626  48.952  1.00  0.00     0.072 C 
HETATM   27  C3  UNL     1      27.644   5.795  48.654  1.00  0.00     0.008 C 
BRANCH  27  28
HETATM   28  C2  UNL     1      28.978   5.955  48.036  1.00  0.00     0.296 C 
BRANCH  28  29
HETATM   29  N1  UNL     1      30.003   6.390  48.942  1.00  0.00     0.082 N 
HETATM   30  C1  UNL     1      31.278   5.745  48.696  1.00  0.00     0.307 C 
HETATM   31  H4  UNL     1      30.046   7.405  49.060  1.00  0.00     0.315 HD
ENDBRANCH  28  29
ENDBRANCH  27  28
ENDBRANCH  23  26
ENDBRANCH   1  22
TORSDOF 6
ENDMDL
MODEL 2
REMARK VINA RESULT:      -7.9      3.379      4.073
REMARK  6 active torsions:
REMARK  status: ('A' for Active; 'I' for Inactive)
REMARK    1  A    between atoms: N1_2  and  C2_3 
REMARK    2  A    between atoms: C2_3  and  C3_4 
REMARK    3  A    between atoms: C4_5  and  C5_6 
REMARK       I    between atoms: C5_6  and  N2_8 
REMARK    4  A    between atoms: N2_8  and  C6_9 
REMARK    5  A    between atoms: C12_17  and  N5_18 
REMARK    6  A    between atoms: N5_18  and  C13_19 
ROOT
HETATM    1  C6  UNL     1      23.508   3.397  51.724  1.00  0.00     0.017 C 
HETATM    2  C7  UNL     1      22.523   2.606  51.345  1.00  0.00    -0.026 C 
HETATM    3  C8  UNL     1      21.197   3.009  52.023  1.00  0.00     0.092 C 
HETATM    4  C9  UNL     1      21.061   4.121  50.965  1.00  0.00     0.013 C 
HETATM    5  N3  UNL     1      20.417   3.369  50.118  1.00  0.00    -0.276 NA
HETATM    6  C10 UNL     1      21.020   2.165  49.543  1.00  0.00     0.241 C 
HETATM    7  C11 UNL     1      21.549   2.539  48.254  1.00  0.00     0.089 C 
HETATM    8  N4  UNL     1      21.986   2.846  47.234  1.00  0.00    -0.195 NA
HETATM    9  C12 UNL     1      22.094   1.519  50.451  1.00  0.00     0.152 C 
HETATM   10  C19 UNL     1      21.779   5.229  51.659  1.00  0.00     0.060 C 
HETATM   11  C20 UNL     1      23.105   4.715  52.249  1.00  0.00     0.063 C 
ENDROOT
BRANCH   9  12
HETATM   12  N5  UNL     1      21.523   0.428  51.198  1.00  0.00    -0.378 N 
HETATM   13  H14 UNL     1      20.695  -0.073  50.756  1.00  0.00     0.160 HD
BRANCH  12  14
HETATM   14  C13 UNL     1      21.951  -0.049  52.464  1.00  0.00     0.030 A 
HETATM   15  C14 UNL     1      21.012  -0.304  53.467  1.00  0.00     0.032 A 
HETATM   16  C15 UNL     1      21.530  -0.762  54.663  1.00  0.00     0.046 A 
HETATM   17  C16 UNL     1      22.858  -0.986  54.955  1.00  0.00     0.138 A 
HETATM   18  F1  UNL     1      23.288  -1.435  56.149  1.00  0.00    -0.204 F 
HETATM   19  C17 UNL     1      23.756  -0.720  53.931  1.00  0.00     0.074 A 
HETATM   20 CL1  UNL     1      25.478  -0.953  54.139  1.00  0.00    -0.081 Cl
HETATM   21  C18 UNL     1      23.284  -0.262  52.722  1.00  0.00     0.056 A 
ENDBRANCH  12  14
ENDBRANCH   9  12
BRANCH   1  22
HETATM   22  N2  UNL     1      24.663   2.633  51.428  1.00  0.00    -0.327 N 
HETATM   23  C5  UNL     1      25.514   2.371  52.527  1.00  0.00     0.245 C 
HETATM   24  O1  UNL     1      25.282   2.780  53.720  1.00  0.00    -0.268 OA
HETATM   25  H9  UNL     1      25.067   2.205  50.609  1.00  0.00     0.169 HD
BRANCH  23  26
HETATM   26  C4  UNL     1      26.759   1.622  52.531  1.00  0.00     0.072 C 
HETATM   27  C3  UNL     1      27.506   2.098  53.513  1.00  0.00     0.008 C 
BRANCH  27  28
HETATM   28  C2  UNL     1      28.857   1.595  53.843  1.00  0.00     0.296 C 
BRANCH  28  29
HETATM   29  N1  UNL     1      28.868   0.361  54.577  1.00  0.00     0.082 N 
HETATM   30  C1  UNL     1      29.467  -0.728  53.832  1.00  0.00     0.307 C 
HETATM   31  H4  UNL     1      29.192   0.458  55.542  1.00  0.00     0.315 HD
ENDBRANCH  28  29
ENDBRANCH  27  28
ENDBRANCH  23  26
ENDBRANCH   1  22
TORSDOF 6
ENDMDL
MODEL 3
REMARK VINA RESULT:      -7.9      1.698      1.976
REMARK  6 active torsions:
REMARK  status: ('A' for Active; 'I' for Inactive)
REMARK    1  A    between atoms: N1_2  and  C2_3 
REMARK    2  A    between atoms: C2_3  and  C3_4 
REMARK    3  A    between atoms: C4_5  and  C5_6 
REMARK       I    between atoms: C5_6  and  N2_8 
REMARK    4  A    between atoms: N2_8  and  C6_9 
REMARK    5  A    between atoms: C12_17  and  N5_18 
REMARK    6  A    between atoms: N5_18  and  C13_19 
ROOT
HETATM    1  C6  UNL     1      24.492   6.513  50.714  1.00  0.00     0.017 C 
HETATM    2  C7  UNL     1      24.230   5.294  51.147  1.00  0.00    -0.026 C 
HETATM    3  C8  UNL     1      23.090   5.309  52.186  1.00  0.00     0.092 C 
HETATM    4  C9  UNL     1      22.097   5.388  51.010  1.00  0.00     0.013 C 
HETATM    5  N3  UNL     1      21.991   4.094  50.889  1.00  0.00    -0.276 NA
HETATM    6  C10 UNL     1      23.141   3.254  50.552  1.00  0.00     0.241 C 
HETATM    7  C11 UNL     1      23.091   3.029  49.128  1.00  0.00     0.089 C 
HETATM    8  N4  UNL     1      23.057   2.866  47.989  1.00  0.00    -0.195 NA
HETATM    9  C12 UNL     1      24.496   3.854  51.001  1.00  0.00     0.152 C 
HETATM   10  C19 UNL     1      22.001   6.867  50.849  1.00  0.00     0.060 C 
HETATM   11  C20 UNL     1      23.406   7.496  50.875  1.00  0.00     0.063 C 
ENDROOT
BRANCH   9  12
HETATM   12  N5  UNL     1      24.907   3.274  52.254  1.00  0.00    -0.378 N 
HETATM   13  H14 UNL     1      24.855   3.902  53.112  1.00  0.00     0.160 HD
BRANCH  12  14
HETATM   14  C13 UNL     1      25.374   1.950  52.464  1.00  0.00     0.030 A 
HETATM   15  C14 UNL     1      26.414   1.446  51.679  1.00  0.00     0.032 A 
HETATM   16  C15 UNL     1      26.793   0.147  51.959  1.00  0.00     0.046 A 
HETATM   17  C16 UNL     1      26.252  -0.680  52.918  1.00  0.00     0.138 A 
HETATM   18  F1  UNL     1      26.676  -1.940  53.133  1.00  0.00    -0.204 F 
HETATM   19  C17 UNL     1      25.222  -0.140  53.674  1.00  0.00     0.074 A 
HETATM   20 CL1  UNL     1      24.428  -1.060  54.935  1.00  0.00    -0.081 Cl
HETATM   21  C18 UNL     1      24.812   1.152  53.430  1.00  0.00     0.056 A 
ENDBRANCH  12  14
ENDBRANCH   9  12
BRANCH   1  22
HETATM   22  N2  UNL     1      25.802   6.391  50.190  1.00  0.00    -0.327 N 
HETATM   23  C5  UNL     1      25.928   6.657  48.807  1.00  0.00     0.245 C 
HETATM   24  O1  UNL     1      24.946   6.990  48.054  1.00  0.00    -0.268 OA
HETATM   25  H9  UNL     1      26.714   6.154  50.550  1.00  0.00     0.169 HD
BRANCH  23  26
HETATM   26  C4  UNL     1      27.134   6.612  47.998  1.00  0.00     0.072 C 
HETATM   27  C3  UNL     1      27.982   5.790  48.593  1.00  0.00     0.008 C 
BRANCH  27  28
HETATM   28  C2  UNL     1      29.331   5.476  48.076  1.00  0.00     0.296 C 
BRANCH  28  29
HETATM   29  N1  UNL     1      30.404   6.092  48.804  1.00  0.00     0.082 N 
HETATM   30  C1  UNL     1      31.685   5.461  48.556  1.00  0.00     0.307 C 
HETATM   31  H4  UNL     1      30.406   7.114  48.751  1.00  0.00     0.315 HD
ENDBRANCH  28  29
ENDBRANCH  27  28
ENDBRANCH  23  26
ENDBRANCH   1  22
TORSDOF 6
ENDMDL
MODEL 4
REMARK VINA RESULT:      -7.7      3.366      5.950
REMARK  6 active torsions:
REMARK  status: ('A' for Active; 'I' for Inactive)
REMARK    1  A    between atoms: N1_2  and  C2_3 
REMARK    2  A    between atoms: C2_3  and  C3_4 
REMARK    3  A    between atoms: C4_5  and  C5_6 
REMARK       I    between atoms: C5_6  and  N2_8 
REMARK    4  A    between atoms: N2_8  and  C6_9 
REMARK    5  A    between atoms: C12_17  and  N5_18 
REMARK    6  A    between atoms: N5_18  and  C13_19 
ROOT
HETATM    1  C6  UNL     1      23.333   1.974  52.085  1.00  0.00     0.017 C 
HETATM    2  C7  UNL     1      23.516   2.700  50.999  1.00  0.00    -0.026 C 
HETATM    3  C8  UNL     1      22.953   1.986  49.754  1.00  0.00     0.092 C 
HETATM    4  C9  UNL     1      21.556   2.485  50.170  1.00  0.00     0.013 C 
HETATM    5  N3  UNL     1      21.652   3.601  49.504  1.00  0.00    -0.276 NA
HETATM    6  C10 UNL     1      22.680   4.596  49.813  1.00  0.00     0.241 C 
HETATM    7  C11 UNL     1      22.066   5.580  50.670  1.00  0.00     0.089 C 
HETATM    8  N4  UNL     1      21.576   6.354  51.368  1.00  0.00    -0.195 NA
HETATM    9  C12 UNL     1      23.958   3.989  50.442  1.00  0.00     0.152 C 
HETATM   10  C19 UNL     1      21.125   1.354  51.042  1.00  0.00     0.060 C 
HETATM   11  C20 UNL     1      22.259   0.967  52.008  1.00  0.00     0.063 C 
ENDROOT
BRANCH   9  12
HETATM   12  N5  UNL     1      24.968   3.798  49.433  1.00  0.00    -0.378 N 
HETATM   13  H14 UNL     1      24.974   2.858  48.934  1.00  0.00     0.160 HD
BRANCH  12  14
HETATM   14  C13 UNL     1      25.957   4.734  49.035  1.00  0.00     0.030 A 
HETATM   15  C14 UNL     1      27.289   4.330  48.910  1.00  0.00     0.032 A 
HETATM   16  C15 UNL     1      28.174   5.316  48.520  1.00  0.00     0.046 A 
HETATM   17  C16 UNL     1      27.874   6.633  48.249  1.00  0.00     0.138 A 
HETATM   18  F1  UNL     1      28.795   7.540  47.873  1.00  0.00    -0.204 F 
HETATM   19  C17 UNL     1      26.541   6.991  48.386  1.00  0.00     0.074 A 
HETATM   20 CL1  UNL     1      25.993   8.625  48.078  1.00  0.00    -0.081 Cl
HETATM   21  C18 UNL     1      25.623   6.040  48.772  1.00  0.00     0.056 A 
ENDBRANCH  12  14
ENDBRANCH   9  12
BRANCH   1  22
HETATM   22  N2  UNL     1      24.288   2.502  52.988  1.00  0.00    -0.327 N 
HETATM   23  C5  UNL     1      25.513   1.799  53.054  1.00  0.00     0.245 C 
HETATM   24  O1  UNL     1      25.772   0.755  52.357  1.00  0.00    -0.268 OA
HETATM   25  H9  UNL     1      24.336   3.280  53.628  1.00  0.00     0.169 HD
BRANCH  23  26
HETATM   26  C4  UNL     1      26.669   2.100  53.881  1.00  0.00     0.072 C 
HETATM   27  C3  UNL     1      27.589   1.184  53.627  1.00  0.00     0.008 C 
BRANCH  27  28
HETATM   28  C2  UNL     1      28.918   1.145  54.274  1.00  0.00     0.296 C 
BRANCH  28  29
HETATM   29  N1  UNL     1      29.940   0.509  53.493  1.00  0.00     0.082 N 
HETATM   30  C1  UNL     1      29.850  -0.938  53.525  1.00  0.00     0.307 C 
HETATM   31  H4  UNL     1      30.063   0.916  52.564  1.00  0.00     0.315 HD
ENDBRANCH  28  29
ENDBRANCH  27  28
ENDBRANCH  23  26
ENDBRANCH   1  22
TORSDOF 6
ENDMDL
MODEL 5
REMARK VINA RESULT:      -7.5      3.429      4.693
REMARK  6 active torsions:
REMARK  status: ('A' for Active; 'I' for Inactive)
REMARK    1  A    between atoms: N1_2  and  C2_3 
REMARK    2  A    between atoms: C2_3  and  C3_4 
REMARK    3  A    between atoms: C4_5  and  C5_6 
REMARK       I    between atoms: C5_6  and  N2_8 
REMARK    4  A    between atoms: N2_8  and  C6_9 
REMARK    5  A    between atoms: C12_17  and  N5_18 
REMARK    6  A    between atoms: N5_18  and  C13_19 
ROOT
HETATM    1  C6  UNL     1      23.829   4.966  51.451  1.00  0.00     0.017 C 
HETATM    2  C7  UNL     1      22.643   4.412  51.284  1.00  0.00    -0.026 C 
HETATM    3  C8  UNL     1      21.527   5.478  51.303  1.00  0.00     0.092 C 
HETATM    4  C9  UNL     1      21.880   5.790  49.835  1.00  0.00     0.013 C 
HETATM    5  N3  UNL     1      21.050   4.909  49.350  1.00  0.00    -0.276 NA
HETATM    6  C10 UNL     1      21.191   3.480  49.634  1.00  0.00     0.241 C 
HETATM    7  C11 UNL     1      21.896   2.900  48.516  1.00  0.00     0.089 C 
HETATM    8  N4  UNL     1      22.473   2.444  47.631  1.00  0.00    -0.195 NA
HETATM    9  C12 UNL     1      21.890   3.184  50.983  1.00  0.00     0.152 C 
HETATM   10  C19 UNL     1      22.919   6.840  50.035  1.00  0.00     0.060 C 
HETATM   11  C20 UNL     1      23.919   6.399  51.119  1.00  0.00     0.063 C 
ENDROOT
BRANCH   9  12
HETATM   12  N5  UNL     1      20.910   2.913  52.003  1.00  0.00    -0.378 N 
HETATM   13  H14 UNL     1      20.436   3.757  52.446  1.00  0.00     0.160 HD
BRANCH  12  14
HETATM   14  C13 UNL     1      20.511   1.638  52.479  1.00  0.00     0.030 A 
HETATM   15  C14 UNL     1      19.313   1.072  52.035  1.00  0.00     0.032 A 
HETATM   16  C15 UNL     1      19.012  -0.170  52.559  1.00  0.00     0.046 A 
HETATM   17  C16 UNL     1      19.767  -0.888  53.462  1.00  0.00     0.138 A 
HETATM   18  F1  UNL     1      19.407  -2.098  53.930  1.00  0.00    -0.204 F 
HETATM   19  C17 UNL     1      20.947  -0.289  53.877  1.00  0.00     0.074 A 
HETATM   20 CL1  UNL     1      22.020  -1.070  55.019  1.00  0.00    -0.081 Cl
HETATM   21  C18 UNL     1      21.287   0.949  53.379  1.00  0.00     0.056 A 
ENDBRANCH  12  14
ENDBRANCH   9  12
BRANCH   1  22
HETATM   22  N2  UNL     1      24.629   3.881  51.885  1.00  0.00    -0.327 N 
HETATM   23  C5  UNL     1      25.540   3.378  50.927  1.00  0.00     0.245 C 
HETATM   24  O1  UNL     1      25.658   3.851  49.741  1.00  0.00    -0.268 OA
HETATM   25  H9  UNL     1      24.732   3.341  52.731  1.00  0.00     0.169 HD
BRANCH  23  26
HETATM   26  C4  UNL     1      26.480   2.281  51.082  1.00  0.00     0.072 C 
HETATM   27  C3  UNL     1      26.730   2.152  52.374  1.00  0.00     0.008 C 
BRANCH  27  28
HETATM   28  C2  UNL     1      27.645   1.139  52.942  1.00  0.00     0.296 C 
BRANCH  28  29
HETATM   29  N1  UNL     1      27.729   1.150  54.375  1.00  0.00     0.082 N 
HETATM   30  C1  UNL     1      28.610   0.123  54.893  1.00  0.00     0.307 C 
HETATM   31  H4  UNL     1      27.867   2.082  54.773  1.00  0.00     0.315 HD
ENDBRANCH  28  29
ENDBRANCH  27  28
ENDBRANCH  23  26
ENDBRANCH   1  22
TORSDOF 6
ENDMDL
MODEL 6
REMARK VINA RESULT:      -7.5      2.811      5.784
REMARK  6 active torsions:
REMARK  status: ('A' for Active; 'I' for Inactive)
REMARK    1  A    between atoms: N1_2  and  C2_3 
REMARK    2  A    between atoms: C2_3  and  C3_4 
REMARK    3  A    between atoms: C4_5  and  C5_6 
REMARK       I    between atoms: C5_6  and  N2_8 
REMARK    4  A    between atoms: N2_8  and  C6_9 
REMARK    5  A    between atoms: C12_17  and  N5_18 
REMARK    6  A    between atoms: N5_18  and  C13_19 
ROOT
HETATM    1  C6  UNL     1      21.544   3.483  49.917  1.00  0.00     0.017 C 
HETATM    2  C7  UNL     1      22.858   3.600  49.907  1.00  0.00    -0.026 C 
HETATM    3  C8  UNL     1      23.422   3.393  48.486  1.00  0.00     0.092 C 
HETATM    4  C9  UNL     1      23.026   4.850  48.178  1.00  0.00     0.013 C 
HETATM    5  N3  UNL     1      24.166   5.343  48.574  1.00  0.00    -0.276 NA
HETATM    6  C10 UNL     1      24.627   5.203  49.956  1.00  0.00     0.241 C 
HETATM    7  C11 UNL     1      24.274   6.422  50.641  1.00  0.00     0.089 C 
HETATM    8  N4  UNL     1      23.974   7.390  51.188  1.00  0.00    -0.195 NA
HETATM    9  C12 UNL     1      24.067   3.948  50.670  1.00  0.00     0.152 C 
HETATM   10  C19 UNL     1      21.635   4.643  47.682  1.00  0.00     0.060 C 
HETATM   11  C20 UNL     1      20.873   3.690  48.621  1.00  0.00     0.063 C 
ENDROOT
BRANCH   9  12
HETATM   12  N5  UNL     1      25.032   2.879  50.628  1.00  0.00    -0.378 N 
HETATM   13  H14 UNL     1      25.399   2.603  49.668  1.00  0.00     0.160 HD
BRANCH  12  14
HETATM   14  C13 UNL     1      25.544   2.154  51.736  1.00  0.00     0.030 A 
HETATM   15  C14 UNL     1      24.775   1.148  52.325  1.00  0.00     0.032 A 
HETATM   16  C15 UNL     1      25.361   0.505  53.398  1.00  0.00     0.046 A 
HETATM   17  C16 UNL     1      26.606   0.757  53.931  1.00  0.00     0.138 A 
HETATM   18  F1  UNL     1      27.112   0.086  54.982  1.00  0.00    -0.204 F 
HETATM   19  C17 UNL     1      27.335   1.764  53.315  1.00  0.00     0.074 A 
HETATM   20 CL1  UNL     1      28.936   2.208  53.869  1.00  0.00    -0.081 Cl
HETATM   21  C18 UNL     1      26.790   2.432  52.242  1.00  0.00     0.056 A 
ENDBRANCH  12  14
ENDBRANCH   9  12
BRANCH   1  22
HETATM   22  N2  UNL     1      21.258   3.216  51.278  1.00  0.00    -0.327 N 
HETATM   23  C5  UNL     1      21.053   1.853  51.597  1.00  0.00     0.245 C 
HETATM   24  O1  UNL     1      21.118   0.903  50.739  1.00  0.00    -0.268 OA
HETATM   25  H9  UNL     1      21.153   3.757  52.123  1.00  0.00     0.169 HD
BRANCH  23  26
HETATM   26  C4  UNL     1      20.745   1.280  52.897  1.00  0.00     0.072 C 
HETATM   27  C3  UNL     1      20.749  -0.035  52.762  1.00  0.00     0.008 C 
BRANCH  27  28
HETATM   28  C2  UNL     1      20.477  -0.981  53.865  1.00  0.00     0.296 C 
BRANCH  28  29
HETATM   29  N1  UNL     1      21.228  -0.729  55.062  1.00  0.00     0.082 N 
HETATM   30  C1  UNL     1      22.583  -1.239  54.991  1.00  0.00     0.307 C 
HETATM   31  H4  UNL     1      21.143   0.229  55.409  1.00  0.00     0.315 HD
ENDBRANCH  28  29
ENDBRANCH  27  28
ENDBRANCH  23  26
ENDBRANCH   1  22
TORSDOF 6
ENDMDL
MODEL 7
REMARK VINA RESULT:      -7.4      7.602      9.498
REMARK  6 active torsions:
REMARK  status: ('A' for Active; 'I' for Inactive)
REMARK    1  A    between atoms: N1_2  and  C2_3 
REMARK    2  A    between atoms: C2_3  and  C3_4 
REMARK    3  A    between atoms: C4_5  and  C5_6 
REMARK       I    between atoms: C5_6  and  N2_8 
REMARK    4  A    between atoms: N2_8  and  C6_9 
REMARK    5  A    between atoms: C12_17  and  N5_18 
REMARK    6  A    between atoms: N5_18  and  C13_19 
ROOT
HETATM    1  C6  UNL     1      31.809   9.360  46.833  1.00  0.00     0.017 C 
HETATM    2  C7  UNL     1      31.274   8.547  47.724  1.00  0.00    -0.026 C 
HETATM    3  C8  UNL     1      31.424   9.113  49.151  1.00  0.00     0.092 C 
HETATM    4  C9  UNL     1      30.210  10.016  48.858  1.00  0.00     0.013 C 
HETATM    5  N3  UNL     1      29.338   9.143  49.280  1.00  0.00    -0.276 NA
HETATM    6  C10 UNL     1      29.188   7.835  48.641  1.00  0.00     0.241 C 
HETATM    7  C11 UNL     1      28.089   7.947  47.714  1.00  0.00     0.089 C 
HETATM    8  N4  UNL     1      27.222   8.046  46.962  1.00  0.00    -0.195 NA
HETATM    9  C12 UNL     1      30.481   7.329  47.957  1.00  0.00     0.152 C 
HETATM   10  C19 UNL     1      30.904  11.207  48.288  1.00  0.00     0.060 C 
HETATM   11  C20 UNL     1      31.957  10.765  47.256  1.00  0.00     0.063 C 
ENDROOT
BRANCH   9  12
HETATM   12  N5  UNL     1      31.179   6.415  48.824  1.00  0.00    -0.378 N 
HETATM   13  H14 UNL     1      30.852   6.372  49.836  1.00  0.00     0.160 HD
BRANCH  12  14
HETATM   14  C13 UNL     1      32.258   5.564  48.468  1.00  0.00     0.030 A 
HETATM   15  C14 UNL     1      33.573   5.968  48.712  1.00  0.00     0.032 A 
HETATM   16  C15 UNL     1      34.550   5.071  48.327  1.00  0.00     0.046 A 
HETATM   17  C16 UNL     1      34.354   3.841  47.737  1.00  0.00     0.138 A 
HETATM   18  F1  UNL     1      35.361   3.019  47.388  1.00  0.00    -0.204 F 
HETATM   19  C17 UNL     1      33.033   3.480  47.513  1.00  0.00     0.074 A 
HETATM   20 CL1  UNL     1      32.613   1.951  46.772  1.00  0.00    -0.081 Cl
HETATM   21  C18 UNL     1      32.027   4.344  47.882  1.00  0.00     0.056 A 
ENDBRANCH  12  14
ENDBRANCH   9  12
BRANCH   1  22
HETATM   22  N2  UNL     1      32.022   8.516  45.717  1.00  0.00    -0.327 N 
HETATM   23  C5  UNL     1      33.351   8.065  45.542  1.00  0.00     0.245 C 
HETATM   24  O1  UNL     1      34.317   8.379  46.324  1.00  0.00    -0.268 OA
HETATM   25  H9  UNL     1      31.459   8.129  44.975  1.00  0.00     0.169 HD
BRANCH  23  26
HETATM   26  C4  UNL     1      33.868   7.198  44.497  1.00  0.00     0.072 C 
HETATM   27  C3  UNL     1      33.578   5.953  44.835  1.00  0.00     0.008 C 
BRANCH  27  28
HETATM   28  C2  UNL     1      33.939   4.770  44.024  1.00  0.00     0.296 C 
BRANCH  28  29
HETATM   29  N1  UNL     1      33.076   4.534  42.901  1.00  0.00     0.082 N 
HETATM   30  C1  UNL     1      33.806   4.343  41.664  1.00  0.00     0.307 C 
HETATM   31  H4  UNL     1      32.341   3.847  43.083  1.00  0.00     0.315 HD
ENDBRANCH  28  29
ENDBRANCH  27  28
ENDBRANCH  23  26
ENDBRANCH   1  22
TORSDOF 6
ENDMDL
MODEL 8
REMARK VINA RESULT:      -7.3      2.597      3.288
REMARK  6 active torsions:
REMARK  status: ('A' for Active; 'I' for Inactive)
REMARK    1  A    between atoms: N1_2  and  C2_3 
REMARK    2  A    between atoms: C2_3  and  C3_4 
REMARK    3  A    between atoms: C4_5  and  C5_6 
REMARK       I    between atoms: C5_6  and  N2_8 
REMARK    4  A    between atoms: N2_8  and  C6_9 
REMARK    5  A    between atoms: C12_17  and  N5_18 
REMARK    6  A    between atoms: N5_18  and  C13_19 
ROOT
HETATM    1  C6  UNL     1      23.002   6.021  49.746  1.00  0.00     0.017 C 
HETATM    2  C7  UNL     1      23.495   4.969  50.370  1.00  0.00    -0.026 C 
HETATM    3  C8  UNL     1      22.610   3.726  50.144  1.00  0.00     0.092 C 
HETATM    4  C9  UNL     1      23.291   3.560  48.772  1.00  0.00     0.013 C 
HETATM    5  N3  UNL     1      24.252   2.810  49.233  1.00  0.00    -0.276 NA
HETATM    6  C10 UNL     1      25.199   3.301  50.236  1.00  0.00     0.241 C 
HETATM    7  C11 UNL     1      26.373   3.741  49.522  1.00  0.00     0.089 C 
HETATM    8  N4  UNL     1      27.300   4.106  48.946  1.00  0.00    -0.195 NA
HETATM    9  C12 UNL     1      24.617   4.412  51.143  1.00  0.00     0.152 C 
HETATM   10  C19 UNL     1      22.382   4.389  47.929  1.00  0.00     0.060 C 
HETATM   11  C20 UNL     1      22.090   5.731  48.625  1.00  0.00     0.063 C 
ENDROOT
BRANCH   9  12
HETATM   12  N5  UNL     1      24.159   3.850  52.388  1.00  0.00    -0.378 N 
HETATM   13  H14 UNL     1      23.498   4.449  52.969  1.00  0.00     0.160 HD
BRANCH  12  14
HETATM   14  C13 UNL     1      24.497   2.579  52.920  1.00  0.00     0.030 A 
HETATM   15  C14 UNL     1      25.737   2.390  53.536  1.00  0.00     0.032 A 
HETATM   16  C15 UNL     1      25.972   1.116  54.018  1.00  0.00     0.046 A 
HETATM   17  C16 UNL     1      25.117   0.038  53.951  1.00  0.00     0.138 A 
HETATM   18  F1  UNL     1      25.417  -1.177  54.445  1.00  0.00    -0.204 F 
HETATM   19  C17 UNL     1      23.897   0.271  53.331  1.00  0.00     0.074 A 
HETATM   20 CL1  UNL     1      22.698  -0.993  53.163  1.00  0.00    -0.081 Cl
HETATM   21  C18 UNL     1      23.621   1.525  52.836  1.00  0.00     0.056 A 
ENDBRANCH  12  14
ENDBRANCH   9  12
BRANCH   1  22
HETATM   22  N2  UNL     1      23.609   7.107  50.422  1.00  0.00    -0.327 N 
HETATM   23  C5  UNL     1      24.717   7.688  49.762  1.00  0.00     0.245 C 
HETATM   24  O1  UNL     1      25.162   7.285  48.629  1.00  0.00    -0.268 OA
HETATM   25  H9  UNL     1      23.462   7.604  51.288  1.00  0.00     0.169 HD
BRANCH  23  26
HETATM   26  C4  UNL     1      25.534   8.804  50.207  1.00  0.00     0.072 C 
HETATM   27  C3  UNL     1      26.770   8.581  49.795  1.00  0.00     0.008 C 
BRANCH  27  28
HETATM   28  C2  UNL     1      27.905   9.494  50.051  1.00  0.00     0.296 C 
BRANCH  28  29
HETATM   29  N1  UNL     1      29.191   8.952  49.713  1.00  0.00     0.082 N 
HETATM   30  C1  UNL     1      30.136   9.971  49.300  1.00  0.00     0.307 C 
HETATM   31  H4  UNL     1      29.548   8.279  50.395  1.00  0.00     0.315 HD
ENDBRANCH  28  29
ENDBRANCH  27  28
ENDBRANCH  23  26
ENDBRANCH   1  22
TORSDOF 6
ENDMDL
MODEL 9
REMARK VINA RESULT:      -7.1      2.047      3.053
REMARK  6 active torsions:
REMARK  status: ('A' for Active; 'I' for Inactive)
REMARK    1  A    between atoms: N1_2  and  C2_3 
REMARK    2  A    between atoms: C2_3  and  C3_4 
REMARK    3  A    between atoms: C4_5  and  C5_6 
REMARK       I    between atoms: C5_6  and  N2_8 
REMARK    4  A    between atoms: N2_8  and  C6_9 
REMARK    5  A    between atoms: C12_17  and  N5_18 
REMARK    6  A    between atoms: N5_18  and  C13_19 
ROOT
HETATM    1  C6  UNL     1      20.394   3.746  51.619  1.00  0.00     0.017 C 
HETATM    2  C7  UNL     1      20.845   2.520  51.433  1.00  0.00    -0.026 C 
HETATM    3  C8  UNL     1      19.706   1.487  51.555  1.00  0.00     0.092 C 
HETATM    4  C9  UNL     1      19.308   1.842  50.109  1.00  0.00     0.013 C 
HETATM    5  N3  UNL     1      20.086   0.943  49.574  1.00  0.00    -0.276 NA
HETATM    6  C10 UNL     1      21.539   0.982  49.745  1.00  0.00     0.241 C 
HETATM    7  C11 UNL     1      22.081   1.626  48.573  1.00  0.00     0.089 C 
HETATM    8  N4  UNL     1      22.507   2.156  47.645  1.00  0.00    -0.195 NA
HETATM    9  C12 UNL     1      21.989   1.676  51.054  1.00  0.00     0.152 C 
HETATM   10  C19 UNL     1      18.354   2.958  50.368  1.00  0.00     0.060 C 
HETATM   11  C20 UNL     1      18.950   3.938  51.396  1.00  0.00     0.063 C 
ENDROOT
BRANCH   9  12
HETATM   12  N5  UNL     1      22.266   0.692  52.069  1.00  0.00    -0.378 N 
HETATM   13  H14 UNL     1      21.463   0.050  52.345  1.00  0.00     0.160 HD
BRANCH  12  14
HETATM   14  C13 UNL     1      23.499   0.490  52.741  1.00  0.00     0.030 A 
HETATM   15  C14 UNL     1      23.602  -0.494  53.727  1.00  0.00     0.032 A 
HETATM   16  C15 UNL     1      24.843  -0.610  54.324  1.00  0.00     0.046 A 
HETATM   17  C16 UNL     1      25.965   0.139  54.043  1.00  0.00     0.138 A 
HETATM   18  F1  UNL     1      27.144  -0.033  54.669  1.00  0.00    -0.204 F 
HETATM   19  C17 UNL     1      25.818   1.104  53.058  1.00  0.00     0.074 A 
HETATM   20 CL1  UNL     1      27.148   2.140  52.582  1.00  0.00    -0.081 Cl
HETATM   21  C18 UNL     1      24.599   1.254  52.437  1.00  0.00     0.056 A 
ENDBRANCH  12  14
ENDBRANCH   9  12
BRANCH   1  22
HETATM   22  N2  UNL     1      21.565   4.470  51.954  1.00  0.00    -0.327 N 
HETATM   23  C5  UNL     1      22.079   5.298  50.929  1.00  0.00     0.245 C 
HETATM   24  O1  UNL     1      21.544   5.409  49.769  1.00  0.00    -0.268 OA
HETATM   25  H9  UNL     1      22.162   4.561  52.762  1.00  0.00     0.169 HD
BRANCH  23  26
HETATM   26  C4  UNL     1      23.255   6.149  50.978  1.00  0.00     0.072 C 
HETATM   27  C3  UNL     1      24.191   5.578  50.238  1.00  0.00     0.008 C 
BRANCH  27  28
HETATM   28  C2  UNL     1      25.543   6.140  50.035  1.00  0.00     0.296 C 
BRANCH  28  29
HETATM   29  N1  UNL     1      26.502   5.207  49.515  1.00  0.00     0.082 N 
HETATM   30  C1  UNL     1      26.041   3.835  49.581  1.00  0.00     0.307 C 
HETATM   31  H4  UNL     1      26.907   5.487  48.619  1.00  0.00     0.315 HD
ENDBRANCH  28  29
ENDBRANCH  27  28
ENDBRANCH  23  26
ENDBRANCH   1  22
TORSDOF 6
ENDMDL
