MODEL 1
REMARK VINA RESULT:      -8.6      0.000      0.000
REMARK  5 active torsions:
REMARK  status: ('A' for Active; 'I' for Inactive)
REMARK    1  A    between atoms: C3_4  and  C4_5 
REMARK    2  A    between atoms: C14_17  and  C15_18 
REMARK    3  A    between atoms: C15_18  and  C16_19 
REMARK    4  A    between atoms: C16_19  and  C17_20 
REMARK    5  A    between atoms: C17_20  and  O3_21 
ROOT
HETATM    1  O1  UNL     1      25.302  -1.177  54.872  1.00  0.00    -0.287 OA
HETATM    2  C1  UNL     1      24.627  -0.561  54.021  1.00  0.00     0.188 A 
HETATM    3  C2  UNL     1      23.246  -0.766  53.933  1.00  0.00     0.093 A 
HETATM    4  C3  UNL     1      22.438  -0.120  53.021  1.00  0.00     0.090 A 
HETATM    5  O2  UNL     1      23.018   0.740  52.192  1.00  0.00    -0.309 OA
HETATM    6  C10 UNL     1      24.311   0.950  52.254  1.00  0.00     0.092 A 
HETATM    7  C11 UNL     1      24.786   1.856  51.356  1.00  0.00     0.062 A 
HETATM    8  C12 UNL     1      26.122   2.162  51.326  1.00  0.00     0.037 A 
HETATM    9 CL1  UNL     1      26.781   3.328  50.183  1.00  0.00    -0.084 Cl
HETATM   10  C13 UNL     1      26.932   1.533  52.213  1.00  0.00     0.032 A 
HETATM   11  C14 UNL     1      26.523   0.587  53.169  1.00  0.00    -0.040 A 
HETATM   12  C18 UNL     1      25.168   0.336  53.137  1.00  0.00     0.054 A 
ENDROOT
BRANCH   4  13
HETATM   13  C4  UNL     1      21.004  -0.348  52.947  1.00  0.00    -0.002 A 
HETATM   14  C5  UNL     1      20.145   0.290  52.087  1.00  0.00     0.014 A 
HETATM   15  C6  UNL     1      18.784   0.108  51.981  1.00  0.00     0.001 A 
HETATM   16  C7  UNL     1      18.257  -0.840  52.865  1.00  0.00     0.000 A 
HETATM   17  C8  UNL     1      19.059  -1.535  53.772  1.00  0.00     0.001 A 
HETATM   18  C9  UNL     1      20.425  -1.271  53.793  1.00  0.00     0.014 A 
ENDBRANCH   4  13
BRANCH  11  19
HETATM   19  C15 UNL     1      27.480  -0.094  54.054  1.00  0.00     0.042 C 
BRANCH  19  20
HETATM   20  C16 UNL     1      28.517  -0.925  53.334  1.00  0.00     0.030 C 
BRANCH  20  21
HETATM   21  C17 UNL     1      27.869  -2.237  52.829  1.00  0.00     0.164 C 
BRANCH  21  22
HETATM   22  O3  UNL     1      28.550  -3.345  53.317  1.00  0.00    -0.401 OA
HETATM   23  H15 UNL     1      28.863  -3.213  54.253  1.00  0.00     0.209 HD
ENDBRANCH  21  22
ENDBRANCH  20  21
ENDBRANCH  19  20
ENDBRANCH  11  19
TORSDOF 5
ENDMDL
MODEL 2
REMARK VINA RESULT:      -8.5      0.369      1.067
REMARK  5 active torsions:
REMARK  status: ('A' for Active; 'I' for Inactive)
REMARK    1  A    between atoms: C3_4  and  C4_5 
REMARK    2  A    between atoms: C14_17  and  C15_18 
REMARK    3  A    between atoms: C15_18  and  C16_19 
REMARK    4  A    between atoms: C16_19  and  C17_20 
REMARK    5  A    between atoms: C17_20  and  O3_21 
ROOT
HETATM    1  O1  UNL     1      25.083  -1.118  54.672  1.00  0.00    -0.287 OA
HETATM    2  C1  UNL     1      24.445  -0.471  53.814  1.00  0.00     0.188 A 
HETATM    3  C2  UNL     1      23.064  -0.649  53.679  1.00  0.00     0.093 A 
HETATM    4  C3  UNL     1      22.296   0.032  52.757  1.00  0.00     0.090 A 
HETATM    5  O2  UNL     1      22.917   0.899  51.966  1.00  0.00    -0.309 OA
HETATM    6  C10 UNL     1      24.211   1.084  52.072  1.00  0.00     0.092 A 
HETATM    7  C11 UNL     1      24.729   2.001  51.210  1.00  0.00     0.062 A 
HETATM    8  C12 UNL     1      26.071   2.283  51.228  1.00  0.00     0.037 A 
HETATM    9 CL1  UNL     1      26.786   3.461  50.133  1.00  0.00    -0.084 Cl
HETATM   10  C13 UNL     1      26.842   1.620  52.126  1.00  0.00     0.032 A 
HETATM   11  C14 UNL     1      26.387   0.661  53.047  1.00  0.00    -0.040 A 
HETATM   12  C18 UNL     1      25.029   0.435  52.968  1.00  0.00     0.054 A 
ENDROOT
BRANCH   4  13
HETATM   13  C4  UNL     1      20.862  -0.169  52.634  1.00  0.00    -0.002 A 
HETATM   14  C5  UNL     1      20.080  -0.850  53.533  1.00  0.00     0.014 A 
HETATM   15  C6  UNL     1      18.721  -1.066  53.459  1.00  0.00     0.001 A 
HETATM   16  C7  UNL     1      18.109  -0.516  52.329  1.00  0.00     0.000 A 
HETATM   17  C8  UNL     1      18.829   0.191  51.365  1.00  0.00     0.001 A 
HETATM   18  C9  UNL     1      20.200   0.350  51.541  1.00  0.00     0.014 A 
ENDBRANCH   4  13
BRANCH  11  19
HETATM   19  C15 UNL     1      27.304  -0.057  53.946  1.00  0.00     0.042 C 
BRANCH  19  20
HETATM   20  C16 UNL     1      28.333  -0.909  53.240  1.00  0.00     0.030 C 
BRANCH  20  21
HETATM   21  C17 UNL     1      27.679  -2.234  52.778  1.00  0.00     0.164 C 
BRANCH  21  22
HETATM   22  O3  UNL     1      28.477  -3.321  53.107  1.00  0.00    -0.401 OA
HETATM   23  H15 UNL     1      29.260  -3.413  52.499  1.00  0.00     0.209 HD
ENDBRANCH  21  22
ENDBRANCH  20  21
ENDBRANCH  19  20
ENDBRANCH  11  19
TORSDOF 5
ENDMDL
MODEL 3
REMARK VINA RESULT:      -8.2      2.802      6.993
REMARK  5 active torsions:
REMARK  status: ('A' for Active; 'I' for Inactive)
REMARK    1  A    between atoms: C3_4  and  C4_5 
REMARK    2  A    between atoms: C14_17  and  C15_18 
REMARK    3  A    between atoms: C15_18  and  C16_19 
REMARK    4  A    between atoms: C16_19  and  C17_20 
REMARK    5  A    between atoms: C17_20  and  O3_21 
ROOT
HETATM    1  O1  UNL     1      24.850   2.978  51.259  1.00  0.00    -0.287 OA
HETATM    2  C1  UNL     1      24.846   1.875  51.843  1.00  0.00     0.188 A 
HETATM    3  C2  UNL     1      26.049   1.208  52.099  1.00  0.00     0.093 A 
HETATM    4  C3  UNL     1      26.121  -0.011  52.741  1.00  0.00     0.090 A 
HETATM    5  O2  UNL     1      24.980  -0.564  53.132  1.00  0.00    -0.309 OA
HETATM    6  C10 UNL     1      23.838   0.040  52.904  1.00  0.00     0.092 A 
HETATM    7  C11 UNL     1      22.740  -0.626  53.355  1.00  0.00     0.062 A 
HETATM    8  C12 UNL     1      21.489  -0.092  53.179  1.00  0.00     0.037 A 
HETATM    9 CL1  UNL     1      20.041  -0.915  53.747  1.00  0.00    -0.084 Cl
HETATM   10  C13 UNL     1      21.399   1.104  52.546  1.00  0.00     0.032 A 
HETATM   11  C14 UNL     1      22.480   1.853  52.050  1.00  0.00    -0.040 A 
HETATM   12  C18 UNL     1      23.701   1.252  52.268  1.00  0.00     0.054 A 
ENDROOT
BRANCH   4  13
HETATM   13  C4  UNL     1      27.384  -0.686  52.996  1.00  0.00    -0.002 A 
HETATM   14  C5  UNL     1      28.532  -0.075  53.434  1.00  0.00     0.014 A 
HETATM   15  C6  UNL     1      29.747  -0.671  53.688  1.00  0.00     0.001 A 
HETATM   16  C7  UNL     1      29.774  -2.051  53.463  1.00  0.00     0.000 A 
HETATM   17  C8  UNL     1      28.651  -2.751  53.016  1.00  0.00     0.001 A 
HETATM   18  C9  UNL     1      27.472  -2.047  52.792  1.00  0.00     0.014 A 
ENDBRANCH   4  13
BRANCH  11  19
HETATM   19  C15 UNL     1      22.288   3.115  51.320  1.00  0.00     0.042 C 
BRANCH  19  20
HETATM   20  C16 UNL     1      21.767   4.254  52.165  1.00  0.00     0.030 C 
BRANCH  20  21
HETATM   21  C17 UNL     1      22.642   5.511  51.936  1.00  0.00     0.164 C 
BRANCH  21  22
HETATM   22  O3  UNL     1      23.795   5.459  52.708  1.00  0.00    -0.401 OA
HETATM   23  H15 UNL     1      23.680   4.895  53.520  1.00  0.00     0.209 HD
ENDBRANCH  21  22
ENDBRANCH  20  21
ENDBRANCH  19  20
ENDBRANCH  11  19
TORSDOF 5
ENDMDL
MODEL 4
REMARK VINA RESULT:      -8.1      3.158      6.868
REMARK  5 active torsions:
REMARK  status: ('A' for Active; 'I' for Inactive)
REMARK    1  A    between atoms: C3_4  and  C4_5 
REMARK    2  A    between atoms: C14_17  and  C15_18 
REMARK    3  A    between atoms: C15_18  and  C16_19 
REMARK    4  A    between atoms: C16_19  and  C17_20 
REMARK    5  A    between atoms: C17_20  and  O3_21 
ROOT
HETATM    1  O1  UNL     1      22.595   2.786  51.842  1.00  0.00    -0.287 OA
HETATM    2  C1  UNL     1      23.796   2.746  51.502  1.00  0.00     0.188 A 
HETATM    3  C2  UNL     1      24.337   3.759  50.702  1.00  0.00     0.093 A 
HETATM    4  C3  UNL     1      25.653   3.781  50.290  1.00  0.00     0.090 A 
HETATM    5  O2  UNL     1      26.434   2.783  50.684  1.00  0.00    -0.309 OA
HETATM    6  C10 UNL     1      25.952   1.821  51.434  1.00  0.00     0.092 A 
HETATM    7  C11 UNL     1      26.851   0.858  51.775  1.00  0.00     0.062 A 
HETATM    8  C12 UNL     1      26.466  -0.199  52.560  1.00  0.00     0.037 A 
HETATM    9 CL1  UNL     1      27.594  -1.466  53.028  1.00  0.00    -0.084 Cl
HETATM   10  C13 UNL     1      25.174  -0.239  52.971  1.00  0.00     0.032 A 
HETATM   11  C14 UNL     1      24.185   0.711  52.663  1.00  0.00    -0.040 A 
HETATM   12  C18 UNL     1      24.651   1.741  51.874  1.00  0.00     0.054 A 
ENDROOT
BRANCH   4  13
HETATM   13  C4  UNL     1      26.193   4.845  49.458  1.00  0.00    -0.002 A 
HETATM   14  C5  UNL     1      25.503   5.960  49.054  1.00  0.00     0.014 A 
HETATM   15  C6  UNL     1      25.970   6.990  48.269  1.00  0.00     0.001 A 
HETATM   16  C7  UNL     1      27.300   6.846  47.857  1.00  0.00     0.000 A 
HETATM   17  C8  UNL     1      28.074   5.743  48.222  1.00  0.00     0.001 A 
HETATM   18  C9  UNL     1      27.499   4.760  49.021  1.00  0.00     0.014 A 
ENDBRANCH   4  13
BRANCH  11  19
HETATM   19  C15 UNL     1      22.790   0.558  53.101  1.00  0.00     0.042 C 
BRANCH  19  20
HETATM   20  C16 UNL     1      22.350  -0.874  53.300  1.00  0.00     0.030 C 
BRANCH  20  21
HETATM   21  C17 UNL     1      21.660  -1.016  54.679  1.00  0.00     0.164 C 
BRANCH  21  22
HETATM   22  O3  UNL     1      22.315  -1.954  55.466  1.00  0.00    -0.401 OA
HETATM   23  H15 UNL     1      22.540  -1.597  56.369  1.00  0.00     0.209 HD
ENDBRANCH  21  22
ENDBRANCH  20  21
ENDBRANCH  19  20
ENDBRANCH  11  19
TORSDOF 5
ENDMDL
MODEL 5
REMARK VINA RESULT:      -8.0      3.214      5.825
REMARK  5 active torsions:
REMARK  status: ('A' for Active; 'I' for Inactive)
REMARK    1  A    between atoms: C3_4  and  C4_5 
REMARK    2  A    between atoms: C14_17  and  C15_18 
REMARK    3  A    between atoms: C15_18  and  C16_19 
REMARK    4  A    between atoms: C16_19  and  C17_20 
REMARK    5  A    between atoms: C17_20  and  O3_21 
ROOT
HETATM    1  O1  UNL     1      27.678   1.348  51.941  1.00  0.00    -0.287 OA
HETATM    2  C1  UNL     1      26.552   1.790  51.629  1.00  0.00     0.188 A 
HETATM    3  C2  UNL     1      26.441   2.922  50.814  1.00  0.00     0.093 A 
HETATM    4  C3  UNL     1      25.232   3.464  50.427  1.00  0.00     0.090 A 
HETATM    5  O2  UNL     1      24.128   2.866  50.858  1.00  0.00    -0.309 OA
HETATM    6  C10 UNL     1      24.206   1.803  51.623  1.00  0.00     0.092 A 
HETATM    7  C11 UNL     1      23.006   1.279  51.995  1.00  0.00     0.062 A 
HETATM    8  C12 UNL     1      22.958   0.165  52.792  1.00  0.00     0.037 A 
HETATM    9 CL1  UNL     1      21.430  -0.549  53.298  1.00  0.00    -0.084 Cl
HETATM   10  C13 UNL     1      24.137  -0.379  53.185  1.00  0.00     0.032 A 
HETATM   11  C14 UNL     1      25.414   0.100  52.848  1.00  0.00    -0.040 A 
HETATM   12  C18 UNL     1      25.377   1.219  52.043  1.00  0.00     0.054 A 
ENDROOT
BRANCH   4  13
HETATM   13  C4  UNL     1      25.140   4.642  49.580  1.00  0.00    -0.002 A 
HETATM   14  C5  UNL     1      26.182   5.484  49.281  1.00  0.00     0.014 A 
HETATM   15  C6  UNL     1      26.142   6.608  48.486  1.00  0.00     0.001 A 
HETATM   16  C7  UNL     1      24.884   6.890  47.944  1.00  0.00     0.000 A 
HETATM   17  C8  UNL     1      23.771   6.087  48.197  1.00  0.00     0.001 A 
HETATM   18  C9  UNL     1      23.925   4.972  49.016  1.00  0.00     0.014 A 
ENDBRANCH   4  13
BRANCH  11  19
HETATM   19  C15 UNL     1      26.644  -0.517  53.369  1.00  0.00     0.042 C 
BRANCH  19  20
HETATM   20  C16 UNL     1      27.016  -1.824  52.710  1.00  0.00     0.030 C 
BRANCH  20  21
HETATM   21  C17 UNL     1      28.486  -2.173  53.047  1.00  0.00     0.164 C 
BRANCH  21  22
HETATM   22  O3  UNL     1      28.611  -3.513  53.391  1.00  0.00    -0.401 OA
HETATM   23  H15 UNL     1      27.770  -3.883  53.774  1.00  0.00     0.209 HD
ENDBRANCH  21  22
ENDBRANCH  20  21
ENDBRANCH  19  20
ENDBRANCH  11  19
TORSDOF 5
ENDMDL
MODEL 6
REMARK VINA RESULT:      -7.9      0.983      1.243
REMARK  5 active torsions:
REMARK  status: ('A' for Active; 'I' for Inactive)
REMARK    1  A    between atoms: C3_4  and  C4_5 
REMARK    2  A    between atoms: C14_17  and  C15_18 
REMARK    3  A    between atoms: C15_18  and  C16_19 
REMARK    4  A    between atoms: C16_19  and  C17_20 
REMARK    5  A    between atoms: C17_20  and  O3_21 
ROOT
HETATM    1  O1  UNL     1      24.140  -0.890  54.292  1.00  0.00    -0.287 OA
HETATM    2  C1  UNL     1      23.624  -0.204  53.385  1.00  0.00     0.188 A 
HETATM    3  C2  UNL     1      22.260  -0.327  53.097  1.00  0.00     0.093 A 
HETATM    4  C3  UNL     1      21.622   0.399  52.113  1.00  0.00     0.090 A 
HETATM    5  O2  UNL     1      22.355   1.257  51.414  1.00  0.00    -0.309 OA
HETATM    6  C10 UNL     1      23.636   1.391  51.664  1.00  0.00     0.092 A 
HETATM    7  C11 UNL     1      24.277   2.304  50.883  1.00  0.00     0.062 A 
HETATM    8  C12 UNL     1      25.618   2.535  51.053  1.00  0.00     0.037 A 
HETATM    9 CL1  UNL     1      26.489   3.706  50.069  1.00  0.00    -0.084 Cl
HETATM   10  C13 UNL     1      26.262   1.827  52.014  1.00  0.00     0.032 A 
HETATM   11  C14 UNL     1      25.676   0.869  52.858  1.00  0.00    -0.040 A 
HETATM   12  C18 UNL     1      24.328   0.696  52.628  1.00  0.00     0.054 A 
ENDROOT
BRANCH   4  13
HETATM   13  C4  UNL     1      20.203   0.254  51.831  1.00  0.00    -0.002 A 
HETATM   14  C5  UNL     1      19.563   0.754  50.724  1.00  0.00     0.014 A 
HETATM   15  C6  UNL     1      18.225   0.643  50.415  1.00  0.00     0.001 A 
HETATM   16  C7  UNL     1      17.470  -0.063  51.357  1.00  0.00     0.000 A 
HETATM   17  C8  UNL     1      18.041  -0.604  52.510  1.00  0.00     0.001 A 
HETATM   18  C9  UNL     1      19.406  -0.433  52.722  1.00  0.00     0.014 A 
ENDBRANCH   4  13
BRANCH  11  19
HETATM   19  C15 UNL     1      26.463   0.101  53.835  1.00  0.00     0.042 C 
BRANCH  19  20
HETATM   20  C16 UNL     1      27.619  -0.669  53.240  1.00  0.00     0.030 C 
BRANCH  20  21
HETATM   21  C17 UNL     1      27.104  -2.007  52.655  1.00  0.00     0.164 C 
BRANCH  21  22
HETATM   22  O3  UNL     1      27.986  -3.042  52.936  1.00  0.00    -0.401 OA
HETATM   23  H15 UNL     1      28.934  -2.737  52.948  1.00  0.00     0.209 HD
ENDBRANCH  21  22
ENDBRANCH  20  21
ENDBRANCH  19  20
ENDBRANCH  11  19
TORSDOF 5
ENDMDL
MODEL 7
REMARK VINA RESULT:      -7.9      2.754      7.130
REMARK  5 active torsions:
REMARK  status: ('A' for Active; 'I' for Inactive)
REMARK    1  A    between atoms: C3_4  and  C4_5 
REMARK    2  A    between atoms: C14_17  and  C15_18 
REMARK    3  A    between atoms: C15_18  and  C16_19 
REMARK    4  A    between atoms: C16_19  and  C17_20 
REMARK    5  A    between atoms: C17_20  and  O3_21 
ROOT
HETATM    1  O1  UNL     1      24.287   2.521  50.759  1.00  0.00    -0.287 OA
HETATM    2  C1  UNL     1      24.494   1.575  51.549  1.00  0.00     0.188 A 
HETATM    3  C2  UNL     1      25.802   1.201  51.873  1.00  0.00     0.093 A 
HETATM    4  C3  UNL     1      26.106   0.170  52.738  1.00  0.00     0.090 A 
HETATM    5  O2  UNL     1      25.091  -0.489  53.283  1.00  0.00    -0.309 OA
HETATM    6  C10 UNL     1      23.854  -0.158  52.996  1.00  0.00     0.092 A 
HETATM    7  C11 UNL     1      22.903  -0.904  53.621  1.00  0.00     0.062 A 
HETATM    8  C12 UNL     1      21.573  -0.650  53.403  1.00  0.00     0.037 A 
HETATM    9 CL1  UNL     1      20.308  -1.587  54.190  1.00  0.00    -0.084 Cl
HETATM   10  C13 UNL     1      21.257   0.358  52.552  1.00  0.00     0.032 A 
HETATM   11  C14 UNL     1      22.175   1.173  51.867  1.00  0.00    -0.040 A 
HETATM   12  C18 UNL     1      23.488   0.856  52.142  1.00  0.00     0.054 A 
ENDROOT
BRANCH   4  13
HETATM   13  C4  UNL     1      27.474  -0.203  53.060  1.00  0.00    -0.002 A 
HETATM   14  C5  UNL     1      27.977  -1.479  53.012  1.00  0.00     0.014 A 
HETATM   15  C6  UNL     1      29.261  -1.879  53.308  1.00  0.00     0.001 A 
HETATM   16  C7  UNL     1      30.115  -0.842  53.696  1.00  0.00     0.000 A 
HETATM   17  C8  UNL     1      29.685   0.484  53.772  1.00  0.00     0.001 A 
HETATM   18  C9  UNL     1      28.364   0.776  53.450  1.00  0.00     0.014 A 
ENDBRANCH   4  13
BRANCH  11  19
HETATM   19  C15 UNL     1      21.745   2.206  50.914  1.00  0.00     0.042 C 
BRANCH  19  20
HETATM   20  C16 UNL     1      21.038   1.672  49.689  1.00  0.00     0.030 C 
BRANCH  20  21
HETATM   21  C17 UNL     1      21.421   2.528  48.457  1.00  0.00     0.164 C 
BRANCH  21  22
HETATM   22  O3  UNL     1      22.795   2.522  48.258  1.00  0.00    -0.401 OA
HETATM   23  H15 UNL     1      23.227   3.357  48.589  1.00  0.00     0.209 HD
ENDBRANCH  21  22
ENDBRANCH  20  21
ENDBRANCH  19  20
ENDBRANCH  11  19
TORSDOF 5
ENDMDL
MODEL 8
REMARK VINA RESULT:      -7.8      3.634      5.287
REMARK  5 active torsions:
REMARK  status: ('A' for Active; 'I' for Inactive)
REMARK    1  A    between atoms: C3_4  and  C4_5 
REMARK    2  A    between atoms: C14_17  and  C15_18 
REMARK    3  A    between atoms: C15_18  and  C16_19 
REMARK    4  A    between atoms: C16_19  and  C17_20 
REMARK    5  A    between atoms: C17_20  and  O3_21 
ROOT
HETATM    1  O1  UNL     1      27.051   2.741  50.857  1.00  0.00    -0.287 OA
HETATM    2  C1  UNL     1      25.806   2.794  50.940  1.00  0.00     0.188 A 
HETATM    3  C2  UNL     1      25.119   1.929  51.798  1.00  0.00     0.093 A 
HETATM    4  C3  UNL     1      23.747   1.933  51.943  1.00  0.00     0.090 A 
HETATM    5  O2  UNL     1      23.060   2.812  51.225  1.00  0.00    -0.309 OA
HETATM    6  C10 UNL     1      23.680   3.634  50.412  1.00  0.00     0.092 A 
HETATM    7  C11 UNL     1      22.866   4.489  49.735  1.00  0.00     0.062 A 
HETATM    8  C12 UNL     1      23.399   5.399  48.858  1.00  0.00     0.037 A 
HETATM    9 CL1  UNL     1      22.387   6.526  47.961  1.00  0.00    -0.084 Cl
HETATM   10  C13 UNL     1      24.746   5.407  48.701  1.00  0.00     0.032 A 
HETATM   11  C14 UNL     1      25.654   4.559  49.359  1.00  0.00    -0.040 A 
HETATM   12  C18 UNL     1      25.041   3.677  50.223  1.00  0.00     0.054 A 
ENDROOT
BRANCH   4  13
HETATM   13  C4  UNL     1      23.054   1.024  52.841  1.00  0.00    -0.002 A 
HETATM   14  C5  UNL     1      21.721   1.095  53.163  1.00  0.00     0.014 A 
HETATM   15  C6  UNL     1      21.023   0.260  54.006  1.00  0.00     0.001 A 
HETATM   16  C7  UNL     1      21.791  -0.760  54.578  1.00  0.00     0.000 A 
HETATM   17  C8  UNL     1      23.152  -0.904  54.305  1.00  0.00     0.001 A 
HETATM   18  C9  UNL     1      23.758  -0.002  53.436  1.00  0.00     0.014 A 
ENDBRANCH   4  13
BRANCH  11  19
HETATM   19  C15 UNL     1      27.098   4.594  49.082  1.00  0.00     0.042 C 
BRANCH  19  20
HETATM   20  C16 UNL     1      27.578   5.865  48.422  1.00  0.00     0.030 C 
BRANCH  20  21
HETATM   21  C17 UNL     1      29.094   5.754  48.126  1.00  0.00     0.164 C 
BRANCH  21  22
HETATM   22  O3  UNL     1      29.797   5.406  49.272  1.00  0.00    -0.401 OA
HETATM   23  H15 UNL     1      30.512   4.737  49.088  1.00  0.00     0.209 HD
ENDBRANCH  21  22
ENDBRANCH  20  21
ENDBRANCH  19  20
ENDBRANCH  11  19
TORSDOF 5
ENDMDL
MODEL 9
REMARK VINA RESULT:      -7.8      3.267      5.253
REMARK  5 active torsions:
REMARK  status: ('A' for Active; 'I' for Inactive)
REMARK    1  A    between atoms: C3_4  and  C4_5 
REMARK    2  A    between atoms: C14_17  and  C15_18 
REMARK    3  A    between atoms: C15_18  and  C16_19 
REMARK    4  A    between atoms: C16_19  and  C17_20 
REMARK    5  A    between atoms: C17_20  and  O3_21 
ROOT
HETATM    1  O1  UNL     1      27.590   2.144  51.984  1.00  0.00    -0.287 OA
HETATM    2  C1  UNL     1      26.363   2.105  51.756  1.00  0.00     0.188 A 
HETATM    3  C2  UNL     1      25.802   2.925  50.771  1.00  0.00     0.093 A 
HETATM    4  C3  UNL     1      24.458   2.934  50.463  1.00  0.00     0.090 A 
HETATM    5  O2  UNL     1      23.669   2.112  51.146  1.00  0.00    -0.309 OA
HETATM    6  C10 UNL     1      24.170   1.333  52.074  1.00  0.00     0.092 A 
HETATM    7  C11 UNL     1      23.262   0.534  52.700  1.00  0.00     0.062 A 
HETATM    8  C12 UNL     1      23.666  -0.327  53.687  1.00  0.00     0.037 A 
HETATM    9 CL1  UNL     1      22.529  -1.380  54.523  1.00  0.00    -0.084 Cl
HETATM   10  C13 UNL     1      24.985  -0.346  54.005  1.00  0.00     0.032 A 
HETATM   11  C14 UNL     1      25.983   0.444  53.411  1.00  0.00    -0.040 A 
HETATM   12  C18 UNL     1      25.498   1.280  52.428  1.00  0.00     0.054 A 
ENDROOT
BRANCH   4  13
HETATM   13  C4  UNL     1      23.896   3.796  49.436  1.00  0.00    -0.002 A 
HETATM   14  C5  UNL     1      22.895   3.440  48.567  1.00  0.00     0.014 A 
HETATM   15  C6  UNL     1      22.334   4.219  47.579  1.00  0.00     0.001 A 
HETATM   16  C7  UNL     1      22.870   5.508  47.484  1.00  0.00     0.000 A 
HETATM   17  C8  UNL     1      23.890   5.951  48.328  1.00  0.00     0.001 A 
HETATM   18  C9  UNL     1      24.384   5.078  49.292  1.00  0.00     0.014 A 
ENDBRANCH   4  13
BRANCH  11  19
HETATM   19  C15 UNL     1      27.383   0.405  53.860  1.00  0.00     0.042 C 
BRANCH  19  20
HETATM   20  C16 UNL     1      28.164  -0.792  53.369  1.00  0.00     0.030 C 
BRANCH  20  21
HETATM   21  C17 UNL     1      29.669  -0.586  53.669  1.00  0.00     0.164 C 
BRANCH  21  22
HETATM   22  O3  UNL     1      30.054   0.719  53.395  1.00  0.00    -0.401 OA
HETATM   23  H15 UNL     1      30.931   0.948  53.809  1.00  0.00     0.209 HD
ENDBRANCH  21  22
ENDBRANCH  20  21
ENDBRANCH  19  20
ENDBRANCH  11  19
TORSDOF 5
ENDMDL
