MODEL 1
REMARK VINA RESULT:      -8.8      0.000      0.000
REMARK  7 active torsions:
REMARK  status: ('A' for Active; 'I' for Inactive)
REMARK    1  A    between atoms: C7_8  and  C8_9 
REMARK       I    between atoms: C8_9  and  N1_11 
REMARK    2  A    between atoms: N1_11  and  C9_12 
REMARK    3  A    between atoms: C13_16  and  N2_17 
REMARK    4  A    between atoms: N2_17  and  C14_18 
REMARK    5  A    between atoms: C16_21  and  C17_22 
REMARK    6  A    between atoms: C17_22  and  C18_23 
REMARK    7  A    between atoms: C19_24  and  N4_25 
ROOT
HETATM    1  C9  UNL     1      23.330  -0.381  53.359  1.00  0.00     0.037 A 
HETATM    2  C10 UNL     1      22.692  -0.889  54.473  1.00  0.00     0.029 A 
HETATM    3  C11 UNL     1      21.293  -0.837  54.487  1.00  0.00     0.004 A 
HETATM    4  C12 UNL     1      20.636  -0.292  53.404  1.00  0.00     0.030 A 
HETATM    5  C13 UNL     1      21.259   0.216  52.289  1.00  0.00     0.051 A 
HETATM    6  C20 UNL     1      22.658   0.160  52.286  1.00  0.00     0.059 A 
ENDROOT
BRANCH   5   7
HETATM    7  N2  UNL     1      20.600   0.780  51.167  1.00  0.00    -0.188 N 
HETATM    8  H11 UNL     1      19.556   0.721  51.100  1.00  0.00     0.184 HD
BRANCH   7   9
HETATM    9  C14 UNL     1      21.300   1.430  50.115  1.00  0.00     0.722 A 
HETATM   10  N3  UNL     1      21.415   0.923  48.919  1.00  0.00    -0.100 NA
HETATM   11  C15 UNL     1      22.190   1.854  48.103  1.00  0.00     0.224 A 
HETATM   12  C16 UNL     1      22.493   2.973  49.038  1.00  0.00     0.055 A 
HETATM   13  N5  UNL     1      21.959   2.680  50.180  1.00  0.00    -0.070 NA
BRANCH  12  14
HETATM   14  C17 UNL     1      23.281   4.153  48.595  1.00  0.00     0.085 C 
BRANCH  14  15
HETATM   15  C18 UNL     1      24.390   4.408  49.513  1.00  0.00    -0.004 C 
HETATM   16  C19 UNL     1      25.400   3.554  49.656  1.00  0.00     0.076 C 
BRANCH  16  17
HETATM   17  N4  UNL     1      26.481   3.796  50.546  1.00  0.00    -0.408 N 
HETATM   18  H18 UNL     1      27.112   4.362  51.154  1.00  0.00     0.155 HD
HETATM   19  H19 UNL     1      27.060   2.958  50.822  1.00  0.00     0.155 HD
ENDBRANCH  16  17
ENDBRANCH  14  15
ENDBRANCH  12  14
ENDBRANCH   7   9
ENDBRANCH   5   7
BRANCH   1  20
HETATM   20  N1  UNL     1      24.742  -0.461  53.407  1.00  0.00    -0.323 N 
HETATM   21  C8  UNL     1      25.758   0.222  52.676  1.00  0.00     0.256 C 
HETATM   22  O1  UNL     1      25.242   1.020  51.863  1.00  0.00    -0.267 OA
HETATM   23  H7  UNL     1      24.864  -1.189  54.158  1.00  0.00     0.169 HD
BRANCH  21  24
HETATM   24  C7  UNL     1      27.132  -0.153  53.032  1.00  0.00     0.038 A 
HETATM   25  C2  UNL     1      28.072   0.749  53.486  1.00  0.00    -0.043 A 
HETATM   26  C1  UNL     1      27.659   2.187  53.620  1.00  0.00     0.049 C 
HETATM   27  C3  UNL     1      29.364   0.366  53.817  1.00  0.00     0.050 A 
HETATM   28  C4  UNL     1      29.723  -0.973  53.686  1.00  0.00     0.117 A 
HETATM   29  F1  UNL     1      30.977  -1.408  53.995  1.00  0.00    -0.206 F 
HETATM   30  C5  UNL     1      28.810  -1.917  53.232  1.00  0.00     0.043 A 
HETATM   31  C6  UNL     1      27.521  -1.489  52.911  1.00  0.00     0.020 A 
ENDBRANCH  21  24
ENDBRANCH   1  20
TORSDOF 7
ENDMDL
MODEL 2
REMARK VINA RESULT:      -8.6      1.700      2.127
REMARK  7 active torsions:
REMARK  status: ('A' for Active; 'I' for Inactive)
REMARK    1  A    between atoms: C7_8  and  C8_9 
REMARK       I    between atoms: C8_9  and  N1_11 
REMARK    2  A    between atoms: N1_11  and  C9_12 
REMARK    3  A    between atoms: C13_16  and  N2_17 
REMARK    4  A    between atoms: N2_17  and  C14_18 
REMARK    5  A    between atoms: C16_21  and  C17_22 
REMARK    6  A    between atoms: C17_22  and  C18_23 
REMARK    7  A    between atoms: C19_24  and  N4_25 
ROOT
HETATM    1  C9  UNL     1      23.617   0.387  53.026  1.00  0.00     0.037 A 
HETATM    2  C10 UNL     1      22.792  -0.692  53.273  1.00  0.00     0.029 A 
HETATM    3  C11 UNL     1      21.412  -0.481  53.155  1.00  0.00     0.004 A 
HETATM    4  C12 UNL     1      20.959   0.773  52.804  1.00  0.00     0.030 A 
HETATM    5  C13 UNL     1      21.769   1.855  52.555  1.00  0.00     0.051 A 
HETATM    6  C20 UNL     1      23.146   1.633  52.676  1.00  0.00     0.059 A 
ENDROOT
BRANCH   5   7
HETATM    7  N2  UNL     1      21.320   3.150  52.193  1.00  0.00    -0.188 N 
HETATM    8  H11 UNL     1      20.333   3.431  52.408  1.00  0.00     0.184 HD
BRANCH   7   9
HETATM    9  C14 UNL     1      22.157   4.097  51.544  1.00  0.00     0.722 A 
HETATM   10  N3  UNL     1      22.390   5.287  52.024  1.00  0.00    -0.100 NA
HETATM   11  C15 UNL     1      23.285   5.983  51.104  1.00  0.00     0.224 A 
HETATM   12  C16 UNL     1      23.521   4.985  50.022  1.00  0.00     0.055 A 
HETATM   13  N5  UNL     1      22.850   3.920  50.324  1.00  0.00    -0.070 NA
BRANCH  12  14
HETATM   14  C17 UNL     1      24.397   5.301  48.864  1.00  0.00     0.085 C 
BRANCH  14  15
HETATM   15  C18 UNL     1      25.782   5.488  49.298  1.00  0.00    -0.004 C 
HETATM   16  C19 UNL     1      26.676   6.127  48.549  1.00  0.00     0.076 C 
BRANCH  16  17
HETATM   17  N4  UNL     1      28.023   6.313  48.964  1.00  0.00    -0.408 N 
HETATM   18  H18 UNL     1      28.987   6.026  49.244  1.00  0.00     0.155 HD
HETATM   19  H19 UNL     1      28.341   7.309  49.099  1.00  0.00     0.155 HD
ENDBRANCH  16  17
ENDBRANCH  14  15
ENDBRANCH  12  14
ENDBRANCH   7   9
ENDBRANCH   5   7
BRANCH   1  20
HETATM   20  N1  UNL     1      24.998   0.110  53.163  1.00  0.00    -0.323 N 
HETATM   21  C8  UNL     1      26.126   0.490  52.379  1.00  0.00     0.256 C 
HETATM   22  O1  UNL     1      25.762   1.193  51.412  1.00  0.00    -0.267 OA
HETATM   23  H7  UNL     1      24.986  -0.479  54.036  1.00  0.00     0.169 HD
BRANCH  21  24
HETATM   24  C7  UNL     1      27.416  -0.013  52.869  1.00  0.00     0.038 A 
HETATM   25  C2  UNL     1      28.396   0.801  53.400  1.00  0.00    -0.043 A 
HETATM   26  C1  UNL     1      28.120   2.276  53.476  1.00  0.00     0.049 C 
HETATM   27  C3  UNL     1      29.605   0.298  53.857  1.00  0.00     0.050 A 
HETATM   28  C4  UNL     1      29.838  -1.072  53.778  1.00  0.00     0.117 A 
HETATM   29  F1  UNL     1      31.007  -1.623  54.210  1.00  0.00    -0.206 F 
HETATM   30  C5  UNL     1      28.880  -1.930  53.251  1.00  0.00     0.043 A 
HETATM   31  C6  UNL     1      27.677  -1.383  52.803  1.00  0.00     0.020 A 
ENDBRANCH  21  24
ENDBRANCH   1  20
TORSDOF 7
ENDMDL
MODEL 3
REMARK VINA RESULT:      -8.5      1.619      4.632
REMARK  7 active torsions:
REMARK  status: ('A' for Active; 'I' for Inactive)
REMARK    1  A    between atoms: C7_8  and  C8_9 
REMARK       I    between atoms: C8_9  and  N1_11 
REMARK    2  A    between atoms: N1_11  and  C9_12 
REMARK    3  A    between atoms: C13_16  and  N2_17 
REMARK    4  A    between atoms: N2_17  and  C14_18 
REMARK    5  A    between atoms: C16_21  and  C17_22 
REMARK    6  A    between atoms: C17_22  and  C18_23 
REMARK    7  A    between atoms: C19_24  and  N4_25 
ROOT
HETATM    1  C9  UNL     1      25.512   3.022  50.409  1.00  0.00     0.037 A 
HETATM    2  C10 UNL     1      26.265   4.066  49.910  1.00  0.00     0.029 A 
HETATM    3  C11 UNL     1      25.583   5.067  49.208  1.00  0.00     0.004 A 
HETATM    4  C12 UNL     1      24.217   4.961  49.056  1.00  0.00     0.030 A 
HETATM    5  C13 UNL     1      23.455   3.927  49.548  1.00  0.00     0.051 A 
HETATM    6  C20 UNL     1      24.147   2.932  50.247  1.00  0.00     0.059 A 
ENDROOT
BRANCH   5   7
HETATM    7  N2  UNL     1      22.050   3.802  49.401  1.00  0.00    -0.188 N 
HETATM    8  H11 UNL     1      21.580   4.229  48.567  1.00  0.00     0.184 HD
BRANCH   7   9
HETATM    9  C14 UNL     1      21.240   3.115  50.345  1.00  0.00     0.722 A 
HETATM   10  N3  UNL     1      20.764   3.682  51.418  1.00  0.00    -0.100 NA
HETATM   11  C15 UNL     1      19.983   2.689  52.151  1.00  0.00     0.224 A 
HETATM   12  C16 UNL     1      20.096   1.465  51.309  1.00  0.00     0.055 A 
HETATM   13  N5  UNL     1      20.828   1.764  50.284  1.00  0.00    -0.070 NA
BRANCH  12  14
HETATM   14  C17 UNL     1      19.430   0.196  51.705  1.00  0.00     0.085 C 
BRANCH  14  15
HETATM   15  C18 UNL     1      19.709  -0.119  53.107  1.00  0.00    -0.004 C 
HETATM   16  C19 UNL     1      20.887  -0.592  53.503  1.00  0.00     0.076 C 
BRANCH  16  17
HETATM   17  N4  UNL     1      21.165  -0.901  54.862  1.00  0.00    -0.408 N 
HETATM   18  H18 UNL     1      21.202  -1.492  55.722  1.00  0.00     0.155 HD
HETATM   19  H19 UNL     1      21.600  -0.133  55.440  1.00  0.00     0.155 HD
ENDBRANCH  16  17
ENDBRANCH  14  15
ENDBRANCH  12  14
ENDBRANCH   7   9
ENDBRANCH   5   7
BRANCH   1  20
HETATM   20  N1  UNL     1      26.259   2.043  51.105  1.00  0.00    -0.323 N 
HETATM   21  C8  UNL     1      26.323   1.702  52.488  1.00  0.00     0.256 C 
HETATM   22  O1  UNL     1      25.558   2.437  53.150  1.00  0.00    -0.267 OA
HETATM   23  H7  UNL     1      26.785   1.603  50.306  1.00  0.00     0.169 HD
BRANCH  21  24
HETATM   24  C7  UNL     1      27.240   0.601  52.810  1.00  0.00     0.038 A 
HETATM   25  C2  UNL     1      28.465   0.786  53.419  1.00  0.00    -0.043 A 
HETATM   26  C1  UNL     1      28.872   2.190  53.765  1.00  0.00     0.049 C 
HETATM   27  C3  UNL     1      29.311  -0.273  53.712  1.00  0.00     0.050 A 
HETATM   28  C4  UNL     1      28.911  -1.565  53.382  1.00  0.00     0.117 A 
HETATM   29  F1  UNL     1      29.700  -2.645  53.645  1.00  0.00    -0.206 F 
HETATM   30  C5  UNL     1      27.687  -1.800  52.769  1.00  0.00     0.043 A 
HETATM   31  C6  UNL     1      26.865  -0.706  52.492  1.00  0.00     0.020 A 
ENDBRANCH  21  24
ENDBRANCH   1  20
TORSDOF 7
ENDMDL
MODEL 4
REMARK VINA RESULT:      -8.5      1.496      2.234
REMARK  7 active torsions:
REMARK  status: ('A' for Active; 'I' for Inactive)
REMARK    1  A    between atoms: C7_8  and  C8_9 
REMARK       I    between atoms: C8_9  and  N1_11 
REMARK    2  A    between atoms: N1_11  and  C9_12 
REMARK    3  A    between atoms: C13_16  and  N2_17 
REMARK    4  A    between atoms: N2_17  and  C14_18 
REMARK    5  A    between atoms: C16_21  and  C17_22 
REMARK    6  A    between atoms: C17_22  and  C18_23 
REMARK    7  A    between atoms: C19_24  and  N4_25 
ROOT
HETATM    1  C9  UNL     1      23.463   0.184  53.424  1.00  0.00     0.037 A 
HETATM    2  C10 UNL     1      22.694  -0.838  53.942  1.00  0.00     0.029 A 
HETATM    3  C11 UNL     1      21.305  -0.660  53.933  1.00  0.00     0.004 A 
HETATM    4  C12 UNL     1      20.787   0.507  53.413  1.00  0.00     0.030 A 
HETATM    5  C13 UNL     1      21.541   1.532  52.893  1.00  0.00     0.051 A 
HETATM    6  C20 UNL     1      22.928   1.344  52.908  1.00  0.00     0.059 A 
ENDROOT
BRANCH   5   7
HETATM    7  N2  UNL     1      21.025   2.738  52.355  1.00  0.00    -0.188 N 
HETATM    8  H11 UNL     1      20.002   2.947  52.447  1.00  0.00     0.184 HD
BRANCH   7   9
HETATM    9  C14 UNL     1      21.842   3.689  51.686  1.00  0.00     0.722 A 
HETATM   10  N3  UNL     1      22.354   4.730  52.282  1.00  0.00    -0.100 NA
HETATM   11  C15 UNL     1      23.131   5.482  51.300  1.00  0.00     0.224 A 
HETATM   12  C16 UNL     1      22.974   4.689  50.048  1.00  0.00     0.055 A 
HETATM   13  N5  UNL     1      22.225   3.670  50.325  1.00  0.00    -0.070 NA
BRANCH  12  14
HETATM   14  C17 UNL     1      23.623   5.118  48.781  1.00  0.00     0.085 C 
BRANCH  14  15
HETATM   15  C18 UNL     1      24.909   5.760  49.051  1.00  0.00    -0.004 C 
HETATM   16  C19 UNL     1      26.050   5.076  49.069  1.00  0.00     0.076 C 
BRANCH  16  17
HETATM   17  N4  UNL     1      27.304   5.693  49.330  1.00  0.00    -0.408 N 
HETATM   18  H18 UNL     1      27.967   6.482  49.492  1.00  0.00     0.155 HD
HETATM   19  H19 UNL     1      28.130   5.048  49.448  1.00  0.00     0.155 HD
ENDBRANCH  16  17
ENDBRANCH  14  15
ENDBRANCH  12  14
ENDBRANCH   7   9
ENDBRANCH   5   7
BRANCH   1  20
HETATM   20  N1  UNL     1      24.857  -0.055  53.464  1.00  0.00    -0.323 N 
HETATM   21  C8  UNL     1      25.916   0.347  52.598  1.00  0.00     0.256 C 
HETATM   22  O1  UNL     1      25.465   1.030  51.653  1.00  0.00    -0.267 OA
HETATM   23  H7  UNL     1      24.923  -0.634  54.341  1.00  0.00     0.169 HD
BRANCH  21  24
HETATM   24  C7  UNL     1      27.250  -0.116  52.999  1.00  0.00     0.038 A 
HETATM   25  C2  UNL     1      27.692  -1.411  52.814  1.00  0.00    -0.043 A 
HETATM   26  C1  UNL     1      26.753  -2.389  52.169  1.00  0.00     0.049 C 
HETATM   27  C3  UNL     1      28.960  -1.820  53.202  1.00  0.00     0.050 A 
HETATM   28  C4  UNL     1      29.813  -0.895  53.798  1.00  0.00     0.117 A 
HETATM   29  F1  UNL     1      31.068  -1.239  54.201  1.00  0.00    -0.206 F 
HETATM   30  C5  UNL     1      29.411   0.419  54.004  1.00  0.00     0.043 A 
HETATM   31  C6  UNL     1      28.128   0.790  53.598  1.00  0.00     0.020 A 
ENDBRANCH  21  24
ENDBRANCH   1  20
TORSDOF 7
ENDMDL
MODEL 5
REMARK VINA RESULT:      -8.4      3.393      7.281
REMARK  7 active torsions:
REMARK  status: ('A' for Active; 'I' for Inactive)
REMARK    1  A    between atoms: C7_8  and  C8_9 
REMARK       I    between atoms: C8_9  and  N1_11 
REMARK    2  A    between atoms: N1_11  and  C9_12 
REMARK    3  A    between atoms: C13_16  and  N2_17 
REMARK    4  A    between atoms: N2_17  and  C14_18 
REMARK    5  A    between atoms: C16_21  and  C17_22 
REMARK    6  A    between atoms: C17_22  and  C18_23 
REMARK    7  A    between atoms: C19_24  and  N4_25 
ROOT
HETATM    1  C9  UNL     1      26.941   2.189  52.521  1.00  0.00     0.037 A 
HETATM    2  C10 UNL     1      28.204   2.405  53.034  1.00  0.00     0.029 A 
HETATM    3  C11 UNL     1      28.706   1.445  53.921  1.00  0.00     0.004 A 
HETATM    4  C12 UNL     1      27.925   0.351  54.229  1.00  0.00     0.030 A 
HETATM    5  C13 UNL     1      26.667   0.123  53.725  1.00  0.00     0.051 A 
HETATM    6  C20 UNL     1      26.175   1.090  52.840  1.00  0.00     0.059 A 
ENDROOT
BRANCH   5   7
HETATM    7  N2  UNL     1      25.850  -0.995  54.031  1.00  0.00    -0.188 N 
HETATM    8  H11 UNL     1      26.295  -1.934  54.170  1.00  0.00     0.184 HD
BRANCH   7   9
HETATM    9  C14 UNL     1      24.438  -0.901  54.157  1.00  0.00     0.722 A 
HETATM   10  N3  UNL     1      23.802  -1.202  55.255  1.00  0.00    -0.100 NA
HETATM   11  C15 UNL     1      22.375  -0.988  55.027  1.00  0.00     0.224 A 
HETATM   12  C16 UNL     1      22.312  -0.515  53.616  1.00  0.00     0.055 A 
HETATM   13  N5  UNL     1      23.524  -0.483  53.163  1.00  0.00    -0.070 NA
BRANCH  12  14
HETATM   14  C17 UNL     1      21.013  -0.177  52.977  1.00  0.00     0.085 C 
BRANCH  14  15
HETATM   15  C18 UNL     1      19.907  -0.829  53.677  1.00  0.00    -0.004 C 
HETATM   16  C19 UNL     1      18.684  -0.895  53.158  1.00  0.00     0.076 C 
BRANCH  16  17
HETATM   17  N4  UNL     1      17.604  -1.527  53.832  1.00  0.00    -0.408 N 
HETATM   18  H18 UNL     1      17.066  -2.320  54.246  1.00  0.00     0.155 HD
HETATM   19  H19 UNL     1      16.815  -0.901  54.147  1.00  0.00     0.155 HD
ENDBRANCH  16  17
ENDBRANCH  14  15
ENDBRANCH  12  14
ENDBRANCH   7   9
ENDBRANCH   5   7
BRANCH   1  20
HETATM   20  N1  UNL     1      26.490   3.195  51.634  1.00  0.00    -0.323 N 
HETATM   21  C8  UNL     1      26.472   3.268  50.210  1.00  0.00     0.256 C 
HETATM   22  O1  UNL     1      26.954   2.224  49.718  1.00  0.00    -0.267 OA
HETATM   23  H7  UNL     1      26.153   3.916  52.323  1.00  0.00     0.169 HD
BRANCH  21  24
HETATM   24  C7  UNL     1      25.909   4.509  49.663  1.00  0.00     0.038 A 
HETATM   25  C2  UNL     1      26.624   5.382  48.868  1.00  0.00    -0.043 A 
HETATM   26  C1  UNL     1      28.051   5.036  48.551  1.00  0.00     0.049 C 
HETATM   27  C3  UNL     1      26.065   6.547  48.364  1.00  0.00     0.050 A 
HETATM   28  C4  UNL     1      24.741   6.847  48.670  1.00  0.00     0.117 A 
HETATM   29  F1  UNL     1      24.139   7.977  48.205  1.00  0.00    -0.206 F 
HETATM   30  C5  UNL     1      23.983   5.997  49.468  1.00  0.00     0.043 A 
HETATM   31  C6  UNL     1      24.582   4.835  49.953  1.00  0.00     0.020 A 
ENDBRANCH  21  24
ENDBRANCH   1  20
TORSDOF 7
ENDMDL
MODEL 6
REMARK VINA RESULT:      -8.3      3.152      5.352
REMARK  7 active torsions:
REMARK  status: ('A' for Active; 'I' for Inactive)
REMARK    1  A    between atoms: C7_8  and  C8_9 
REMARK       I    between atoms: C8_9  and  N1_11 
REMARK    2  A    between atoms: N1_11  and  C9_12 
REMARK    3  A    between atoms: C13_16  and  N2_17 
REMARK    4  A    between atoms: N2_17  and  C14_18 
REMARK    5  A    between atoms: C16_21  and  C17_22 
REMARK    6  A    between atoms: C17_22  and  C18_23 
REMARK    7  A    between atoms: C19_24  and  N4_25 
ROOT
HETATM    1  C9  UNL     1      24.987   3.097  50.590  1.00  0.00     0.037 A 
HETATM    2  C10 UNL     1      23.808   2.574  50.096  1.00  0.00     0.029 A 
HETATM    3  C11 UNL     1      22.940   3.460  49.446  1.00  0.00     0.004 A 
HETATM    4  C12 UNL     1      23.303   4.785  49.334  1.00  0.00     0.030 A 
HETATM    5  C13 UNL     1      24.473   5.318  49.820  1.00  0.00     0.051 A 
HETATM    6  C20 UNL     1      25.333   4.424  50.469  1.00  0.00     0.059 A 
ENDROOT
BRANCH   5   7
HETATM    7  N2  UNL     1      24.862   6.678  49.713  1.00  0.00    -0.188 N 
HETATM    8  H11 UNL     1      24.174   7.430  49.957  1.00  0.00     0.184 HD
BRANCH   7   9
HETATM    9  C14 UNL     1      26.159   7.072  49.285  1.00  0.00     0.722 A 
HETATM   10  N3  UNL     1      26.700   8.211  49.617  1.00  0.00    -0.100 NA
HETATM   11  C15 UNL     1      28.025   8.281  49.005  1.00  0.00     0.224 A 
HETATM   12  C16 UNL     1      28.142   6.988  48.274  1.00  0.00     0.055 A 
HETATM   13  N5  UNL     1      27.043   6.331  48.467  1.00  0.00    -0.070 NA
BRANCH  12  14
HETATM   14  C17 UNL     1      29.365   6.651  47.500  1.00  0.00     0.085 C 
BRANCH  14  15
HETATM   15  C18 UNL     1      30.280   5.842  48.306  1.00  0.00    -0.004 C 
HETATM   16  C19 UNL     1      31.291   6.380  48.982  1.00  0.00     0.076 C 
BRANCH  16  17
HETATM   17  N4  UNL     1      32.183   5.600  49.766  1.00  0.00    -0.408 N 
HETATM   18  H18 UNL     1      32.497   5.046  50.593  1.00  0.00     0.155 HD
HETATM   19  H19 UNL     1      33.132   5.407  49.347  1.00  0.00     0.155 HD
ENDBRANCH  16  17
ENDBRANCH  14  15
ENDBRANCH  12  14
ENDBRANCH   7   9
ENDBRANCH   5   7
BRANCH   1  20
HETATM   20  N1  UNL     1      25.819   2.153  51.237  1.00  0.00    -0.323 N 
HETATM   21  C8  UNL     1      25.974   1.807  52.612  1.00  0.00     0.256 C 
HETATM   22  O1  UNL     1      25.209   2.497  53.320  1.00  0.00    -0.267 OA
HETATM   23  H7  UNL     1      26.323   1.746  50.407  1.00  0.00     0.169 HD
BRANCH  21  24
HETATM   24  C7  UNL     1      26.962   0.752  52.875  1.00  0.00     0.038 A 
HETATM   25  C2  UNL     1      28.232   1.004  53.354  1.00  0.00    -0.043 A 
HETATM   26  C1  UNL     1      28.613   2.432  53.617  1.00  0.00     0.049 C 
HETATM   27  C3  UNL     1      29.144  -0.013  53.594  1.00  0.00     0.050 A 
HETATM   28  C4  UNL     1      28.767  -1.329  53.344  1.00  0.00     0.117 A 
HETATM   29  F1  UNL     1      29.621  -2.369  53.560  1.00  0.00    -0.206 F 
HETATM   30  C5  UNL     1      27.499  -1.630  52.861  1.00  0.00     0.043 A 
HETATM   31  C6  UNL     1      26.611  -0.578  52.633  1.00  0.00     0.020 A 
ENDBRANCH  21  24
ENDBRANCH   1  20
TORSDOF 7
ENDMDL
MODEL 7
REMARK VINA RESULT:      -8.0      4.490      7.686
REMARK  7 active torsions:
REMARK  status: ('A' for Active; 'I' for Inactive)
REMARK    1  A    between atoms: C7_8  and  C8_9 
REMARK       I    between atoms: C8_9  and  N1_11 
REMARK    2  A    between atoms: N1_11  and  C9_12 
REMARK    3  A    between atoms: C13_16  and  N2_17 
REMARK    4  A    between atoms: N2_17  and  C14_18 
REMARK    5  A    between atoms: C16_21  and  C17_22 
REMARK    6  A    between atoms: C17_22  and  C18_23 
REMARK    7  A    between atoms: C19_24  and  N4_25 
ROOT
HETATM    1  C9  UNL     1      24.732   4.807  49.597  1.00  0.00     0.037 A 
HETATM    2  C10 UNL     1      23.816   5.249  48.664  1.00  0.00     0.029 A 
HETATM    3  C11 UNL     1      24.182   6.351  47.881  1.00  0.00     0.004 A 
HETATM    4  C12 UNL     1      25.420   6.926  48.079  1.00  0.00     0.030 A 
HETATM    5  C13 UNL     1      26.341   6.495  49.004  1.00  0.00     0.051 A 
HETATM    6  C20 UNL     1      25.964   5.394  49.782  1.00  0.00     0.059 A 
ENDROOT
BRANCH   5   7
HETATM    7  N2  UNL     1      27.618   7.074  49.221  1.00  0.00    -0.188 N 
HETATM    8  H11 UNL     1      27.727   7.818  49.951  1.00  0.00     0.184 HD
BRANCH   7   9
HETATM    9  C14 UNL     1      28.769   6.687  48.485  1.00  0.00     0.722 A 
HETATM   10  N3  UNL     1      29.431   7.508  47.718  1.00  0.00    -0.100 NA
HETATM   11  C15 UNL     1      30.546   6.777  47.122  1.00  0.00     0.224 A 
HETATM   12  C16 UNL     1      30.404   5.404  47.682  1.00  0.00     0.055 A 
HETATM   13  N5  UNL     1      29.368   5.406  48.459  1.00  0.00    -0.070 NA
BRANCH  12  14
HETATM   14  C17 UNL     1      31.361   4.325  47.322  1.00  0.00     0.085 C 
BRANCH  14  15
HETATM   15  C18 UNL     1      32.616   4.480  48.057  1.00  0.00    -0.004 C 
HETATM   16  C19 UNL     1      33.670   3.702  47.825  1.00  0.00     0.076 C 
BRANCH  16  17
HETATM   17  N4  UNL     1      34.893   3.846  48.535  1.00  0.00    -0.408 N 
HETATM   18  H18 UNL     1      35.752   4.333  48.873  1.00  0.00     0.155 HD
HETATM   19  H19 UNL     1      35.218   3.008  49.088  1.00  0.00     0.155 HD
ENDBRANCH  16  17
ENDBRANCH  14  15
ENDBRANCH  12  14
ENDBRANCH   7   9
ENDBRANCH   5   7
BRANCH   1  20
HETATM   20  N1  UNL     1      24.302   3.694  50.356  1.00  0.00    -0.323 N 
HETATM   21  C8  UNL     1      23.701   3.597  51.646  1.00  0.00     0.256 C 
HETATM   22  O1  UNL     1      23.556   4.736  52.141  1.00  0.00    -0.267 OA
HETATM   23  H7  UNL     1      24.547   2.910  49.697  1.00  0.00     0.169 HD
BRANCH  21  24
HETATM   24  C7  UNL     1      23.399   2.228  52.085  1.00  0.00     0.038 A 
HETATM   25  C2  UNL     1      24.213   1.505  52.933  1.00  0.00    -0.043 A 
HETATM   26  C1  UNL     1      25.470   2.161  53.428  1.00  0.00     0.049 C 
HETATM   27  C3  UNL     1      23.901   0.214  53.332  1.00  0.00     0.050 A 
HETATM   28  C4  UNL     1      22.729  -0.372  52.861  1.00  0.00     0.117 A 
HETATM   29  F1  UNL     1      22.372  -1.638  53.218  1.00  0.00    -0.206 F 
HETATM   30  C5  UNL     1      21.880   0.318  52.005  1.00  0.00     0.043 A 
HETATM   31  C6  UNL     1      22.230   1.615  51.629  1.00  0.00     0.020 A 
ENDBRANCH  21  24
ENDBRANCH   1  20
TORSDOF 7
ENDMDL
MODEL 8
REMARK VINA RESULT:      -8.0      4.886      7.844
REMARK  7 active torsions:
REMARK  status: ('A' for Active; 'I' for Inactive)
REMARK    1  A    between atoms: C7_8  and  C8_9 
REMARK       I    between atoms: C8_9  and  N1_11 
REMARK    2  A    between atoms: N1_11  and  C9_12 
REMARK    3  A    between atoms: C13_16  and  N2_17 
REMARK    4  A    between atoms: N2_17  and  C14_18 
REMARK    5  A    between atoms: C16_21  and  C17_22 
REMARK    6  A    between atoms: C17_22  and  C18_23 
REMARK    7  A    between atoms: C19_24  and  N4_25 
ROOT
HETATM    1  C9  UNL     1      25.928   4.263  49.922  1.00  0.00     0.037 A 
HETATM    2  C10 UNL     1      25.086   5.352  49.805  1.00  0.00     0.029 A 
HETATM    3  C11 UNL     1      25.538   6.428  49.031  1.00  0.00     0.004 A 
HETATM    4  C12 UNL     1      26.779   6.345  48.436  1.00  0.00     0.030 A 
HETATM    5  C13 UNL     1      27.626   5.267  48.543  1.00  0.00     0.051 A 
HETATM    6  C20 UNL     1      27.164   4.198  49.319  1.00  0.00     0.059 A 
ENDROOT
BRANCH   5   7
HETATM    7  N2  UNL     1      28.904   5.165  47.938  1.00  0.00    -0.188 N 
HETATM    8  H11 UNL     1      29.054   4.471  47.167  1.00  0.00     0.184 HD
BRANCH   7   9
HETATM    9  C14 UNL     1      30.005   5.971  48.334  1.00  0.00     0.722 A 
HETATM   10  N3  UNL     1      30.943   5.548  49.135  1.00  0.00    -0.100 NA
HETATM   11  C15 UNL     1      31.905   6.631  49.322  1.00  0.00     0.224 A 
HETATM   12  C16 UNL     1      31.354   7.737  48.491  1.00  0.00     0.055 A 
HETATM   13  N5  UNL     1      30.262   7.306  47.945  1.00  0.00    -0.070 NA
BRANCH  12  14
HETATM   14  C17 UNL     1      32.047   9.049  48.402  1.00  0.00     0.085 C 
BRANCH  14  15
HETATM   15  C18 UNL     1      31.078  10.137  48.263  1.00  0.00    -0.004 C 
HETATM   16  C19 UNL     1      30.600  10.794  49.316  1.00  0.00     0.076 C 
BRANCH  16  17
HETATM   17  N4  UNL     1      29.658  11.852  49.190  1.00  0.00    -0.408 N 
HETATM   18  H18 UNL     1      28.855  12.457  49.469  1.00  0.00     0.155 HD
HETATM   19  H19 UNL     1      29.733  12.447  48.322  1.00  0.00     0.155 HD
ENDBRANCH  16  17
ENDBRANCH  14  15
ENDBRANCH  12  14
ENDBRANCH   7   9
ENDBRANCH   5   7
BRANCH   1  20
HETATM   20  N1  UNL     1      25.415   3.211  50.716  1.00  0.00    -0.323 N 
HETATM   21  C8  UNL     1      26.038   2.342  51.660  1.00  0.00     0.256 C 
HETATM   22  O1  UNL     1      27.255   2.611  51.757  1.00  0.00    -0.267 OA
HETATM   23  H7  UNL     1      24.404   3.229  50.423  1.00  0.00     0.169 HD
BRANCH  21  24
HETATM   24  C7  UNL     1      25.138   1.364  52.285  1.00  0.00     0.038 A 
HETATM   25  C2  UNL     1      25.547   0.112  52.698  1.00  0.00    -0.043 A 
HETATM   26  C1  UNL     1      26.988  -0.260  52.494  1.00  0.00     0.049 C 
HETATM   27  C3  UNL     1      24.675  -0.792  53.287  1.00  0.00     0.050 A 
HETATM   28  C4  UNL     1      23.344  -0.425  53.466  1.00  0.00     0.117 A 
HETATM   29  F1  UNL     1      22.442  -1.271  54.037  1.00  0.00    -0.206 F 
HETATM   30  C5  UNL     1      22.888   0.825  53.066  1.00  0.00     0.043 A 
HETATM   31  C6  UNL     1      23.798   1.705  52.478  1.00  0.00     0.020 A 
ENDBRANCH  21  24
ENDBRANCH   1  20
TORSDOF 7
ENDMDL
MODEL 9
REMARK VINA RESULT:      -8.0      5.011      8.064
REMARK  7 active torsions:
REMARK  status: ('A' for Active; 'I' for Inactive)
REMARK    1  A    between atoms: C7_8  and  C8_9 
REMARK       I    between atoms: C8_9  and  N1_11 
REMARK    2  A    between atoms: N1_11  and  C9_12 
REMARK    3  A    between atoms: C13_16  and  N2_17 
REMARK    4  A    between atoms: N2_17  and  C14_18 
REMARK    5  A    between atoms: C16_21  and  C17_22 
REMARK    6  A    between atoms: C17_22  and  C18_23 
REMARK    7  A    between atoms: C19_24  and  N4_25 
ROOT
HETATM    1  C9  UNL     1      26.078   4.414  49.985  1.00  0.00     0.037 A 
HETATM    2  C10 UNL     1      25.343   5.579  50.077  1.00  0.00     0.029 A 
HETATM    3  C11 UNL     1      25.815   6.690  49.367  1.00  0.00     0.004 A 
HETATM    4  C12 UNL     1      26.969   6.563  48.624  1.00  0.00     0.030 A 
HETATM    5  C13 UNL     1      27.710   5.409  48.523  1.00  0.00     0.051 A 
HETATM    6  C20 UNL     1      27.229   4.305  49.237  1.00  0.00     0.059 A 
ENDROOT
BRANCH   5   7
HETATM    7  N2  UNL     1      28.898   5.261  47.764  1.00  0.00    -0.188 N 
HETATM    8  H11 UNL     1      28.854   4.803  46.822  1.00  0.00     0.184 HD
BRANCH   7   9
HETATM    9  C14 UNL     1      30.164   5.710  48.227  1.00  0.00     0.722 A 
HETATM   10  N3  UNL     1      30.338   6.863  48.812  1.00  0.00    -0.100 NA
HETATM   11  C15 UNL     1      31.752   6.993  49.152  1.00  0.00     0.224 A 
HETATM   12  C16 UNL     1      32.349   5.718  48.663  1.00  0.00     0.055 A 
HETATM   13  N5  UNL     1      31.394   5.018  48.140  1.00  0.00    -0.070 NA
BRANCH  12  14
HETATM   14  C17 UNL     1      33.801   5.441  48.818  1.00  0.00     0.085 C 
BRANCH  14  15
HETATM   15  C18 UNL     1      34.372   4.957  47.561  1.00  0.00    -0.004 C 
HETATM   16  C19 UNL     1      34.802   3.706  47.416  1.00  0.00     0.076 C 
BRANCH  16  17
HETATM   17  N4  UNL     1      35.358   3.229  46.198  1.00  0.00    -0.408 N 
HETATM   18  H18 UNL     1      35.357   2.775  45.258  1.00  0.00     0.155 HD
HETATM   19  H19 UNL     1      36.394   3.375  46.065  1.00  0.00     0.155 HD
ENDBRANCH  16  17
ENDBRANCH  14  15
ENDBRANCH  12  14
ENDBRANCH   7   9
ENDBRANCH   5   7
BRANCH   1  20
HETATM   20  N1  UNL     1      25.551   3.331  50.726  1.00  0.00    -0.323 N 
HETATM   21  C8  UNL     1      26.158   2.418  51.639  1.00  0.00     0.256 C 
HETATM   22  O1  UNL     1      27.375   2.676  51.762  1.00  0.00    -0.267 OA
HETATM   23  H7  UNL     1      24.544   3.366  50.422  1.00  0.00     0.169 HD
BRANCH  21  24
HETATM   24  C7  UNL     1      25.246   1.417  52.208  1.00  0.00     0.038 A 
HETATM   25  C2  UNL     1      25.661   0.178  52.653  1.00  0.00    -0.043 A 
HETATM   26  C1  UNL     1      27.122  -0.155  52.545  1.00  0.00     0.049 C 
HETATM   27  C3  UNL     1      24.777  -0.747  53.188  1.00  0.00     0.050 A 
HETATM   28  C4  UNL     1      23.428  -0.416  53.279  1.00  0.00     0.117 A 
HETATM   29  F1  UNL     1      22.513  -1.284  53.795  1.00  0.00    -0.206 F 
HETATM   30  C5  UNL     1      22.965   0.820  52.843  1.00  0.00     0.043 A 
HETATM   31  C6  UNL     1      23.887   1.722  52.312  1.00  0.00     0.020 A 
ENDBRANCH  21  24
ENDBRANCH   1  20
TORSDOF 7
ENDMDL
