MODEL 1
REMARK VINA RESULT:      -8.9      0.000      0.000
REMARK  7 active torsions:
REMARK  status: ('A' for Active; 'I' for Inactive)
REMARK    1  A    between atoms: O1_2  and  C2_3 
REMARK    2  A    between atoms: C6_9  and  C7_10 
REMARK    3  A    between atoms: C15_20  and  O2_21 
REMARK    4  A    between atoms: O2_21  and  C16_22 
REMARK    5  A    between atoms: C16_22  and  C17_23 
REMARK    6  A    between atoms: C17_23  and  N3_24 
REMARK    7  A    between atoms: C21_29  and  N4_30 
ROOT
HETATM    1  C2  UNL     1      22.086   1.184  51.901  1.00  0.00     0.103 A 
HETATM    2  C3  UNL     1      21.717   0.373  52.966  1.00  0.00     0.072 A 
HETATM    3  C4  UNL     1      22.696  -0.191  53.759  1.00  0.00     0.073 A 
HETATM    4  N1  UNL     1      22.440  -0.972  54.804  1.00  0.00    -0.241 NA
HETATM    5  C5  UNL     1      23.444  -1.489  55.551  1.00  0.00     0.234 A 
HETATM    6  N2  UNL     1      24.715  -1.205  55.225  1.00  0.00    -0.240 NA
HETATM    7  C6  UNL     1      25.050  -0.413  54.169  1.00  0.00     0.081 A 
HETATM    8  C13 UNL     1      24.001   0.094  53.438  1.00  0.00     0.025 A 
HETATM    9  C14 UNL     1      24.373   0.891  52.392  1.00  0.00     0.055 A 
HETATM   10  C15 UNL     1      23.416   1.460  51.593  1.00  0.00     0.103 A 
ENDROOT
BRANCH  10  11
HETATM   11  O2  UNL     1      23.689   2.293  50.497  1.00  0.00    -0.347 OA
BRANCH  11  12
HETATM   12  C16 UNL     1      24.662   3.281  50.674  1.00  0.00     0.206 C 
BRANCH  12  13
HETATM   13  C17 UNL     1      24.513   4.529  49.893  1.00  0.00     0.302 C 
BRANCH  13  14
HETATM   14  N3  UNL     1      25.337   5.640  50.171  1.00  0.00     0.128 N 
HETATM   15  C18 UNL     1      26.007   6.118  48.938  1.00  0.00     0.301 C 
HETATM   16  C19 UNL     1      25.084   6.949  48.113  1.00  0.00     0.198 C 
HETATM   17  O3  UNL     1      24.267   7.814  48.786  1.00  0.00    -0.385 OA
HETATM   18  C20 UNL     1      23.662   7.293  49.933  1.00  0.00     0.235 C 
HETATM   19  C21 UNL     1      24.783   6.780  50.816  1.00  0.00     0.474 C 
BRANCH  19  20
HETATM   20  N4  UNL     1      24.339   6.620  52.142  1.00  0.00     0.114 N 
HETATM   21  H21 UNL     1      23.618   5.847  52.174  1.00  0.00     0.315 HD
HETATM   22  H22 UNL     1      25.119   6.285  52.760  1.00  0.00     0.315 HD
ENDBRANCH  19  20
ENDBRANCH  13  14
ENDBRANCH  12  13
ENDBRANCH  11  12
ENDBRANCH  10  11
BRANCH   1  23
HETATM   23  O1  UNL     1      21.106   1.752  51.103  1.00  0.00    -0.353 OA
HETATM   24  C1  UNL     1      19.962   1.019  50.705  1.00  0.00     0.210 C 
ENDBRANCH   1  23
BRANCH   7  25
HETATM   25  C7  UNL     1      26.483  -0.241  54.009  1.00  0.00    -0.005 A 
HETATM   26  C8  UNL     1      27.137  -1.295  53.358  1.00  0.00     0.017 A 
HETATM   27  C9  UNL     1      28.484  -1.342  53.081  1.00  0.00     0.045 A 
HETATM   28  C10 UNL     1      29.256  -0.270  53.472  1.00  0.00     0.138 A 
HETATM   29  F1  UNL     1      30.580  -0.213  53.252  1.00  0.00    -0.204 F 
HETATM   30  C11 UNL     1      28.654   0.787  54.114  1.00  0.00     0.073 A 
HETATM   31 CL1  UNL     1      29.588   2.186  54.639  1.00  0.00    -0.081 Cl
HETATM   32  C12 UNL     1      27.308   0.796  54.372  1.00  0.00     0.041 A 
ENDBRANCH   7  25
TORSDOF 7
ENDMDL
MODEL 2
REMARK VINA RESULT:      -8.4      3.381      5.504
REMARK  7 active torsions:
REMARK  status: ('A' for Active; 'I' for Inactive)
REMARK    1  A    between atoms: O1_2  and  C2_3 
REMARK    2  A    between atoms: C6_9  and  C7_10 
REMARK    3  A    between atoms: C15_20  and  O2_21 
REMARK    4  A    between atoms: O2_21  and  C16_22 
REMARK    5  A    between atoms: C16_22  and  C17_23 
REMARK    6  A    between atoms: C17_23  and  N3_24 
REMARK    7  A    between atoms: C21_29  and  N4_30 
ROOT
HETATM    1  C2  UNL     1      27.044   0.546  53.260  1.00  0.00     0.103 A 
HETATM    2  C3  UNL     1      26.663  -0.165  54.391  1.00  0.00     0.072 A 
HETATM    3  C4  UNL     1      25.338  -0.509  54.560  1.00  0.00     0.073 A 
HETATM    4  N1  UNL     1      24.881  -1.196  55.603  1.00  0.00    -0.241 NA
HETATM    5  C5  UNL     1      23.568  -1.513  55.710  1.00  0.00     0.234 A 
HETATM    6  N2  UNL     1      22.721  -1.125  54.743  1.00  0.00    -0.240 NA
HETATM    7  C6  UNL     1      23.119  -0.420  53.648  1.00  0.00     0.081 A 
HETATM    8  C13 UNL     1      24.460  -0.120  53.577  1.00  0.00     0.025 A 
HETATM    9  C14 UNL     1      24.826   0.579  52.461  1.00  0.00     0.055 A 
HETATM   10  C15 UNL     1      26.137   0.930  52.275  1.00  0.00     0.103 A 
ENDROOT
BRANCH  10  11
HETATM   11  O2  UNL     1      26.618   1.646  51.168  1.00  0.00    -0.347 OA
BRANCH  11  12
HETATM   12  C16 UNL     1      26.312   3.009  51.108  1.00  0.00     0.206 C 
BRANCH  12  13
HETATM   13  C17 UNL     1      25.046   3.393  50.446  1.00  0.00     0.302 C 
BRANCH  13  14
HETATM   14  N3  UNL     1      24.672   4.752  50.369  1.00  0.00     0.128 N 
HETATM   15  C18 UNL     1      24.327   5.122  48.976  1.00  0.00     0.301 C 
HETATM   16  C19 UNL     1      22.948   4.673  48.627  1.00  0.00     0.198 C 
HETATM   17  O3  UNL     1      21.992   4.815  49.594  1.00  0.00    -0.385 OA
HETATM   18  C20 UNL     1      22.384   4.438  50.880  1.00  0.00     0.235 C 
HETATM   19  C21 UNL     1      23.630   5.240  51.204  1.00  0.00     0.474 C 
BRANCH  19  20
HETATM   20  N4  UNL     1      23.867   5.255  52.591  1.00  0.00     0.114 N 
HETATM   21  H21 UNL     1      23.229   4.553  53.058  1.00  0.00     0.315 HD
HETATM   22  H22 UNL     1      24.838   4.923  52.809  1.00  0.00     0.315 HD
ENDBRANCH  19  20
ENDBRANCH  13  14
ENDBRANCH  12  13
ENDBRANCH  11  12
ENDBRANCH  10  11
BRANCH   1  23
HETATM   23  O1  UNL     1      28.374   0.893  53.087  1.00  0.00    -0.353 OA
HETATM   24  C1  UNL     1      29.376   0.444  53.980  1.00  0.00     0.210 C 
ENDBRANCH   1  23
BRANCH   7  25
HETATM   25  C7  UNL     1      22.034  -0.112  52.734  1.00  0.00    -0.005 A 
HETATM   26  C8  UNL     1      20.748  -0.313  53.252  1.00  0.00     0.017 A 
HETATM   27  C9  UNL     1      19.574  -0.073  52.576  1.00  0.00     0.045 A 
HETATM   28  C10 UNL     1      19.664   0.405  51.286  1.00  0.00     0.138 A 
HETATM   29  F1  UNL     1      18.582   0.673  50.537  1.00  0.00    -0.204 F 
HETATM   30  C11 UNL     1      20.907   0.618  50.739  1.00  0.00     0.073 A 
HETATM   31 CL1  UNL     1      21.087   1.227  49.095  1.00  0.00    -0.081 Cl
HETATM   32  C12 UNL     1      22.054   0.366  51.446  1.00  0.00     0.041 A 
ENDBRANCH   7  25
TORSDOF 7
ENDMDL
MODEL 3
REMARK VINA RESULT:      -8.2      1.817      2.488
REMARK  7 active torsions:
REMARK  status: ('A' for Active; 'I' for Inactive)
REMARK    1  A    between atoms: O1_2  and  C2_3 
REMARK    2  A    between atoms: C6_9  and  C7_10 
REMARK    3  A    between atoms: C15_20  and  O2_21 
REMARK    4  A    between atoms: O2_21  and  C16_22 
REMARK    5  A    between atoms: C16_22  and  C17_23 
REMARK    6  A    between atoms: C17_23  and  N3_24 
REMARK    7  A    between atoms: C21_29  and  N4_30 
ROOT
HETATM    1  C2  UNL     1      20.960   1.051  50.629  1.00  0.00     0.103 A 
HETATM    2  C3  UNL     1      20.500   0.298  51.701  1.00  0.00     0.072 A 
HETATM    3  C4  UNL     1      21.392  -0.119  52.668  1.00  0.00     0.073 A 
HETATM    4  N1  UNL     1      21.044  -0.834  53.734  1.00  0.00    -0.241 NA
HETATM    5  C5  UNL     1      21.965  -1.206  54.656  1.00  0.00     0.234 A 
HETATM    6  N2  UNL     1      23.245  -0.843  54.484  1.00  0.00    -0.240 NA
HETATM    7  C6  UNL     1      23.672  -0.112  53.418  1.00  0.00     0.081 A 
HETATM    8  C13 UNL     1      22.706   0.247  52.506  1.00  0.00     0.025 A 
HETATM    9  C14 UNL     1      23.167   0.989  51.455  1.00  0.00     0.055 A 
HETATM   10  C15 UNL     1      22.298   1.412  50.484  1.00  0.00     0.103 A 
ENDROOT
BRANCH  10  11
HETATM   11  O2  UNL     1      22.665   2.176  49.366  1.00  0.00    -0.347 OA
BRANCH  11  12
HETATM   12  C16 UNL     1      22.653   3.567  49.512  1.00  0.00     0.206 C 
BRANCH  12  13
HETATM   13  C17 UNL     1      23.879   4.301  49.129  1.00  0.00     0.302 C 
BRANCH  13  14
HETATM   14  N3  UNL     1      24.717   4.848  50.124  1.00  0.00     0.128 N 
HETATM   15  C18 UNL     1      25.390   3.775  50.892  1.00  0.00     0.301 C 
HETATM   16  C19 UNL     1      26.558   3.229  50.142  1.00  0.00     0.198 C 
HETATM   17  O3  UNL     1      27.334   4.133  49.470  1.00  0.00    -0.385 OA
HETATM   18  C20 UNL     1      26.631   5.110  48.761  1.00  0.00     0.235 C 
HETATM   19  C21 UNL     1      25.715   5.792  49.757  1.00  0.00     0.474 C 
BRANCH  19  20
HETATM   20  N4  UNL     1      25.279   7.036  49.264  1.00  0.00     0.114 N 
HETATM   21  H21 UNL     1      26.009   7.420  48.603  1.00  0.00     0.315 HD
HETATM   22  H22 UNL     1      24.417   6.924  48.676  1.00  0.00     0.315 HD
ENDBRANCH  19  20
ENDBRANCH  13  14
ENDBRANCH  12  13
ENDBRANCH  11  12
ENDBRANCH  10  11
BRANCH   1  23
HETATM   23  O1  UNL     1      20.067   1.472  49.656  1.00  0.00    -0.353 OA
HETATM   24  C1  UNL     1      19.004   2.355  49.962  1.00  0.00     0.210 C 
ENDBRANCH   1  23
BRANCH   7  25
HETATM   25  C7  UNL     1      25.097   0.166  53.441  1.00  0.00    -0.005 A 
HETATM   26  C8  UNL     1      25.436   1.502  53.688  1.00  0.00     0.017 A 
HETATM   27  C9  UNL     1      26.720   1.992  53.772  1.00  0.00     0.045 A 
HETATM   28  C10 UNL     1      27.758   1.101  53.602  1.00  0.00     0.138 A 
HETATM   29  F1  UNL     1      29.047   1.473  53.664  1.00  0.00    -0.204 F 
HETATM   30  C11 UNL     1      27.469  -0.221  53.359  1.00  0.00     0.073 A 
HETATM   31 CL1  UNL     1      28.753  -1.407  53.132  1.00  0.00    -0.081 Cl
HETATM   32  C12 UNL     1      26.176  -0.670  53.282  1.00  0.00     0.041 A 
ENDBRANCH   7  25
TORSDOF 7
ENDMDL
MODEL 4
REMARK VINA RESULT:      -8.2      2.380      6.201
REMARK  7 active torsions:
REMARK  status: ('A' for Active; 'I' for Inactive)
REMARK    1  A    between atoms: O1_2  and  C2_3 
REMARK    2  A    between atoms: C6_9  and  C7_10 
REMARK    3  A    between atoms: C15_20  and  O2_21 
REMARK    4  A    between atoms: O2_21  and  C16_22 
REMARK    5  A    between atoms: C16_22  and  C17_23 
REMARK    6  A    between atoms: C17_23  and  N3_24 
REMARK    7  A    between atoms: C21_29  and  N4_30 
ROOT
HETATM    1  C2  UNL     1      22.289   3.573  49.490  1.00  0.00     0.103 A 
HETATM    2  C3  UNL     1      23.268   4.397  48.951  1.00  0.00     0.072 A 
HETATM    3  C4  UNL     1      24.587   4.203  49.306  1.00  0.00     0.073 A 
HETATM    4  N1  UNL     1      25.593   4.933  48.835  1.00  0.00    -0.241 NA
HETATM    5  C5  UNL     1      26.871   4.689  49.215  1.00  0.00     0.234 A 
HETATM    6  N2  UNL     1      27.117   3.693  50.080  1.00  0.00    -0.240 NA
HETATM    7  C6  UNL     1      26.136   2.905  50.602  1.00  0.00     0.081 A 
HETATM    8  C13 UNL     1      24.853   3.185  50.189  1.00  0.00     0.025 A 
HETATM    9  C14 UNL     1      23.896   2.369  50.725  1.00  0.00     0.055 A 
HETATM   10  C15 UNL     1      22.581   2.546  50.385  1.00  0.00     0.103 A 
ENDROOT
BRANCH  10  11
HETATM   11  O2  UNL     1      21.522   1.766  50.875  1.00  0.00    -0.347 OA
BRANCH  11  12
HETATM   12  C16 UNL     1      21.092   2.023  52.181  1.00  0.00     0.206 C 
BRANCH  12  13
HETATM   13  C17 UNL     1      21.603   1.138  53.251  1.00  0.00     0.302 C 
BRANCH  13  14
HETATM   14  N3  UNL     1      21.778  -0.241  53.005  1.00  0.00     0.128 N 
HETATM   15  C18 UNL     1      23.216  -0.572  52.873  1.00  0.00     0.301 C 
HETATM   16  C19 UNL     1      23.867  -0.680  54.210  1.00  0.00     0.198 C 
HETATM   17  O3  UNL     1      23.147  -1.292  55.198  1.00  0.00    -0.385 OA
HETATM   18  C20 UNL     1      21.801  -0.924  55.269  1.00  0.00     0.235 C 
HETATM   19  C21 UNL     1      21.208  -1.189  53.898  1.00  0.00     0.474 C 
BRANCH  19  20
HETATM   20  N4  UNL     1      19.804  -1.252  53.966  1.00  0.00     0.114 N 
HETATM   21  H21 UNL     1      19.525  -1.945  54.714  1.00  0.00     0.315 HD
HETATM   22  H22 UNL     1      19.403  -0.336  54.284  1.00  0.00     0.315 HD
ENDBRANCH  19  20
ENDBRANCH  13  14
ENDBRANCH  12  13
ENDBRANCH  11  12
ENDBRANCH  10  11
BRANCH   1  23
HETATM   23  O1  UNL     1      20.963   3.764  49.136  1.00  0.00    -0.353 OA
HETATM   24  C1  UNL     1      20.202   4.832  49.671  1.00  0.00     0.210 C 
ENDBRANCH   1  23
BRANCH   7  25
HETATM   25  C7  UNL     1      26.635   1.890  51.512  1.00  0.00    -0.005 A 
HETATM   26  C8  UNL     1      27.351   2.381  52.611  1.00  0.00     0.017 A 
HETATM   27  C9  UNL     1      27.900   1.609  53.609  1.00  0.00     0.045 A 
HETATM   28  C10 UNL     1      27.734   0.243  53.527  1.00  0.00     0.138 A 
HETATM   29  F1  UNL     1      28.229  -0.603  54.446  1.00  0.00    -0.204 F 
HETATM   30  C11 UNL     1      27.036  -0.281  52.465  1.00  0.00     0.073 A 
HETATM   31 CL1  UNL     1      26.791  -2.019  52.303  1.00  0.00    -0.081 Cl
HETATM   32  C12 UNL     1      26.505   0.523  51.490  1.00  0.00     0.041 A 
ENDBRANCH   7  25
TORSDOF 7
ENDMDL
MODEL 5
REMARK VINA RESULT:      -8.1      1.432      1.768
REMARK  7 active torsions:
REMARK  status: ('A' for Active; 'I' for Inactive)
REMARK    1  A    between atoms: O1_2  and  C2_3 
REMARK    2  A    between atoms: C6_9  and  C7_10 
REMARK    3  A    between atoms: C15_20  and  O2_21 
REMARK    4  A    between atoms: O2_21  and  C16_22 
REMARK    5  A    between atoms: C16_22  and  C17_23 
REMARK    6  A    between atoms: C17_23  and  N3_24 
REMARK    7  A    between atoms: C21_29  and  N4_30 
ROOT
HETATM    1  C2  UNL     1      20.979   1.052  51.422  1.00  0.00     0.103 A 
HETATM    2  C3  UNL     1      20.634   0.243  52.497  1.00  0.00     0.072 A 
HETATM    3  C4  UNL     1      21.624  -0.238  53.328  1.00  0.00     0.073 A 
HETATM    4  N1  UNL     1      21.390  -1.009  54.386  1.00  0.00    -0.241 NA
HETATM    5  C5  UNL     1      22.405  -1.443  55.172  1.00  0.00     0.234 A 
HETATM    6  N2  UNL     1      23.663  -1.086  54.872  1.00  0.00    -0.240 NA
HETATM    7  C6  UNL     1      23.976  -0.299  53.805  1.00  0.00     0.081 A 
HETATM    8  C13 UNL     1      22.917   0.122  53.034  1.00  0.00     0.025 A 
HETATM    9  C14 UNL     1      23.266   0.918  51.979  1.00  0.00     0.055 A 
HETATM   10  C15 UNL     1      22.297   1.405  51.142  1.00  0.00     0.103 A 
ENDROOT
BRANCH  10  11
HETATM   11  O2  UNL     1      22.546   2.228  50.032  1.00  0.00    -0.347 OA
BRANCH  11  12
HETATM   12  C16 UNL     1      23.679   3.046  50.087  1.00  0.00     0.206 C 
BRANCH  12  13
HETATM   13  C17 UNL     1      23.504   4.415  50.619  1.00  0.00     0.302 C 
BRANCH  13  14
HETATM   14  N3  UNL     1      24.254   5.483  50.083  1.00  0.00     0.128 N 
HETATM   15  C18 UNL     1      24.035   5.598  48.622  1.00  0.00     0.301 C 
HETATM   16  C19 UNL     1      22.748   6.290  48.325  1.00  0.00     0.198 C 
HETATM   17  O3  UNL     1      22.426   7.357  49.116  1.00  0.00    -0.385 OA
HETATM   18  C20 UNL     1      22.650   7.175  50.483  1.00  0.00     0.235 C 
HETATM   19  C21 UNL     1      24.108   6.787  50.634  1.00  0.00     0.474 C 
BRANCH  19  20
HETATM   20  N4  UNL     1      24.542   6.982  51.958  1.00  0.00     0.114 N 
HETATM   21  H21 UNL     1      23.971   7.756  52.398  1.00  0.00     0.315 HD
HETATM   22  H22 UNL     1      24.344   6.135  52.545  1.00  0.00     0.315 HD
ENDBRANCH  19  20
ENDBRANCH  13  14
ENDBRANCH  12  13
ENDBRANCH  11  12
ENDBRANCH  10  11
BRANCH   1  23
HETATM   23  O1  UNL     1      19.987   1.537  50.585  1.00  0.00    -0.353 OA
HETATM   24  C1  UNL     1      19.331   2.763  50.852  1.00  0.00     0.210 C 
ENDBRANCH   1  23
BRANCH   7  25
HETATM   25  C7  UNL     1      25.399  -0.039  53.677  1.00  0.00    -0.005 A 
HETATM   26  C8  UNL     1      25.772   1.303  53.828  1.00  0.00     0.017 A 
HETATM   27  C9  UNL     1      27.062   1.779  53.765  1.00  0.00     0.045 A 
HETATM   28  C10 UNL     1      28.070   0.869  53.535  1.00  0.00     0.138 A 
HETATM   29  F1  UNL     1      29.363   1.226  53.454  1.00  0.00    -0.204 F 
HETATM   30  C11 UNL     1      27.748  -0.459  53.382  1.00  0.00     0.073 A 
HETATM   31 CL1  UNL     1      28.993  -1.670  53.086  1.00  0.00    -0.081 Cl
HETATM   32  C12 UNL     1      26.450  -0.894  53.452  1.00  0.00     0.041 A 
ENDBRANCH   7  25
TORSDOF 7
ENDMDL
MODEL 6
REMARK VINA RESULT:      -7.9      3.690      7.321
REMARK  7 active torsions:
REMARK  status: ('A' for Active; 'I' for Inactive)
REMARK    1  A    between atoms: O1_2  and  C2_3 
REMARK    2  A    between atoms: C6_9  and  C7_10 
REMARK    3  A    between atoms: C15_20  and  O2_21 
REMARK    4  A    between atoms: O2_21  and  C16_22 
REMARK    5  A    between atoms: C16_22  and  C17_23 
REMARK    6  A    between atoms: C17_23  and  N3_24 
REMARK    7  A    between atoms: C21_29  and  N4_30 
ROOT
HETATM    1  C2  UNL     1      25.063   3.618  50.046  1.00  0.00     0.103 A 
HETATM    2  C3  UNL     1      24.208   3.628  48.952  1.00  0.00     0.072 A 
HETATM    3  C4  UNL     1      23.043   2.891  48.996  1.00  0.00     0.073 A 
HETATM    4  N1  UNL     1      22.160   2.847  48.004  1.00  0.00    -0.241 NA
HETATM    5  C5  UNL     1      21.027   2.110  48.109  1.00  0.00     0.234 A 
HETATM    6  N2  UNL     1      20.800   1.418  49.236  1.00  0.00    -0.240 NA
HETATM    7  C6  UNL     1      21.660   1.418  50.292  1.00  0.00     0.081 A 
HETATM    8  C13 UNL     1      22.797   2.179  50.145  1.00  0.00     0.025 A 
HETATM    9  C14 UNL     1      23.632   2.163  51.227  1.00  0.00     0.055 A 
HETATM   10  C15 UNL     1      24.794   2.888  51.202  1.00  0.00     0.103 A 
ENDROOT
BRANCH  10  11
HETATM   11  O2  UNL     1      25.720   2.942  52.256  1.00  0.00    -0.347 OA
BRANCH  11  12
HETATM   12  C16 UNL     1      26.964   2.341  52.043  1.00  0.00     0.206 C 
BRANCH  12  13
HETATM   13  C17 UNL     1      27.022   0.863  52.091  1.00  0.00     0.302 C 
BRANCH  13  14
HETATM   14  N3  UNL     1      26.740   0.184  53.296  1.00  0.00     0.128 N 
HETATM   15  C18 UNL     1      26.002  -1.073  53.028  1.00  0.00     0.301 C 
HETATM   16  C19 UNL     1      26.927  -2.154  52.580  1.00  0.00     0.198 C 
HETATM   17  O3  UNL     1      28.135  -2.232  53.213  1.00  0.00    -0.385 OA
HETATM   18  C20 UNL     1      28.778  -1.009  53.423  1.00  0.00     0.235 C 
HETATM   19  C21 UNL     1      27.803  -0.134  54.186  1.00  0.00     0.474 C 
BRANCH  19  20
HETATM   20  N4  UNL     1      28.472   0.939  54.803  1.00  0.00     0.114 N 
HETATM   21  H21 UNL     1      28.538   1.744  54.119  1.00  0.00     0.315 HD
HETATM   22  H22 UNL     1      27.914   1.316  55.608  1.00  0.00     0.315 HD
ENDBRANCH  19  20
ENDBRANCH  13  14
ENDBRANCH  12  13
ENDBRANCH  11  12
ENDBRANCH  10  11
BRANCH   1  23
HETATM   23  O1  UNL     1      26.235   4.357  50.006  1.00  0.00    -0.353 OA
HETATM   24  C1  UNL     1      26.464   5.321  48.994  1.00  0.00     0.210 C 
ENDBRANCH   1  23
BRANCH   7  25
HETATM   25  C7  UNL     1      21.208   0.601  51.404  1.00  0.00    -0.005 A 
HETATM   26  C8  UNL     1      19.826   0.374  51.449  1.00  0.00     0.017 A 
HETATM   27  C9  UNL     1      19.178  -0.381  52.400  1.00  0.00     0.045 A 
HETATM   28  C10 UNL     1      19.943  -0.964  53.386  1.00  0.00     0.138 A 
HETATM   29  F1  UNL     1      19.412  -1.720  54.361  1.00  0.00    -0.204 F 
HETATM   30  C11 UNL     1      21.304  -0.768  53.379  1.00  0.00     0.073 A 
HETATM   31 CL1  UNL     1      22.335  -1.487  54.614  1.00  0.00    -0.081 Cl
HETATM   32  C12 UNL     1      21.913  -0.008  52.414  1.00  0.00     0.041 A 
ENDBRANCH   7  25
TORSDOF 7
ENDMDL
MODEL 7
REMARK VINA RESULT:      -7.8      3.553      8.141
REMARK  7 active torsions:
REMARK  status: ('A' for Active; 'I' for Inactive)
REMARK    1  A    between atoms: O1_2  and  C2_3 
REMARK    2  A    between atoms: C6_9  and  C7_10 
REMARK    3  A    between atoms: C15_20  and  O2_21 
REMARK    4  A    between atoms: O2_21  and  C16_22 
REMARK    5  A    between atoms: C16_22  and  C17_23 
REMARK    6  A    between atoms: C17_23  and  N3_24 
REMARK    7  A    between atoms: C21_29  and  N4_30 
ROOT
HETATM    1  C2  UNL     1      23.791   4.866  49.753  1.00  0.00     0.103 A 
HETATM    2  C3  UNL     1      23.366   5.803  48.820  1.00  0.00     0.072 A 
HETATM    3  C4  UNL     1      24.298   6.598  48.185  1.00  0.00     0.073 A 
HETATM    4  N1  UNL     1      23.988   7.513  47.272  1.00  0.00    -0.241 NA
HETATM    5  C5  UNL     1      24.950   8.259  46.676  1.00  0.00     0.234 A 
HETATM    6  N2  UNL     1      26.233   8.064  47.017  1.00  0.00    -0.240 NA
HETATM    7  C6  UNL     1      26.623   7.145  47.943  1.00  0.00     0.081 A 
HETATM    8  C13 UNL     1      25.616   6.408  48.524  1.00  0.00     0.025 A 
HETATM    9  C14 UNL     1      26.043   5.488  49.440  1.00  0.00     0.055 A 
HETATM   10  C15 UNL     1      25.134   4.690  50.081  1.00  0.00     0.103 A 
ENDROOT
BRANCH  10  11
HETATM   11  O2  UNL     1      25.465   3.717  51.036  1.00  0.00    -0.347 OA
BRANCH  11  12
HETATM   12  C16 UNL     1      26.462   2.798  50.692  1.00  0.00     0.206 C 
BRANCH  12  13
HETATM   13  C17 UNL     1      26.530   1.545  51.475  1.00  0.00     0.302 C 
BRANCH  13  14
HETATM   14  N3  UNL     1      26.122   1.531  52.826  1.00  0.00     0.128 N 
HETATM   15  C18 UNL     1      25.183   0.414  53.079  1.00  0.00     0.301 C 
HETATM   16  C19 UNL     1      25.913  -0.877  53.237  1.00  0.00     0.198 C 
HETATM   17  O3  UNL     1      27.083  -0.839  53.942  1.00  0.00    -0.385 OA
HETATM   18  C20 UNL     1      27.924   0.237  53.645  1.00  0.00     0.235 C 
HETATM   19  C21 UNL     1      27.105   1.495  53.854  1.00  0.00     0.474 C 
BRANCH  19  20
HETATM   20  N4  UNL     1      27.941   2.619  53.988  1.00  0.00     0.114 N 
HETATM   21  H21 UNL     1      28.831   2.454  53.440  1.00  0.00     0.315 HD
HETATM   22  H22 UNL     1      27.506   3.465  53.545  1.00  0.00     0.315 HD
ENDBRANCH  19  20
ENDBRANCH  13  14
ENDBRANCH  12  13
ENDBRANCH  11  12
ENDBRANCH  10  11
BRANCH   1  23
HETATM   23  O1  UNL     1      22.858   4.065  50.392  1.00  0.00    -0.353 OA
HETATM   24  C1  UNL     1      22.037   4.572  51.428  1.00  0.00     0.210 C 
ENDBRANCH   1  23
BRANCH   7  25
HETATM   25  C7  UNL     1      28.060   7.107  48.150  1.00  0.00    -0.005 A 
HETATM   26  C8  UNL     1      28.606   8.259  48.728  1.00  0.00     0.017 A 
HETATM   27  C9  UNL     1      29.936   8.441  49.031  1.00  0.00     0.045 A 
HETATM   28  C10 UNL     1      30.804   7.410  48.745  1.00  0.00     0.138 A 
HETATM   29  F1  UNL     1      32.121   7.481  48.999  1.00  0.00    -0.204 F 
HETATM   30  C11 UNL     1      30.310   6.259  48.177  1.00  0.00     0.073 A 
HETATM   31 CL1  UNL     1      31.370   4.906  47.788  1.00  0.00    -0.081 Cl
HETATM   32  C12 UNL     1      28.977   6.117  47.890  1.00  0.00     0.041 A 
ENDBRANCH   7  25
TORSDOF 7
ENDMDL
MODEL 8
REMARK VINA RESULT:      -7.8      3.793      8.314
REMARK  7 active torsions:
REMARK  status: ('A' for Active; 'I' for Inactive)
REMARK    1  A    between atoms: O1_2  and  C2_3 
REMARK    2  A    between atoms: C6_9  and  C7_10 
REMARK    3  A    between atoms: C15_20  and  O2_21 
REMARK    4  A    between atoms: O2_21  and  C16_22 
REMARK    5  A    between atoms: C16_22  and  C17_23 
REMARK    6  A    between atoms: C17_23  and  N3_24 
REMARK    7  A    between atoms: C21_29  and  N4_30 
ROOT
HETATM    1  C2  UNL     1      26.879   4.889  49.069  1.00  0.00     0.103 A 
HETATM    2  C3  UNL     1      26.173   5.922  48.466  1.00  0.00     0.072 A 
HETATM    3  C4  UNL     1      24.801   5.974  48.601  1.00  0.00     0.073 A 
HETATM    4  N1  UNL     1      24.043   6.928  48.069  1.00  0.00    -0.241 NA
HETATM    5  C5  UNL     1      22.699   6.931  48.244  1.00  0.00     0.234 A 
HETATM    6  N2  UNL     1      22.132   5.952  48.966  1.00  0.00    -0.240 NA
HETATM    7  C6  UNL     1      22.846   4.944  49.540  1.00  0.00     0.081 A 
HETATM    8  C13 UNL     1      24.207   4.979  49.340  1.00  0.00     0.025 A 
HETATM    9  C14 UNL     1      24.894   3.960  49.937  1.00  0.00     0.055 A 
HETATM   10  C15 UNL     1      26.256   3.891  49.814  1.00  0.00     0.103 A 
ENDROOT
BRANCH  10  11
HETATM   11  O2  UNL     1      27.056   2.888  50.386  1.00  0.00    -0.347 OA
BRANCH  11  12
HETATM   12  C16 UNL     1      26.495   2.142  51.427  1.00  0.00     0.206 C 
BRANCH  12  13
HETATM   13  C17 UNL     1      27.383   1.198  52.141  1.00  0.00     0.302 C 
BRANCH  13  14
HETATM   14  N3  UNL     1      26.940   0.568  53.324  1.00  0.00     0.128 N 
HETATM   15  C18 UNL     1      26.071  -0.589  53.009  1.00  0.00     0.301 C 
HETATM   16  C19 UNL     1      26.881  -1.780  52.621  1.00  0.00     0.198 C 
HETATM   17  O3  UNL     1      28.027  -2.002  53.333  1.00  0.00    -0.385 OA
HETATM   18  C20 UNL     1      28.802  -0.867  53.585  1.00  0.00     0.235 C 
HETATM   19  C21 UNL     1      27.895   0.128  54.282  1.00  0.00     0.474 C 
BRANCH  19  20
HETATM   20  N4  UNL     1      28.651   1.115  54.942  1.00  0.00     0.114 N 
HETATM   21  H21 UNL     1      29.660   0.802  54.989  1.00  0.00     0.315 HD
HETATM   22  H22 UNL     1      28.672   2.005  54.386  1.00  0.00     0.315 HD
ENDBRANCH  19  20
ENDBRANCH  13  14
ENDBRANCH  12  13
ENDBRANCH  11  12
ENDBRANCH  10  11
BRANCH   1  23
HETATM   23  O1  UNL     1      28.257   4.834  48.936  1.00  0.00    -0.353 OA
HETATM   24  C1  UNL     1      28.967   5.811  48.196  1.00  0.00     0.210 C 
ENDBRANCH   1  23
BRANCH   7  25
HETATM   25  C7  UNL     1      22.025   4.001  50.276  1.00  0.00    -0.005 A 
HETATM   26  C8  UNL     1      21.108   4.580  51.163  1.00  0.00     0.017 A 
HETATM   27  C9  UNL     1      20.218   3.884  51.950  1.00  0.00     0.045 A 
HETATM   28  C10 UNL     1      20.225   2.509  51.862  1.00  0.00     0.138 A 
HETATM   29  F1  UNL     1      19.399   1.734  52.585  1.00  0.00    -0.204 F 
HETATM   30  C11 UNL     1      21.108   1.900  51.003  1.00  0.00     0.073 A 
HETATM   31 CL1  UNL     1      21.165   0.145  50.847  1.00  0.00    -0.081 Cl
HETATM   32  C12 UNL     1      21.980   2.628  50.236  1.00  0.00     0.041 A 
ENDBRANCH   7  25
TORSDOF 7
ENDMDL
MODEL 9
REMARK VINA RESULT:      -7.7      3.769      5.914
REMARK  7 active torsions:
REMARK  status: ('A' for Active; 'I' for Inactive)
REMARK    1  A    between atoms: O1_2  and  C2_3 
REMARK    2  A    between atoms: C6_9  and  C7_10 
REMARK    3  A    between atoms: C15_20  and  O2_21 
REMARK    4  A    between atoms: O2_21  and  C16_22 
REMARK    5  A    between atoms: C16_22  and  C17_23 
REMARK    6  A    between atoms: C17_23  and  N3_24 
REMARK    7  A    between atoms: C21_29  and  N4_30 
ROOT
HETATM    1  C2  UNL     1      25.613   1.233  52.302  1.00  0.00     0.103 A 
HETATM    2  C3  UNL     1      25.333   0.311  53.302  1.00  0.00     0.072 A 
HETATM    3  C4  UNL     1      24.020  -0.016  53.573  1.00  0.00     0.073 A 
HETATM    4  N1  UNL     1      23.656  -0.894  54.503  1.00  0.00    -0.241 NA
HETATM    5  C5  UNL     1      22.349  -1.182  54.718  1.00  0.00     0.234 A 
HETATM    6  N2  UNL     1      21.414  -0.566  53.977  1.00  0.00    -0.240 NA
HETATM    7  C6  UNL     1      21.715   0.343  53.009  1.00  0.00     0.081 A 
HETATM    8  C13 UNL     1      23.053   0.605  52.821  1.00  0.00     0.025 A 
HETATM    9  C14 UNL     1      23.319   1.513  51.835  1.00  0.00     0.055 A 
HETATM   10  C15 UNL     1      24.615   1.851  51.551  1.00  0.00     0.103 A 
ENDROOT
BRANCH  10  11
HETATM   11  O2  UNL     1      24.998   2.770  50.562  1.00  0.00    -0.347 OA
BRANCH  11  12
HETATM   12  C16 UNL     1      23.975   3.391  49.838  1.00  0.00     0.206 C 
BRANCH  12  13
HETATM   13  C17 UNL     1      24.085   4.850  49.621  1.00  0.00     0.302 C 
BRANCH  13  14
HETATM   14  N3  UNL     1      25.203   5.556  50.114  1.00  0.00     0.128 N 
HETATM   15  C18 UNL     1      26.204   5.768  49.043  1.00  0.00     0.301 C 
HETATM   16  C19 UNL     1      25.814   6.907  48.162  1.00  0.00     0.198 C 
HETATM   17  O3  UNL     1      25.276   8.003  48.775  1.00  0.00    -0.385 OA
HETATM   18  C20 UNL     1      24.333   7.728  49.768  1.00  0.00     0.235 C 
HETATM   19  C21 UNL     1      25.011   6.807  50.764  1.00  0.00     0.474 C 
BRANCH  19  20
HETATM   20  N4  UNL     1      24.319   6.800  51.989  1.00  0.00     0.114 N 
HETATM   21  H21 UNL     1      24.427   5.850  52.441  1.00  0.00     0.315 HD
HETATM   22  H22 UNL     1      24.752   7.472  52.668  1.00  0.00     0.315 HD
ENDBRANCH  19  20
ENDBRANCH  13  14
ENDBRANCH  12  13
ENDBRANCH  11  12
ENDBRANCH  10  11
BRANCH   1  23
HETATM   23  O1  UNL     1      26.930   1.564  52.026  1.00  0.00    -0.353 OA
HETATM   24  C1  UNL     1      27.955   1.374  52.985  1.00  0.00     0.210 C 
ENDBRANCH   1  23
BRANCH   7  25
HETATM   25  C7  UNL     1      20.545   0.876  52.334  1.00  0.00    -0.005 A 
HETATM   26  C8  UNL     1      20.334   2.250  52.512  1.00  0.00     0.017 A 
HETATM   27  C9  UNL     1      19.303   2.972  51.955  1.00  0.00     0.045 A 
HETATM   28  C10 UNL     1      18.405   2.296  51.159  1.00  0.00     0.138 A 
HETATM   29  F1  UNL     1      17.362   2.903  50.568  1.00  0.00    -0.204 F 
HETATM   30  C11 UNL     1      18.575   0.947  50.957  1.00  0.00     0.073 A 
HETATM   31 CL1  UNL     1      17.459   0.028  49.950  1.00  0.00    -0.081 Cl
HETATM   32  C12 UNL     1      19.616   0.263  51.530  1.00  0.00     0.041 A 
ENDBRANCH   7  25
TORSDOF 7
ENDMDL
