MODEL 1
REMARK VINA RESULT:      -6.8      0.000      0.000
REMARK  8 active torsions:
REMARK  status: ('A' for Active; 'I' for Inactive)
REMARK    1  A    between atoms: O1_1  and  C1_2 
REMARK    2  A    between atoms: C1_2  and  C2_3 
REMARK    3  A    between atoms: C1_2  and  N2_16 
REMARK    4  A    between atoms: C5_6  and  N1_7 
REMARK    5  A    between atoms: N1_7  and  C6_8 
REMARK    6  A    between atoms: N1_7  and  C8_11 
REMARK    7  A    between atoms: C6_8  and  C7_9 
REMARK    8  A    between atoms: C8_11  and  C9_12 
ROOT
HETATM    1  C2  UNL     1      26.027   2.248  52.618  1.00  0.00    -0.010 A 
HETATM    2  C3  UNL     1      26.528   2.506  51.355  1.00  0.00     0.014 A 
HETATM    3  C4  UNL     1      25.665   2.919  50.381  1.00  0.00     0.030 A 
HETATM    4  C5  UNL     1      24.309   3.120  50.499  1.00  0.00     0.030 A 
HETATM    5  C10 UNL     1      23.855   2.852  51.770  1.00  0.00     0.030 A 
HETATM    6  C11 UNL     1      24.656   2.431  52.809  1.00  0.00     0.014 A 
ENDROOT
BRANCH   1   7
HETATM    7  C1  UNL     1      26.892   1.805  53.736  1.00  0.00     0.255 C 
BRANCH   7   8
HETATM    8  O1  UNL     1      27.800   2.811  54.140  1.00  0.00    -0.372 OA
HETATM    9  H1  UNL     1      28.706   2.438  53.938  1.00  0.00     0.212 HD
ENDBRANCH   7   8
BRANCH   7  10
HETATM   10  N2  UNL     1      27.561   0.550  53.513  1.00  0.00    -0.339 N 
HETATM   11  C12 UNL     1      28.950   0.390  53.743  1.00  0.00     0.090 A 
HETATM   12  C13 UNL     1      29.624  -0.751  53.560  1.00  0.00     0.017 A 
HETATM   13  C14 UNL     1      28.820  -1.873  53.091  1.00  0.00     0.001 A 
HETATM   14  C15 UNL     1      27.509  -1.811  52.848  1.00  0.00     0.014 A 
HETATM   15  C16 UNL     1      26.768  -0.566  53.044  1.00  0.00     0.207 A 
HETATM   16 CL3  UNL     1      25.514  -0.813  54.303  1.00  0.00    -0.098 Cl
ENDBRANCH   7  10
ENDBRANCH   1   7
BRANCH   4  17
HETATM   17  N1  UNL     1      23.430   3.540  49.444  1.00  0.00    -0.379 N 
BRANCH  17  18
HETATM   18  C6  UNL     1      23.021   4.913  49.391  1.00  0.00     0.138 C 
BRANCH  18  19
HETATM   19  C7  UNL     1      23.603   5.764  48.322  1.00  0.00     0.134 C 
HETATM   20 CL1  UNL     1      25.305   6.099  48.614  1.00  0.00    -0.129 Cl
ENDBRANCH  18  19
ENDBRANCH  17  18
BRANCH  17  21
HETATM   21  C8  UNL     1      22.930   2.608  48.460  1.00  0.00     0.138 C 
BRANCH  21  22
HETATM   22  C9  UNL     1      21.477   2.250  48.758  1.00  0.00     0.134 C 
HETATM   23 CL2  UNL     1      21.529   0.777  49.788  1.00  0.00    -0.129 Cl
ENDBRANCH  21  22
ENDBRANCH  17  21
ENDBRANCH   4  17
TORSDOF 8
ENDMDL
MODEL 2
REMARK VINA RESULT:      -6.7      0.723      2.489
REMARK  8 active torsions:
REMARK  status: ('A' for Active; 'I' for Inactive)
REMARK    1  A    between atoms: O1_1  and  C1_2 
REMARK    2  A    between atoms: C1_2  and  C2_3 
REMARK    3  A    between atoms: C1_2  and  N2_16 
REMARK    4  A    between atoms: C5_6  and  N1_7 
REMARK    5  A    between atoms: N1_7  and  C6_8 
REMARK    6  A    between atoms: N1_7  and  C8_11 
REMARK    7  A    between atoms: C6_8  and  C7_9 
REMARK    8  A    between atoms: C8_11  and  C9_12 
ROOT
HETATM    1  C2  UNL     1      26.062   2.246  52.741  1.00  0.00    -0.010 A 
HETATM    2  C3  UNL     1      26.477   2.464  51.439  1.00  0.00     0.014 A 
HETATM    3  C4  UNL     1      25.559   2.891  50.523  1.00  0.00     0.030 A 
HETATM    4  C5  UNL     1      24.223   3.143  50.737  1.00  0.00     0.030 A 
HETATM    5  C10 UNL     1      23.856   2.913  52.043  1.00  0.00     0.030 A 
HETATM    6  C11 UNL     1      24.717   2.482  53.029  1.00  0.00     0.014 A 
ENDROOT
BRANCH   1   7
HETATM    7  C1  UNL     1      26.992   1.790  53.801  1.00  0.00     0.255 C 
BRANCH   7   8
HETATM    8  O1  UNL     1      27.951   2.777  54.130  1.00  0.00    -0.372 OA
HETATM    9  H1  UNL     1      27.836   2.932  55.111  1.00  0.00     0.212 HD
ENDBRANCH   7   8
BRANCH   7  10
HETATM   10  N2  UNL     1      27.612   0.517  53.545  1.00  0.00    -0.339 N 
HETATM   11  C12 UNL     1      29.002   0.310  53.729  1.00  0.00     0.090 A 
HETATM   12  C13 UNL     1      29.633  -0.850  53.514  1.00  0.00     0.017 A 
HETATM   13  C14 UNL     1      28.777  -1.941  53.062  1.00  0.00     0.001 A 
HETATM   14  C15 UNL     1      27.462  -1.834  52.862  1.00  0.00     0.014 A 
HETATM   15  C16 UNL     1      26.768  -0.569  53.092  1.00  0.00     0.207 A 
HETATM   16 CL3  UNL     1      25.548  -0.787  54.389  1.00  0.00    -0.098 Cl
ENDBRANCH   7  10
ENDBRANCH   1   7
BRANCH   4  17
HETATM   17  N1  UNL     1      23.283   3.577  49.742  1.00  0.00    -0.379 N 
BRANCH  17  18
HETATM   18  C6  UNL     1      23.014   2.720  48.625  1.00  0.00     0.138 C 
BRANCH  18  19
HETATM   19  C7  UNL     1      21.687   2.057  48.569  1.00  0.00     0.134 C 
HETATM   20 CL1  UNL     1      21.547   0.782  49.773  1.00  0.00    -0.129 Cl
ENDBRANCH  18  19
ENDBRANCH  17  18
BRANCH  17  21
HETATM   21  C8  UNL     1      22.629   4.862  49.829  1.00  0.00     0.138 C 
BRANCH  21  22
HETATM   22  C9  UNL     1      23.635   5.986  49.600  1.00  0.00     0.134 C 
HETATM   23 CL2  UNL     1      23.993   6.672  51.224  1.00  0.00    -0.129 Cl
ENDBRANCH  21  22
ENDBRANCH  17  21
ENDBRANCH   4  17
TORSDOF 8
ENDMDL
MODEL 3
REMARK VINA RESULT:      -6.3      2.330      3.338
REMARK  8 active torsions:
REMARK  status: ('A' for Active; 'I' for Inactive)
REMARK    1  A    between atoms: O1_1  and  C1_2 
REMARK    2  A    between atoms: C1_2  and  C2_3 
REMARK    3  A    between atoms: C1_2  and  N2_16 
REMARK    4  A    between atoms: C5_6  and  N1_7 
REMARK    5  A    between atoms: N1_7  and  C6_8 
REMARK    6  A    between atoms: N1_7  and  C8_11 
REMARK    7  A    between atoms: C6_8  and  C7_9 
REMARK    8  A    between atoms: C8_11  and  C9_12 
ROOT
HETATM    1  C2  UNL     1      24.638   0.017  53.055  1.00  0.00    -0.010 A 
HETATM    2  C3  UNL     1      23.263  -0.004  53.197  1.00  0.00     0.014 A 
HETATM    3  C4  UNL     1      22.515   0.854  52.443  1.00  0.00     0.030 A 
HETATM    4  C5  UNL     1      22.971   1.772  51.525  1.00  0.00     0.030 A 
HETATM    5  C10 UNL     1      24.342   1.758  51.417  1.00  0.00     0.030 A 
HETATM    6  C11 UNL     1      25.171   0.926  52.139  1.00  0.00     0.014 A 
ENDROOT
BRANCH   1   7
HETATM    7  C1  UNL     1      25.527  -0.884  53.826  1.00  0.00     0.255 C 
BRANCH   7   8
HETATM    8  O1  UNL     1      25.032  -1.136  55.127  1.00  0.00    -0.372 OA
HETATM    9  H1  UNL     1      24.150  -1.584  54.986  1.00  0.00     0.212 HD
ENDBRANCH   7   8
BRANCH   7  10
HETATM   10  N2  UNL     1      26.908  -0.479  53.856  1.00  0.00    -0.339 N 
HETATM   11  C12 UNL     1      27.432   0.318  54.904  1.00  0.00     0.090 A 
HETATM   12  C13 UNL     1      28.706   0.719  54.990  1.00  0.00     0.017 A 
HETATM   13  C14 UNL     1      29.566   0.274  53.900  1.00  0.00     0.001 A 
HETATM   14  C15 UNL     1      29.156  -0.476  52.875  1.00  0.00     0.014 A 
HETATM   15  C16 UNL     1      27.766  -0.915  52.775  1.00  0.00     0.207 A 
HETATM   16 CL3  UNL     1      27.703  -2.707  52.821  1.00  0.00    -0.098 Cl
ENDBRANCH   7  10
ENDBRANCH   1   7
BRANCH   4  17
HETATM   17  N1  UNL     1      22.151   2.671  50.761  1.00  0.00    -0.379 N 
BRANCH  17  18
HETATM   18  C6  UNL     1      21.142   2.125  49.902  1.00  0.00     0.138 C 
BRANCH  18  19
HETATM   19  C7  UNL     1      21.576   1.176  48.847  1.00  0.00     0.134 C 
HETATM   20 CL1  UNL     1      22.551   1.971  47.618  1.00  0.00    -0.129 Cl
ENDBRANCH  18  19
ENDBRANCH  17  18
BRANCH  17  21
HETATM   21  C8  UNL     1      22.342   4.102  50.819  1.00  0.00     0.138 C 
BRANCH  21  22
HETATM   22  C9  UNL     1      22.004   4.626  52.212  1.00  0.00     0.134 C 
HETATM   23 CL2  UNL     1      23.579   4.880  53.043  1.00  0.00    -0.129 Cl
ENDBRANCH  21  22
ENDBRANCH  17  21
ENDBRANCH   4  17
TORSDOF 8
ENDMDL
MODEL 4
REMARK VINA RESULT:      -6.2      2.026      2.386
REMARK  8 active torsions:
REMARK  status: ('A' for Active; 'I' for Inactive)
REMARK    1  A    between atoms: O1_1  and  C1_2 
REMARK    2  A    between atoms: C1_2  and  C2_3 
REMARK    3  A    between atoms: C1_2  and  N2_16 
REMARK    4  A    between atoms: C5_6  and  N1_7 
REMARK    5  A    between atoms: N1_7  and  C6_8 
REMARK    6  A    between atoms: N1_7  and  C8_11 
REMARK    7  A    between atoms: C6_8  and  C7_9 
REMARK    8  A    between atoms: C8_11  and  C9_12 
ROOT
HETATM    1  C2  UNL     1      24.864   0.893  52.545  1.00  0.00    -0.010 A 
HETATM    2  C3  UNL     1      25.671   1.621  51.689  1.00  0.00     0.014 A 
HETATM    3  C4  UNL     1      25.171   2.762  51.132  1.00  0.00     0.030 A 
HETATM    4  C5  UNL     1      23.920   3.303  51.321  1.00  0.00     0.030 A 
HETATM    5  C10 UNL     1      23.153   2.548  52.178  1.00  0.00     0.030 A 
HETATM    6  C11 UNL     1      23.579   1.385  52.782  1.00  0.00     0.014 A 
ENDROOT
BRANCH   1   7
HETATM    7  C1  UNL     1      25.328  -0.352  53.201  1.00  0.00     0.255 C 
BRANCH   7   8
HETATM    8  O1  UNL     1      24.500  -0.723  54.288  1.00  0.00    -0.372 OA
HETATM    9  H1  UNL     1      25.115  -1.166  54.941  1.00  0.00     0.212 HD
ENDBRANCH   7   8
BRANCH   7  10
HETATM   10  N2  UNL     1      26.718  -0.349  53.574  1.00  0.00    -0.339 N 
HETATM   11  C12 UNL     1      27.165   0.215  54.794  1.00  0.00     0.090 A 
HETATM   12  C13 UNL     1      28.441   0.241  55.197  1.00  0.00     0.017 A 
HETATM   13  C14 UNL     1      29.390  -0.370  54.275  1.00  0.00     0.001 A 
HETATM   14  C15 UNL     1      29.056  -0.923  53.107  1.00  0.00     0.014 A 
HETATM   15  C16 UNL     1      27.665  -0.952  52.661  1.00  0.00     0.207 A 
HETATM   16 CL3  UNL     1      27.132  -2.656  52.488  1.00  0.00    -0.098 Cl
ENDBRANCH   7  10
ENDBRANCH   1   7
BRANCH   4  17
HETATM   17  N1  UNL     1      23.423   4.501  50.702  1.00  0.00    -0.379 N 
BRANCH  17  18
HETATM   18  C6  UNL     1      23.724   4.742  49.322  1.00  0.00     0.138 C 
BRANCH  18  19
HETATM   19  C7  UNL     1      24.651   5.856  49.003  1.00  0.00     0.134 C 
HETATM   20 CL1  UNL     1      26.311   5.296  48.849  1.00  0.00    -0.129 Cl
ENDBRANCH  18  19
ENDBRANCH  17  18
BRANCH  17  21
HETATM   21  C8  UNL     1      22.657   5.474  51.446  1.00  0.00     0.138 C 
BRANCH  21  22
HETATM   22  C9  UNL     1      21.319   5.732  50.760  1.00  0.00     0.134 C 
HETATM   23 CL2  UNL     1      20.244   4.371  51.237  1.00  0.00    -0.129 Cl
ENDBRANCH  21  22
ENDBRANCH  17  21
ENDBRANCH   4  17
TORSDOF 8
ENDMDL
MODEL 5
REMARK VINA RESULT:      -6.0      2.201      3.270
REMARK  8 active torsions:
REMARK  status: ('A' for Active; 'I' for Inactive)
REMARK    1  A    between atoms: O1_1  and  C1_2 
REMARK    2  A    between atoms: C1_2  and  C2_3 
REMARK    3  A    between atoms: C1_2  and  N2_16 
REMARK    4  A    between atoms: C5_6  and  N1_7 
REMARK    5  A    between atoms: N1_7  and  C6_8 
REMARK    6  A    between atoms: N1_7  and  C8_11 
REMARK    7  A    between atoms: C6_8  and  C7_9 
REMARK    8  A    between atoms: C8_11  and  C9_12 
ROOT
HETATM    1  C2  UNL     1      24.744   1.097  52.538  1.00  0.00    -0.010 A 
HETATM    2  C3  UNL     1      25.476   1.822  51.615  1.00  0.00     0.014 A 
HETATM    3  C4  UNL     1      24.991   3.028  51.198  1.00  0.00     0.030 A 
HETATM    4  C5  UNL     1      23.824   3.639  51.594  1.00  0.00     0.030 A 
HETATM    5  C10 UNL     1      23.129   2.885  52.512  1.00  0.00     0.030 A 
HETATM    6  C11 UNL     1      23.546   1.659  52.984  1.00  0.00     0.014 A 
ENDROOT
BRANCH   1   7
HETATM    7  C1  UNL     1      25.198  -0.216  53.052  1.00  0.00     0.255 C 
BRANCH   7   8
HETATM    8  O1  UNL     1      24.327  -0.733  54.040  1.00  0.00    -0.372 OA
HETATM    9  H1  UNL     1      23.610  -0.043  54.138  1.00  0.00     0.212 HD
ENDBRANCH   7   8
BRANCH   7  10
HETATM   10  N2  UNL     1      26.568  -0.245  53.491  1.00  0.00    -0.339 N 
HETATM   11  C12 UNL     1      26.969   0.311  54.730  1.00  0.00     0.090 A 
HETATM   12  C13 UNL     1      28.225   0.309  55.194  1.00  0.00     0.017 A 
HETATM   13  C14 UNL     1      29.203  -0.325  54.319  1.00  0.00     0.001 A 
HETATM   14  C15 UNL     1      28.913  -0.872  53.136  1.00  0.00     0.014 A 
HETATM   15  C16 UNL     1      27.544  -0.870  52.624  1.00  0.00     0.207 A 
HETATM   16 CL3  UNL     1      26.981  -2.562  52.426  1.00  0.00    -0.098 Cl
ENDBRANCH   7  10
ENDBRANCH   1   7
BRANCH   4  17
HETATM   17  N1  UNL     1      23.338   4.905  51.120  1.00  0.00    -0.379 N 
BRANCH  17  18
HETATM   18  C6  UNL     1      22.041   5.350  51.540  1.00  0.00     0.138 C 
BRANCH  18  19
HETATM   19  C7  UNL     1      20.965   5.396  50.519  1.00  0.00     0.134 C 
HETATM   20 CL1  UNL     1      20.591   3.794  49.897  1.00  0.00    -0.129 Cl
ENDBRANCH  18  19
ENDBRANCH  17  18
BRANCH  17  21
HETATM   21  C8  UNL     1      24.112   5.720  50.212  1.00  0.00     0.138 C 
BRANCH  21  22
HETATM   22  C9  UNL     1      24.558   7.006  50.901  1.00  0.00     0.134 C 
HETATM   23 CL2  UNL     1      23.608   8.332  50.143  1.00  0.00    -0.129 Cl
ENDBRANCH  21  22
ENDBRANCH  17  21
ENDBRANCH   4  17
TORSDOF 8
ENDMDL
MODEL 6
REMARK VINA RESULT:      -6.0      2.660      3.963
REMARK  8 active torsions:
REMARK  status: ('A' for Active; 'I' for Inactive)
REMARK    1  A    between atoms: O1_1  and  C1_2 
REMARK    2  A    between atoms: C1_2  and  C2_3 
REMARK    3  A    between atoms: C1_2  and  N2_16 
REMARK    4  A    between atoms: C5_6  and  N1_7 
REMARK    5  A    between atoms: N1_7  and  C6_8 
REMARK    6  A    between atoms: N1_7  and  C8_11 
REMARK    7  A    between atoms: C6_8  and  C7_9 
REMARK    8  A    between atoms: C8_11  and  C9_12 
ROOT
HETATM    1  C2  UNL     1      24.273  -0.036  53.500  1.00  0.00    -0.010 A 
HETATM    2  C3  UNL     1      24.643   1.102  52.805  1.00  0.00     0.014 A 
HETATM    3  C4  UNL     1      23.664   1.877  52.254  1.00  0.00     0.030 A 
HETATM    4  C5  UNL     1      22.305   1.665  52.303  1.00  0.00     0.030 A 
HETATM    5  C10 UNL     1      21.984   0.524  53.003  1.00  0.00     0.030 A 
HETATM    6  C11 UNL     1      22.908  -0.314  53.589  1.00  0.00     0.014 A 
ENDROOT
BRANCH   1   7
HETATM    7  C1  UNL     1      25.268  -0.931  54.137  1.00  0.00     0.255 C 
BRANCH   7   8
HETATM    8  O1  UNL     1      24.943  -1.216  55.484  1.00  0.00    -0.372 OA
HETATM    9  H1  UNL     1      25.017  -0.339  55.959  1.00  0.00     0.212 HD
ENDBRANCH   7   8
BRANCH   7  10
HETATM   10  N2  UNL     1      26.634  -0.496  54.005  1.00  0.00    -0.339 N 
HETATM   11  C12 UNL     1      27.314   0.166  55.057  1.00  0.00     0.090 A 
HETATM   12  C13 UNL     1      28.583   0.586  54.995  1.00  0.00     0.017 A 
HETATM   13  C14 UNL     1      29.261   0.315  53.733  1.00  0.00     0.001 A 
HETATM   14  C15 UNL     1      28.696  -0.301  52.692  1.00  0.00     0.014 A 
HETATM   15  C16 UNL     1      27.310  -0.760  52.753  1.00  0.00     0.207 A 
HETATM   16 CL3  UNL     1      27.266  -2.543  52.562  1.00  0.00    -0.098 Cl
ENDBRANCH   7  10
ENDBRANCH   1   7
BRANCH   4  17
HETATM   17  N1  UNL     1      21.304   2.497  51.695  1.00  0.00    -0.379 N 
BRANCH  17  18
HETATM   18  C6  UNL     1      19.922   2.186  51.913  1.00  0.00     0.138 C 
BRANCH  18  19
HETATM   19  C7  UNL     1      19.189   1.505  50.816  1.00  0.00     0.134 C 
HETATM   20 CL1  UNL     1      18.576  -0.064  51.321  1.00  0.00    -0.129 Cl
ENDBRANCH  18  19
ENDBRANCH  17  18
BRANCH  17  21
HETATM   21  C8  UNL     1      21.661   3.615  50.853  1.00  0.00     0.138 C 
BRANCH  21  22
HETATM   22  C9  UNL     1      21.497   4.927  51.615  1.00  0.00     0.134 C 
HETATM   23 CL2  UNL     1      23.047   5.817  51.410  1.00  0.00    -0.129 Cl
ENDBRANCH  21  22
ENDBRANCH  17  21
ENDBRANCH   4  17
TORSDOF 8
ENDMDL
MODEL 7
REMARK VINA RESULT:      -5.9      2.941      3.825
REMARK  8 active torsions:
REMARK  status: ('A' for Active; 'I' for Inactive)
REMARK    1  A    between atoms: O1_1  and  C1_2 
REMARK    2  A    between atoms: C1_2  and  C2_3 
REMARK    3  A    between atoms: C1_2  and  N2_16 
REMARK    4  A    between atoms: C5_6  and  N1_7 
REMARK    5  A    between atoms: N1_7  and  C6_8 
REMARK    6  A    between atoms: N1_7  and  C8_11 
REMARK    7  A    between atoms: C6_8  and  C7_9 
REMARK    8  A    between atoms: C8_11  and  C9_12 
ROOT
HETATM    1  C2  UNL     1      24.716   2.135  51.914  1.00  0.00    -0.010 A 
HETATM    2  C3  UNL     1      24.044   2.455  50.749  1.00  0.00     0.014 A 
HETATM    3  C4  UNL     1      22.689   2.294  50.711  1.00  0.00     0.030 A 
HETATM    4  C5  UNL     1      21.875   1.837  51.722  1.00  0.00     0.030 A 
HETATM    5  C10 UNL     1      22.586   1.532  52.861  1.00  0.00     0.030 A 
HETATM    6  C11 UNL     1      23.952   1.664  52.983  1.00  0.00     0.014 A 
ENDROOT
BRANCH   1   7
HETATM    7  C1  UNL     1      26.185   2.287  52.047  1.00  0.00     0.255 C 
BRANCH   7   8
HETATM    8  O1  UNL     1      26.796   2.652  50.824  1.00  0.00    -0.372 OA
HETATM    9  H1  UNL     1      27.755   2.820  51.055  1.00  0.00     0.212 HD
ENDBRANCH   7   8
BRANCH   7  10
HETATM   10  N2  UNL     1      26.849   1.164  52.654  1.00  0.00    -0.339 N 
HETATM   11  C12 UNL     1      26.838  -0.123  52.061  1.00  0.00     0.090 A 
HETATM   12  C13 UNL     1      27.442  -1.201  52.573  1.00  0.00     0.017 A 
HETATM   13  C14 UNL     1      28.145  -0.974  53.830  1.00  0.00     0.001 A 
HETATM   14  C15 UNL     1      28.205   0.203  54.458  1.00  0.00     0.014 A 
HETATM   15  C16 UNL     1      27.545   1.383  53.904  1.00  0.00     0.207 A 
HETATM   16 CL3  UNL     1      28.776   2.637  53.542  1.00  0.00    -0.098 Cl
ENDBRANCH   7  10
ENDBRANCH   1   7
BRANCH   4  17
HETATM   17  N1  UNL     1      20.451   1.665  51.639  1.00  0.00    -0.379 N 
BRANCH  17  18
HETATM   18  C6  UNL     1      19.601   2.764  51.988  1.00  0.00     0.138 C 
BRANCH  18  19
HETATM   19  C7  UNL     1      18.745   3.339  50.920  1.00  0.00     0.134 C 
HETATM   20 CL1  UNL     1      17.242   3.983  51.568  1.00  0.00    -0.129 Cl
ENDBRANCH  18  19
ENDBRANCH  17  18
BRANCH  17  21
HETATM   21  C8  UNL     1      19.864   0.406  51.242  1.00  0.00     0.138 C 
BRANCH  21  22
HETATM   22  C9  UNL     1      18.916  -0.102  52.324  1.00  0.00     0.134 C 
HETATM   23 CL2  UNL     1      19.959  -0.839  53.591  1.00  0.00    -0.129 Cl
ENDBRANCH  21  22
ENDBRANCH  17  21
ENDBRANCH   4  17
TORSDOF 8
ENDMDL
MODEL 8
REMARK VINA RESULT:      -5.9      1.848      3.110
REMARK  8 active torsions:
REMARK  status: ('A' for Active; 'I' for Inactive)
REMARK    1  A    between atoms: O1_1  and  C1_2 
REMARK    2  A    between atoms: C1_2  and  C2_3 
REMARK    3  A    between atoms: C1_2  and  N2_16 
REMARK    4  A    between atoms: C5_6  and  N1_7 
REMARK    5  A    between atoms: N1_7  and  C6_8 
REMARK    6  A    between atoms: N1_7  and  C8_11 
REMARK    7  A    between atoms: C6_8  and  C7_9 
REMARK    8  A    between atoms: C8_11  and  C9_12 
ROOT
HETATM    1  C2  UNL     1      25.529   1.287  53.335  1.00  0.00    -0.010 A 
HETATM    2  C3  UNL     1      25.563   0.994  51.984  1.00  0.00     0.014 A 
HETATM    3  C4  UNL     1      25.048   1.904  51.105  1.00  0.00     0.030 A 
HETATM    4  C5  UNL     1      24.481   3.121  51.402  1.00  0.00     0.030 A 
HETATM    5  C10 UNL     1      24.469   3.371  52.755  1.00  0.00     0.030 A 
HETATM    6  C11 UNL     1      24.965   2.509  53.709  1.00  0.00     0.014 A 
ENDROOT
BRANCH   1   7
HETATM    7  C1  UNL     1      26.072   0.363  54.358  1.00  0.00     0.255 C 
BRANCH   7   8
HETATM    8  O1  UNL     1      26.336   1.019  55.584  1.00  0.00    -0.372 OA
HETATM    9  H1  UNL     1      26.872   0.364  56.117  1.00  0.00     0.212 HD
ENDBRANCH   7   8
BRANCH   7  10
HETATM   10  N2  UNL     1      27.203  -0.414  53.922  1.00  0.00    -0.339 N 
HETATM   11  C12 UNL     1      27.049  -1.595  53.155  1.00  0.00     0.090 A 
HETATM   12  C13 UNL     1      28.060  -2.353  52.716  1.00  0.00     0.017 A 
HETATM   13  C14 UNL     1      29.389  -1.880  53.083  1.00  0.00     0.001 A 
HETATM   14  C15 UNL     1      29.625  -0.780  53.803  1.00  0.00     0.014 A 
HETATM   15  C16 UNL     1      28.524   0.050  54.287  1.00  0.00     0.207 A 
HETATM   16 CL3  UNL     1      28.659   1.691  53.574  1.00  0.00    -0.098 Cl
ENDBRANCH   7  10
ENDBRANCH   1   7
BRANCH   4  17
HETATM   17  N1  UNL     1      23.935   4.046  50.448  1.00  0.00    -0.379 N 
BRANCH  17  18
HETATM   18  C6  UNL     1      22.594   4.518  50.633  1.00  0.00     0.138 C 
BRANCH  18  19
HETATM   19  C7  UNL     1      21.502   3.512  50.627  1.00  0.00     0.134 C 
HETATM   20 CL1  UNL     1      20.922   3.174  52.252  1.00  0.00    -0.129 Cl
ENDBRANCH  18  19
ENDBRANCH  17  18
BRANCH  17  21
HETATM   21  C8  UNL     1      24.694   4.484  49.300  1.00  0.00     0.138 C 
BRANCH  21  22
HETATM   22  C9  UNL     1      25.827   5.409  49.734  1.00  0.00     0.134 C 
HETATM   23 CL2  UNL     1      27.199   5.071  48.622  1.00  0.00    -0.129 Cl
ENDBRANCH  21  22
ENDBRANCH  17  21
ENDBRANCH   4  17
TORSDOF 8
ENDMDL
MODEL 9
REMARK VINA RESULT:      -5.8      2.438      3.813
REMARK  8 active torsions:
REMARK  status: ('A' for Active; 'I' for Inactive)
REMARK    1  A    between atoms: O1_1  and  C1_2 
REMARK    2  A    between atoms: C1_2  and  C2_3 
REMARK    3  A    between atoms: C1_2  and  N2_16 
REMARK    4  A    between atoms: C5_6  and  N1_7 
REMARK    5  A    between atoms: N1_7  and  C6_8 
REMARK    6  A    between atoms: N1_7  and  C8_11 
REMARK    7  A    between atoms: C6_8  and  C7_9 
REMARK    8  A    between atoms: C8_11  and  C9_12 
ROOT
HETATM    1  C2  UNL     1      24.833   2.630  51.687  1.00  0.00    -0.010 A 
HETATM    2  C3  UNL     1      24.425   2.789  50.375  1.00  0.00     0.014 A 
HETATM    3  C4  UNL     1      23.089   2.757  50.097  1.00  0.00     0.030 A 
HETATM    4  C5  UNL     1      22.056   2.581  50.989  1.00  0.00     0.030 A 
HETATM    5  C10 UNL     1      22.507   2.427  52.280  1.00  0.00     0.030 A 
HETATM    6  C11 UNL     1      23.835   2.446  52.647  1.00  0.00     0.014 A 
ENDROOT
BRANCH   1   7
HETATM    7  C1  UNL     1      26.261   2.659  52.081  1.00  0.00     0.255 C 
BRANCH   7   8
HETATM    8  O1  UNL     1      27.088   3.173  51.053  1.00  0.00    -0.372 OA
HETATM    9  H1  UNL     1      27.664   2.403  50.777  1.00  0.00     0.212 HD
ENDBRANCH   7   8
BRANCH   7  10
HETATM   10  N2  UNL     1      26.766   1.411  52.590  1.00  0.00    -0.339 N 
HETATM   11  C12 UNL     1      26.635   0.200  51.867  1.00  0.00     0.090 A 
HETATM   12  C13 UNL     1      27.089  -0.988  52.285  1.00  0.00     0.017 A 
HETATM   13  C14 UNL     1      27.758  -0.970  53.580  1.00  0.00     0.001 A 
HETATM   14  C15 UNL     1      27.924   0.124  54.327  1.00  0.00     0.014 A 
HETATM   15  C16 UNL     1      27.428   1.423  53.877  1.00  0.00     0.207 A 
HETATM   16 CL3  UNL     1      28.808   2.553  53.685  1.00  0.00    -0.098 Cl
ENDBRANCH   7  10
ENDBRANCH   1   7
BRANCH   4  17
HETATM   17  N1  UNL     1      20.660   2.537  50.656  1.00  0.00    -0.379 N 
BRANCH  17  18
HETATM   18  C6  UNL     1      20.165   1.427  49.895  1.00  0.00     0.138 C 
BRANCH  18  19
HETATM   19  C7  UNL     1      18.761   1.004  50.127  1.00  0.00     0.134 C 
HETATM   20 CL1  UNL     1      18.638  -0.136  51.460  1.00  0.00    -0.129 Cl
ENDBRANCH  18  19
ENDBRANCH  17  18
BRANCH  17  21
HETATM   21  C8  UNL     1      19.756   3.595  51.044  1.00  0.00     0.138 C 
BRANCH  21  22
HETATM   22  C9  UNL     1      19.955   4.817  50.152  1.00  0.00     0.134 C 
HETATM   23 CL2  UNL     1      21.165   5.852  50.990  1.00  0.00    -0.129 Cl
ENDBRANCH  21  22
ENDBRANCH  17  21
ENDBRANCH   4  17
TORSDOF 8
ENDMDL
