MODEL 1
REMARK VINA RESULT:      -8.5      0.000      0.000
REMARK  9 active torsions:
REMARK  status: ('A' for Active; 'I' for Inactive)
REMARK    1  A    between atoms: N2_12  and  N3_13 
REMARK    2  A    between atoms: C11_14  and  C12_15 
REMARK    3  A    between atoms: C12_15  and  C13_16 
REMARK    4  A    between atoms: C13_16  and  N4_17 
REMARK    5  A    between atoms: C13_16  and  N5_18 
REMARK    6  A    between atoms: C14_19  and  N6_20 
REMARK    7  A    between atoms: C14_19  and  C15_21 
REMARK    8  A    between atoms: C15_21  and  C16_22 
REMARK    9  A    between atoms: N8_30  and  C23_31 
ROOT
HETATM    1  C13 UNL     1      24.084   5.855  51.150  1.00  0.00     0.344 C 
ENDROOT
BRANCH   1   2
HETATM    2  C12 UNL     1      23.478   4.736  51.987  1.00  0.00     0.107 C 
BRANCH   2   3
HETATM    3  C11 UNL     1      23.315   3.573  51.101  1.00  0.00     0.115 C 
HETATM    4  N3  UNL     1      23.565   2.320  50.936  1.00  0.00    -0.189 NA
BRANCH   4   5
HETATM    5  N2  UNL     1      24.273   1.621  51.900  1.00  0.00    -0.270 N 
HETATM    6  C2  UNL     1      23.527   0.603  52.566  1.00  0.00     0.025 C 
HETATM    7  C1  UNL     1      22.098   0.559  52.130  1.00  0.00     0.070 C 
HETATM    8  C3  UNL     1      23.728  -0.351  53.490  1.00  0.00     0.024 C 
HETATM    9  C4  UNL     1      24.978  -0.892  54.054  1.00  0.00     0.100 C 
HETATM   10  C5  UNL     1      24.772  -1.094  55.537  1.00  0.00     0.036 C 
HETATM   11  N1  UNL     1      26.133  -0.106  53.765  1.00  0.00    -0.405 N 
HETATM   12  C6  UNL     1      26.200   1.164  54.381  1.00  0.00     0.119 C 
HETATM   13  C10 UNL     1      26.677  -0.243  52.472  1.00  0.00     0.119 C 
HETATM   14  C7  UNL     1      25.870   2.346  53.530  1.00  0.00     0.047 C 
HETATM   15  C8  UNL     1      25.672   2.035  52.084  1.00  0.00     0.113 C 
HETATM   16  C9  UNL     1      26.529   0.923  51.559  1.00  0.00     0.047 C 
ENDBRANCH   4   5
ENDBRANCH   2   3
ENDBRANCH   1   2
BRANCH   1  17
HETATM   17  N4  UNL     1      24.506   6.967  51.958  1.00  0.00     0.103 N 
HETATM   18  H22 UNL     1      23.724   7.358  52.509  1.00  0.00     0.315 HD
HETATM   19  H23 UNL     1      25.078   7.675  51.475  1.00  0.00     0.315 HD
ENDBRANCH   1  17
BRANCH   1  20
HETATM   20  N5  UNL     1      25.261   5.323  50.493  1.00  0.00    -0.246 NA
HETATM   21  C14 UNL     1      25.682   5.929  49.435  1.00  0.00     0.081 C 
BRANCH  21  22
HETATM   22  N6  UNL     1      26.635   4.860  49.561  1.00  0.00    -0.291 NA
HETATM   23  H24 UNL     1      27.695   4.847  49.542  1.00  0.00     0.125 HD
HETATM   24  H25 UNL     1      27.486   4.264  49.626  1.00  0.00     0.125 HD
ENDBRANCH  21  22
BRANCH  21  25
HETATM   25  C15 UNL     1      26.051   6.736  48.224  1.00  0.00     0.150 C 
BRANCH  25  26
HETATM   26  C16 UNL     1      27.503   7.049  48.334  1.00  0.00     0.116 A 
HETATM   27  N7  UNL     1      28.540   6.288  47.902  1.00  0.00    -0.233 NA
HETATM   28  C17 UNL     1      29.703   6.931  48.193  1.00  0.00     0.085 A 
HETATM   29  C18 UNL     1      31.030   6.620  47.984  1.00  0.00     0.034 A 
HETATM   30  C22 UNL     1      29.330   8.102  48.814  1.00  0.00     0.067 A 
HETATM   31  C19 UNL     1      31.968   7.536  48.425  1.00  0.00     0.002 A 
HETATM   32  C20 UNL     1      31.672   8.725  49.051  1.00  0.00     0.002 A 
HETATM   33  C21 UNL     1      30.324   8.983  49.234  1.00  0.00     0.032 A 
HETATM   34  N8  UNL     1      27.985   8.183  48.904  1.00  0.00    -0.306 N 
BRANCH  34  35
HETATM   35  C23 UNL     1      27.241   9.275  49.497  1.00  0.00     0.354 C 
HETATM   36  F1  UNL     1      27.463   9.239  50.859  1.00  0.00    -0.234 F 
ENDBRANCH  34  35
ENDBRANCH  25  26
ENDBRANCH  21  25
ENDBRANCH   1  20
TORSDOF 9
ENDMDL
MODEL 2
REMARK VINA RESULT:      -8.4      3.732      7.892
REMARK  9 active torsions:
REMARK  status: ('A' for Active; 'I' for Inactive)
REMARK    1  A    between atoms: N2_12  and  N3_13 
REMARK    2  A    between atoms: C11_14  and  C12_15 
REMARK    3  A    between atoms: C12_15  and  C13_16 
REMARK    4  A    between atoms: C13_16  and  N4_17 
REMARK    5  A    between atoms: C13_16  and  N5_18 
REMARK    6  A    between atoms: C14_19  and  N6_20 
REMARK    7  A    between atoms: C14_19  and  C15_21 
REMARK    8  A    between atoms: C15_21  and  C16_22 
REMARK    9  A    between atoms: N8_30  and  C23_31 
ROOT
HETATM    1  C13 UNL     1      25.544   4.433  49.472  1.00  0.00     0.344 C 
ENDROOT
BRANCH   1   2
HETATM    2  C12 UNL     1      24.797   5.741  49.255  1.00  0.00     0.107 C 
BRANCH   2   3
HETATM    3  C11 UNL     1      23.727   5.471  48.282  1.00  0.00     0.115 C 
HETATM    4  N3  UNL     1      22.551   4.971  48.107  1.00  0.00    -0.189 NA
BRANCH   4   5
HETATM    5  N2  UNL     1      21.868   4.416  49.176  1.00  0.00    -0.270 N 
HETATM    6  C2  UNL     1      21.924   2.992  49.245  1.00  0.00     0.025 C 
HETATM    7  C1  UNL     1      22.654   2.389  48.088  1.00  0.00     0.070 C 
HETATM    8  C3  UNL     1      21.508   2.006  50.056  1.00  0.00     0.024 C 
HETATM    9  C4  UNL     1      20.972   2.055  51.429  1.00  0.00     0.100 C 
HETATM   10  C5  UNL     1      19.832   1.068  51.520  1.00  0.00     0.036 C 
HETATM   11  N1  UNL     1      20.599   3.363  51.859  1.00  0.00    -0.405 N 
HETATM   12  C6  UNL     1      19.482   3.942  51.216  1.00  0.00     0.119 C 
HETATM   13  C10 UNL     1      21.648   4.216  52.257  1.00  0.00     0.119 C 
HETATM   14  C7  UNL     1      19.763   4.973  50.173  1.00  0.00     0.047 C 
HETATM   15  C8  UNL     1      21.196   5.375  50.066  1.00  0.00     0.113 C 
HETATM   16  C9  UNL     1      21.948   5.368  51.362  1.00  0.00     0.047 C 
ENDBRANCH   4   5
ENDBRANCH   2   3
ENDBRANCH   1   2
BRANCH   1  17
HETATM   17  N4  UNL     1      26.963   4.585  49.297  1.00  0.00     0.103 N 
HETATM   18  H22 UNL     1      27.352   5.300  49.932  1.00  0.00     0.315 HD
HETATM   19  H23 UNL     1      27.283   4.668  48.321  1.00  0.00     0.315 HD
ENDBRANCH   1  17
BRANCH   1  20
HETATM   20  N5  UNL     1      25.317   4.021  50.843  1.00  0.00    -0.246 NA
HETATM   21  C14 UNL     1      25.806   2.887  51.217  1.00  0.00     0.081 C 
BRANCH  21  22
HETATM   22  N6  UNL     1      25.166   3.342  52.421  1.00  0.00    -0.291 NA
HETATM   23  H24 UNL     1      24.383   4.037  52.591  1.00  0.00     0.125 HD
HETATM   24  H25 UNL     1      24.572   3.805  53.140  1.00  0.00     0.125 HD
ENDBRANCH  21  22
BRANCH  21  25
HETATM   25  C15 UNL     1      26.433   1.553  51.504  1.00  0.00     0.150 C 
BRANCH  25  26
HETATM   26  C16 UNL     1      25.499   0.816  52.401  1.00  0.00     0.116 A 
HETATM   27  N7  UNL     1      24.168   0.630  52.219  1.00  0.00    -0.233 NA
HETATM   28  C17 UNL     1      23.684  -0.096  53.263  1.00  0.00     0.085 A 
HETATM   29  C18 UNL     1      22.427  -0.564  53.585  1.00  0.00     0.034 A 
HETATM   30  C22 UNL     1      24.769  -0.338  54.077  1.00  0.00     0.067 A 
HETATM   31  C19 UNL     1      22.305  -1.286  54.759  1.00  0.00     0.002 A 
HETATM   32  C20 UNL     1      23.341  -1.568  55.619  1.00  0.00     0.002 A 
HETATM   33  C21 UNL     1      24.579  -1.073  55.245  1.00  0.00     0.032 A 
HETATM   34  N8  UNL     1      25.884   0.217  53.556  1.00  0.00    -0.306 N 
BRANCH  34  35
HETATM   35  C23 UNL     1      27.208   0.162  54.141  1.00  0.00     0.354 C 
HETATM   36  F1  UNL     1      27.919  -0.813  53.470  1.00  0.00    -0.234 F 
ENDBRANCH  34  35
ENDBRANCH  25  26
ENDBRANCH  21  25
ENDBRANCH   1  20
TORSDOF 9
ENDMDL
MODEL 3
REMARK VINA RESULT:      -8.3      2.608      8.851
REMARK  9 active torsions:
REMARK  status: ('A' for Active; 'I' for Inactive)
REMARK    1  A    between atoms: N2_12  and  N3_13 
REMARK    2  A    between atoms: C11_14  and  C12_15 
REMARK    3  A    between atoms: C12_15  and  C13_16 
REMARK    4  A    between atoms: C13_16  and  N4_17 
REMARK    5  A    between atoms: C13_16  and  N5_18 
REMARK    6  A    between atoms: C14_19  and  N6_20 
REMARK    7  A    between atoms: C14_19  and  C15_21 
REMARK    8  A    between atoms: C15_21  and  C16_22 
REMARK    9  A    between atoms: N8_30  and  C23_31 
ROOT
HETATM    1  C13 UNL     1      25.739   3.736  50.185  1.00  0.00     0.344 C 
ENDROOT
BRANCH   1   2
HETATM    2  C12 UNL     1      26.042   4.836  49.177  1.00  0.00     0.107 C 
BRANCH   2   3
HETATM    3  C11 UNL     1      27.427   4.636  48.723  1.00  0.00     0.115 C 
HETATM    4  N3  UNL     1      28.530   5.214  48.391  1.00  0.00    -0.189 NA
BRANCH   4   5
HETATM    5  N2  UNL     1      28.624   6.596  48.418  1.00  0.00    -0.270 N 
HETATM    6  C2  UNL     1      29.949   7.100  48.580  1.00  0.00     0.025 C 
HETATM    7  C1  UNL     1      30.959   6.013  48.768  1.00  0.00     0.070 C 
HETATM    8  C3  UNL     1      30.578   8.286  48.616  1.00  0.00     0.024 C 
HETATM    9  C4  UNL     1      30.107   9.633  48.246  1.00  0.00     0.100 C 
HETATM   10  C5  UNL     1      30.626  10.609  49.276  1.00  0.00     0.036 C 
HETATM   11  N1  UNL     1      28.694   9.725  48.070  1.00  0.00    -0.405 N 
HETATM   12  C6  UNL     1      27.904   9.578  49.231  1.00  0.00     0.119 C 
HETATM   13  C10 UNL     1      28.180   9.230  46.854  1.00  0.00     0.119 C 
HETATM   14  C7  UNL     1      27.231   8.260  49.429  1.00  0.00     0.047 C 
HETATM   15  C8  UNL     1      27.353   7.321  48.276  1.00  0.00     0.113 C 
HETATM   16  C9  UNL     1      27.375   7.980  46.930  1.00  0.00     0.047 C 
ENDBRANCH   4   5
ENDBRANCH   2   3
ENDBRANCH   1   2
BRANCH   1  17
HETATM   17  N4  UNL     1      26.918   3.307  50.888  1.00  0.00     0.103 N 
HETATM   18  H22 UNL     1      27.667   3.019  50.237  1.00  0.00     0.315 HD
HETATM   19  H23 UNL     1      26.757   2.649  51.664  1.00  0.00     0.315 HD
ENDBRANCH   1  17
BRANCH   1  20
HETATM   20  N5  UNL     1      24.822   4.282  51.166  1.00  0.00    -0.246 NA
HETATM   21  C14 UNL     1      24.657   3.623  52.264  1.00  0.00     0.081 C 
BRANCH  21  22
HETATM   22  N6  UNL     1      23.784   4.748  52.461  1.00  0.00    -0.291 NA
HETATM   23  H24 UNL     1      23.130   5.010  53.254  1.00  0.00     0.125 HD
HETATM   24  H25 UNL     1      23.102   5.452  52.812  1.00  0.00     0.125 HD
ENDBRANCH  21  22
BRANCH  21  25
HETATM   25  C15 UNL     1      24.569   2.751  53.482  1.00  0.00     0.150 C 
BRANCH  25  26
HETATM   26  C16 UNL     1      25.792   1.901  53.499  1.00  0.00     0.116 A 
HETATM   27  N7  UNL     1      27.060   2.297  53.770  1.00  0.00    -0.233 NA
HETATM   28  C17 UNL     1      27.882   1.217  53.682  1.00  0.00     0.085 A 
HETATM   29  C18 UNL     1      29.240   1.048  53.854  1.00  0.00     0.034 A 
HETATM   30  C22 UNL     1      27.065   0.160  53.349  1.00  0.00     0.067 A 
HETATM   31  C19 UNL     1      29.743  -0.229  53.678  1.00  0.00     0.002 A 
HETATM   32  C20 UNL     1      28.990  -1.331  53.347  1.00  0.00     0.002 A 
HETATM   33  C21 UNL     1      27.634  -1.102  53.187  1.00  0.00     0.032 A 
HETATM   34  N8  UNL     1      25.783   0.569  53.235  1.00  0.00    -0.306 N 
BRANCH  34  35
HETATM   35  C23 UNL     1      24.653  -0.272  52.899  1.00  0.00     0.354 C 
HETATM   36  F1  UNL     1      24.248  -0.907  54.056  1.00  0.00    -0.234 F 
ENDBRANCH  34  35
ENDBRANCH  25  26
ENDBRANCH  21  25
ENDBRANCH   1  20
TORSDOF 9
ENDMDL
MODEL 4
REMARK VINA RESULT:      -8.3      4.134      8.418
REMARK  9 active torsions:
REMARK  status: ('A' for Active; 'I' for Inactive)
REMARK    1  A    between atoms: N2_12  and  N3_13 
REMARK    2  A    between atoms: C11_14  and  C12_15 
REMARK    3  A    between atoms: C12_15  and  C13_16 
REMARK    4  A    between atoms: C13_16  and  N4_17 
REMARK    5  A    between atoms: C13_16  and  N5_18 
REMARK    6  A    between atoms: C14_19  and  N6_20 
REMARK    7  A    between atoms: C14_19  and  C15_21 
REMARK    8  A    between atoms: C15_21  and  C16_22 
REMARK    9  A    between atoms: N8_30  and  C23_31 
ROOT
HETATM    1  C13 UNL     1      19.544   0.992  50.668  1.00  0.00     0.344 C 
ENDROOT
BRANCH   1   2
HETATM    2  C12 UNL     1      19.241   2.393  51.181  1.00  0.00     0.107 C 
BRANCH   2   3
HETATM    3  C11 UNL     1      19.270   3.294  50.019  1.00  0.00     0.115 C 
HETATM    4  N3  UNL     1      19.957   4.172  49.372  1.00  0.00    -0.189 NA
BRANCH   4   5
HETATM    5  N2  UNL     1      21.217   4.533  49.819  1.00  0.00    -0.270 N 
HETATM    6  C2  UNL     1      22.289   4.145  48.961  1.00  0.00     0.025 C 
HETATM    7  C1  UNL     1      21.823   3.350  47.783  1.00  0.00     0.070 C 
HETATM    8  C3  UNL     1      23.624   4.280  48.891  1.00  0.00     0.024 C 
HETATM    9  C4  UNL     1      24.539   5.159  49.641  1.00  0.00     0.100 C 
HETATM   10  C5  UNL     1      25.778   4.363  49.979  1.00  0.00     0.036 C 
HETATM   11  N1  UNL     1      23.949   5.765  50.791  1.00  0.00    -0.405 N 
HETATM   12  C6  UNL     1      23.621   4.901  51.859  1.00  0.00     0.119 C 
HETATM   13  C10 UNL     1      23.108   6.872  50.554  1.00  0.00     0.119 C 
HETATM   14  C7  UNL     1      22.184   4.527  52.010  1.00  0.00     0.047 C 
HETATM   15  C8  UNL     1      21.253   5.256  51.100  1.00  0.00     0.113 C 
HETATM   16  C9  UNL     1      21.653   6.667  50.793  1.00  0.00     0.047 C 
ENDBRANCH   4   5
ENDBRANCH   2   3
ENDBRANCH   1   2
BRANCH   1  17
HETATM   17  N4  UNL     1      20.931   0.829  50.325  1.00  0.00     0.103 N 
HETATM   18  H22 UNL     1      21.074   0.831  49.302  1.00  0.00     0.315 HD
HETATM   19  H23 UNL     1      21.425   0.072  50.820  1.00  0.00     0.315 HD
ENDBRANCH   1  17
BRANCH   1  20
HETATM   20  N5  UNL     1      19.247   0.060  51.737  1.00  0.00    -0.246 NA
HETATM   21  C14 UNL     1      19.900   0.188  52.843  1.00  0.00     0.081 C 
BRANCH  21  22
HETATM   22  N6  UNL     1      19.053  -0.937  53.131  1.00  0.00    -0.291 NA
HETATM   23  H24 UNL     1      19.269  -1.933  53.422  1.00  0.00     0.125 HD
HETATM   24  H25 UNL     1      18.649  -1.864  53.380  1.00  0.00     0.125 HD
ENDBRANCH  21  22
BRANCH  21  25
HETATM   25  C15 UNL     1      20.734   0.462  54.061  1.00  0.00     0.150 C 
BRANCH  25  26
HETATM   26  C16 UNL     1      22.161   0.398  53.636  1.00  0.00     0.116 A 
HETATM   27  N7  UNL     1      22.777   1.185  52.718  1.00  0.00    -0.233 NA
HETATM   28  C17 UNL     1      24.079   0.803  52.623  1.00  0.00     0.085 A 
HETATM   29  C18 UNL     1      25.139   1.249  51.862  1.00  0.00     0.034 A 
HETATM   30  C22 UNL     1      24.223  -0.238  53.513  1.00  0.00     0.067 A 
HETATM   31  C19 UNL     1      26.352   0.606  52.033  1.00  0.00     0.002 A 
HETATM   32  C20 UNL     1      26.572  -0.438  52.901  1.00  0.00     0.002 A 
HETATM   33  C21 UNL     1      25.472  -0.844  53.638  1.00  0.00     0.032 A 
HETATM   34  N8  UNL     1      23.053  -0.492  54.138  1.00  0.00    -0.306 N 
BRANCH  34  35
HETATM   35  C23 UNL     1      22.834  -1.517  55.137  1.00  0.00     0.354 C 
HETATM   36  F1  UNL     1      23.723  -1.289  56.168  1.00  0.00    -0.234 F 
ENDBRANCH  34  35
ENDBRANCH  25  26
ENDBRANCH  21  25
ENDBRANCH   1  20
TORSDOF 9
ENDMDL
MODEL 5
REMARK VINA RESULT:      -8.3      2.629      8.111
REMARK  9 active torsions:
REMARK  status: ('A' for Active; 'I' for Inactive)
REMARK    1  A    between atoms: N2_12  and  N3_13 
REMARK    2  A    between atoms: C11_14  and  C12_15 
REMARK    3  A    between atoms: C12_15  and  C13_16 
REMARK    4  A    between atoms: C13_16  and  N4_17 
REMARK    5  A    between atoms: C13_16  and  N5_18 
REMARK    6  A    between atoms: C14_19  and  N6_20 
REMARK    7  A    between atoms: C14_19  and  C15_21 
REMARK    8  A    between atoms: C15_21  and  C16_22 
REMARK    9  A    between atoms: N8_30  and  C23_31 
ROOT
HETATM    1  C13 UNL     1      23.871   5.729  51.902  1.00  0.00     0.344 C 
ENDROOT
BRANCH   1   2
HETATM    2  C12 UNL     1      24.486   6.743  50.947  1.00  0.00     0.107 C 
BRANCH   2   3
HETATM    3  C11 UNL     1      24.518   6.119  49.615  1.00  0.00     0.115 C 
HETATM    4  N3  UNL     1      25.203   5.953  48.536  1.00  0.00    -0.189 NA
BRANCH   4   5
HETATM    5  N2  UNL     1      26.454   6.534  48.412  1.00  0.00    -0.270 N 
HETATM    6  C2  UNL     1      27.548   5.626  48.530  1.00  0.00     0.025 C 
HETATM    7  C1  UNL     1      27.107   4.233  48.846  1.00  0.00     0.070 C 
HETATM    8  C3  UNL     1      28.888   5.647  48.442  1.00  0.00     0.024 C 
HETATM    9  C4  UNL     1      29.799   6.682  47.921  1.00  0.00     0.100 C 
HETATM   10  C5  UNL     1      30.994   6.759  48.842  1.00  0.00     0.036 C 
HETATM   11  N1  UNL     1      29.180   7.953  47.722  1.00  0.00    -0.405 N 
HETATM   12  C6  UNL     1      28.777   8.645  48.886  1.00  0.00     0.119 C 
HETATM   13  C10 UNL     1      28.389   8.090  46.563  1.00  0.00     0.119 C 
HETATM   14  C7  UNL     1      27.322   8.614  49.221  1.00  0.00     0.047 C 
HETATM   15  C8  UNL     1      26.458   7.987  48.179  1.00  0.00     0.113 C 
HETATM   16  C9  UNL     1      26.919   8.201  46.769  1.00  0.00     0.047 C 
ENDBRANCH   4   5
ENDBRANCH   2   3
ENDBRANCH   1   2
BRANCH   1  17
HETATM   17  N4  UNL     1      22.435   5.806  51.920  1.00  0.00     0.103 N 
HETATM   18  H22 UNL     1      22.078   6.081  52.849  1.00  0.00     0.315 HD
HETATM   19  H23 UNL     1      21.942   5.005  51.498  1.00  0.00     0.315 HD
ENDBRANCH   1  17
BRANCH   1  20
HETATM   20  N5  UNL     1      24.230   4.408  51.429  1.00  0.00    -0.246 NA
HETATM   21  C14 UNL     1      24.220   3.441  52.283  1.00  0.00     0.081 C 
BRANCH  21  22
HETATM   22  N6  UNL     1      24.623   2.765  51.081  1.00  0.00    -0.291 NA
HETATM   23  H24 UNL     1      24.589   3.049  50.060  1.00  0.00     0.125 HD
HETATM   24  H25 UNL     1      24.837   2.477  50.103  1.00  0.00     0.125 HD
ENDBRANCH  21  22
BRANCH  21  25
HETATM   25  C15 UNL     1      24.161   2.424  53.386  1.00  0.00     0.150 C 
BRANCH  25  26
HETATM   26  C16 UNL     1      25.494   1.761  53.439  1.00  0.00     0.116 A 
HETATM   27  N7  UNL     1      26.699   2.359  53.618  1.00  0.00    -0.233 NA
HETATM   28  C17 UNL     1      27.666   1.402  53.605  1.00  0.00     0.085 A 
HETATM   29  C18 UNL     1      29.037   1.445  53.738  1.00  0.00     0.034 A 
HETATM   30  C22 UNL     1      27.001   0.211  53.412  1.00  0.00     0.067 A 
HETATM   31  C19 UNL     1      29.715   0.240  53.671  1.00  0.00     0.002 A 
HETATM   32  C20 UNL     1      29.121  -0.986  53.482  1.00  0.00     0.002 A 
HETATM   33  C21 UNL     1      27.742  -0.968  53.354  1.00  0.00     0.032 A 
HETATM   34  N8  UNL     1      25.671   0.422  53.310  1.00  0.00    -0.306 N 
BRANCH  34  35
HETATM   35  C23 UNL     1      24.666  -0.601  53.105  1.00  0.00     0.354 C 
HETATM   36  F1  UNL     1      24.197  -0.978  54.347  1.00  0.00    -0.234 F 
ENDBRANCH  34  35
ENDBRANCH  25  26
ENDBRANCH  21  25
ENDBRANCH   1  20
TORSDOF 9
ENDMDL
MODEL 6
REMARK VINA RESULT:      -8.1      2.131      3.405
REMARK  9 active torsions:
REMARK  status: ('A' for Active; 'I' for Inactive)
REMARK    1  A    between atoms: N2_12  and  N3_13 
REMARK    2  A    between atoms: C11_14  and  C12_15 
REMARK    3  A    between atoms: C12_15  and  C13_16 
REMARK    4  A    between atoms: C13_16  and  N4_17 
REMARK    5  A    between atoms: C13_16  and  N5_18 
REMARK    6  A    between atoms: C14_19  and  N6_20 
REMARK    7  A    between atoms: C14_19  and  C15_21 
REMARK    8  A    between atoms: C15_21  and  C16_22 
REMARK    9  A    between atoms: N8_30  and  C23_31 
ROOT
HETATM    1  C13 UNL     1      21.158   3.307  51.035  1.00  0.00     0.344 C 
ENDROOT
BRANCH   1   2
HETATM    2  C12 UNL     1      21.872   1.962  51.052  1.00  0.00     0.107 C 
BRANCH   2   3
HETATM    3  C11 UNL     1      21.945   1.529  52.456  1.00  0.00     0.115 C 
HETATM    4  N3  UNL     1      22.724   1.163  53.416  1.00  0.00    -0.189 NA
BRANCH   4   5
HETATM    5  N2  UNL     1      24.092   1.095  53.211  1.00  0.00    -0.270 N 
HETATM    6  C2  UNL     1      24.633  -0.225  53.232  1.00  0.00     0.025 C 
HETATM    7  C1  UNL     1      23.606  -1.262  53.555  1.00  0.00     0.070 C 
HETATM    8  C3  UNL     1      25.817  -0.831  53.046  1.00  0.00     0.024 C 
HETATM    9  C4  UNL     1      27.078  -0.319  52.478  1.00  0.00     0.100 C 
HETATM   10  C5  UNL     1      28.218  -0.858  53.311  1.00  0.00     0.036 C 
HETATM   11  N1  UNL     1      27.121   1.101  52.348  1.00  0.00    -0.405 N 
HETATM   12  C6  UNL     1      27.158   1.843  53.550  1.00  0.00     0.119 C 
HETATM   13  C10 UNL     1      26.424   1.652  51.253  1.00  0.00     0.119 C 
HETATM   14  C7  UNL     1      25.883   2.481  53.990  1.00  0.00     0.047 C 
HETATM   15  C8  UNL     1      24.767   2.386  53.003  1.00  0.00     0.113 C 
HETATM   16  C9  UNL     1      25.194   2.429  51.568  1.00  0.00     0.047 C 
ENDBRANCH   4   5
ENDBRANCH   2   3
ENDBRANCH   1   2
BRANCH   1  17
HETATM   17  N4  UNL     1      19.837   3.225  51.598  1.00  0.00     0.103 N 
HETATM   18  H22 UNL     1      19.490   2.252  51.618  1.00  0.00     0.315 HD
HETATM   19  H23 UNL     1      19.157   3.909  51.237  1.00  0.00     0.315 HD
ENDBRANCH   1  17
BRANCH   1  20
HETATM   20  N5  UNL     1      21.926   4.221  51.857  1.00  0.00    -0.246 NA
HETATM   21  C14 UNL     1      22.325   5.322  51.316  1.00  0.00     0.081 C 
BRANCH  21  22
HETATM   22  N6  UNL     1      22.847   5.443  52.650  1.00  0.00    -0.291 NA
HETATM   23  H24 UNL     1      23.804   5.240  53.060  1.00  0.00     0.125 HD
HETATM   24  H25 UNL     1      23.428   5.449  53.514  1.00  0.00     0.125 HD
ENDBRANCH  21  22
BRANCH  21  25
HETATM   25  C15 UNL     1      22.717   6.554  50.554  1.00  0.00     0.150 C 
BRANCH  25  26
HETATM   26  C16 UNL     1      24.077   6.308  49.996  1.00  0.00     0.116 A 
HETATM   27  N7  UNL     1      24.723   5.118  49.911  1.00  0.00    -0.233 NA
HETATM   28  C17 UNL     1      25.940   5.325  49.340  1.00  0.00     0.085 A 
HETATM   29  C18 UNL     1      26.986   4.485  49.021  1.00  0.00     0.034 A 
HETATM   30  C22 UNL     1      26.003   6.677  49.086  1.00  0.00     0.067 A 
HETATM   31  C19 UNL     1      28.099   5.061  48.434  1.00  0.00     0.002 A 
HETATM   32  C20 UNL     1      28.234   6.400  48.150  1.00  0.00     0.002 A 
HETATM   33  C21 UNL     1      27.153   7.194  48.493  1.00  0.00     0.032 A 
HETATM   34  N8  UNL     1      24.866   7.287  49.485  1.00  0.00    -0.306 N 
BRANCH  34  35
HETATM   35  C23 UNL     1      24.582   8.702  49.372  1.00  0.00     0.354 C 
HETATM   36  F1  UNL     1      25.435   9.368  50.229  1.00  0.00    -0.234 F 
ENDBRANCH  34  35
ENDBRANCH  25  26
ENDBRANCH  21  25
ENDBRANCH   1  20
TORSDOF 9
ENDMDL
MODEL 7
REMARK VINA RESULT:      -7.9      5.102      7.909
REMARK  9 active torsions:
REMARK  status: ('A' for Active; 'I' for Inactive)
REMARK    1  A    between atoms: N2_12  and  N3_13 
REMARK    2  A    between atoms: C11_14  and  C12_15 
REMARK    3  A    between atoms: C12_15  and  C13_16 
REMARK    4  A    between atoms: C13_16  and  N4_17 
REMARK    5  A    between atoms: C13_16  and  N5_18 
REMARK    6  A    between atoms: C14_19  and  N6_20 
REMARK    7  A    between atoms: C14_19  and  C15_21 
REMARK    8  A    between atoms: C15_21  and  C16_22 
REMARK    9  A    between atoms: N8_30  and  C23_31 
ROOT
HETATM    1  C13 UNL     1      22.729   2.632  50.609  1.00  0.00     0.344 C 
ENDROOT
BRANCH   1   2
HETATM    2  C12 UNL     1      21.837   3.801  51.006  1.00  0.00     0.107 C 
BRANCH   2   3
HETATM    3  C11 UNL     1      21.134   3.409  52.237  1.00  0.00     0.115 C 
HETATM    4  N3  UNL     1      20.057   2.897  52.728  1.00  0.00    -0.189 NA
BRANCH   4   5
HETATM    5  N2  UNL     1      19.034   2.493  51.886  1.00  0.00    -0.270 N 
HETATM    6  C2  UNL     1      18.806   1.085  51.859  1.00  0.00     0.025 C 
HETATM    7  C1  UNL     1      19.785   0.327  52.698  1.00  0.00     0.070 C 
HETATM    8  C3  UNL     1      17.956   0.213  51.293  1.00  0.00     0.024 C 
HETATM    9  C4  UNL     1      16.679   0.437  50.590  1.00  0.00     0.100 C 
HETATM   10  C5  UNL     1      16.634  -0.489  49.397  1.00  0.00     0.036 C 
HETATM   11  N1  UNL     1      16.445   1.799  50.233  1.00  0.00    -0.405 N 
HETATM   12  C6  UNL     1      17.289   2.343  49.239  1.00  0.00     0.119 C 
HETATM   13  C10 UNL     1      16.005   2.651  51.266  1.00  0.00     0.119 C 
HETATM   14  C7  UNL     1      18.390   3.238  49.703  1.00  0.00     0.047 C 
HETATM   15  C8  UNL     1      18.349   3.571  51.157  1.00  0.00     0.113 C 
HETATM   16  C9  UNL     1      16.971   3.682  51.737  1.00  0.00     0.047 C 
ENDBRANCH   4   5
ENDBRANCH   2   3
ENDBRANCH   1   2
BRANCH   1  17
HETATM   17  N4  UNL     1      22.612   2.313  49.212  1.00  0.00     0.103 N 
HETATM   18  H22 UNL     1      21.631   2.131  48.943  1.00  0.00     0.315 HD
HETATM   19  H23 UNL     1      23.283   1.615  48.858  1.00  0.00     0.315 HD
ENDBRANCH   1  17
BRANCH   1  20
HETATM   20  N5  UNL     1      24.102   3.027  50.852  1.00  0.00    -0.246 NA
HETATM   21  C14 UNL     1      24.562   2.895  52.050  1.00  0.00     0.081 C 
BRANCH  21  22
HETATM   22  N6  UNL     1      25.700   3.433  51.357  1.00  0.00    -0.291 NA
HETATM   23  H24 UNL     1      26.720   3.528  51.631  1.00  0.00     0.125 HD
HETATM   24  H25 UNL     1      26.641   3.761  51.056  1.00  0.00     0.125 HD
ENDBRANCH  21  22
BRANCH  21  25
HETATM   25  C15 UNL     1      24.952   2.684  53.484  1.00  0.00     0.150 C 
BRANCH  25  26
HETATM   26  C16 UNL     1      26.135   1.778  53.486  1.00  0.00     0.116 A 
HETATM   27  N7  UNL     1      27.429   2.123  53.697  1.00  0.00    -0.233 NA
HETATM   28  C17 UNL     1      28.197   1.003  53.616  1.00  0.00     0.085 A 
HETATM   29  C18 UNL     1      29.551   0.776  53.744  1.00  0.00     0.034 A 
HETATM   30  C22 UNL     1      27.320  -0.025  53.348  1.00  0.00     0.067 A 
HETATM   31  C19 UNL     1      29.988  -0.528  53.593  1.00  0.00     0.002 A 
HETATM   32  C20 UNL     1      29.174  -1.604  53.326  1.00  0.00     0.002 A 
HETATM   33  C21 UNL     1      27.825  -1.316  53.207  1.00  0.00     0.032 A 
HETATM   34  N8  UNL     1      26.055   0.441  53.267  1.00  0.00    -0.306 N 
BRANCH  34  35
HETATM   35  C23 UNL     1      24.876  -0.357  53.000  1.00  0.00     0.354 C 
HETATM   36  F1  UNL     1      24.335  -0.721  54.217  1.00  0.00    -0.234 F 
ENDBRANCH  34  35
ENDBRANCH  25  26
ENDBRANCH  21  25
ENDBRANCH   1  20
TORSDOF 9
ENDMDL
MODEL 8
REMARK VINA RESULT:      -7.9      2.718      9.348
REMARK  9 active torsions:
REMARK  status: ('A' for Active; 'I' for Inactive)
REMARK    1  A    between atoms: N2_12  and  N3_13 
REMARK    2  A    between atoms: C11_14  and  C12_15 
REMARK    3  A    between atoms: C12_15  and  C13_16 
REMARK    4  A    between atoms: C13_16  and  N4_17 
REMARK    5  A    between atoms: C13_16  and  N5_18 
REMARK    6  A    between atoms: C14_19  and  N6_20 
REMARK    7  A    between atoms: C14_19  and  C15_21 
REMARK    8  A    between atoms: C15_21  and  C16_22 
REMARK    9  A    between atoms: N8_30  and  C23_31 
ROOT
HETATM    1  C13 UNL     1      23.789   3.606  50.019  1.00  0.00     0.344 C 
ENDROOT
BRANCH   1   2
HETATM    2  C12 UNL     1      23.716   4.290  48.661  1.00  0.00     0.107 C 
BRANCH   2   3
HETATM    3  C11 UNL     1      23.334   5.691  48.903  1.00  0.00     0.115 C 
HETATM    4  N3  UNL     1      23.726   6.918  48.875  1.00  0.00    -0.189 NA
BRANCH   4   5
HETATM    5  N2  UNL     1      25.015   7.226  48.472  1.00  0.00    -0.270 N 
HETATM    6  C2  UNL     1      25.106   7.853  47.194  1.00  0.00     0.025 C 
HETATM    7  C1  UNL     1      23.778   7.974  46.517  1.00  0.00     0.070 C 
HETATM    8  C3  UNL     1      26.049   8.379  46.394  1.00  0.00     0.024 C 
HETATM    9  C4  UNL     1      27.453   8.733  46.672  1.00  0.00     0.100 C 
HETATM   10  C5  UNL     1      28.282   8.324  45.477  1.00  0.00     0.036 C 
HETATM   11  N1  UNL     1      27.955   8.196  47.895  1.00  0.00    -0.405 N 
HETATM   12  C6  UNL     1      28.116   6.794  47.948  1.00  0.00     0.119 C 
HETATM   13  C10 UNL     1      27.572   8.863  49.076  1.00  0.00     0.119 C 
HETATM   14  C7  UNL     1      27.074   6.022  48.687  1.00  0.00     0.047 C 
HETATM   15  C8  UNL     1      26.080   6.861  49.419  1.00  0.00     0.113 C 
HETATM   16  C9  UNL     1      26.628   8.141  49.973  1.00  0.00     0.047 C 
ENDBRANCH   4   5
ENDBRANCH   2   3
ENDBRANCH   1   2
BRANCH   1  17
HETATM   17  N4  UNL     1      23.210   2.290  49.993  1.00  0.00     0.103 N 
HETATM   18  H22 UNL     1      22.395   2.243  49.359  1.00  0.00     0.315 HD
HETATM   19  H23 UNL     1      23.053   1.855  50.915  1.00  0.00     0.315 HD
ENDBRANCH   1  17
BRANCH   1  20
HETATM   20  N5  UNL     1      25.189   3.458  50.361  1.00  0.00    -0.246 NA
HETATM   21  C14 UNL     1      25.476   2.882  51.479  1.00  0.00     0.081 C 
BRANCH  21  22
HETATM   22  N6  UNL     1      26.782   3.181  50.960  1.00  0.00    -0.291 NA
HETATM   23  H24 UNL     1      27.154   3.256  49.969  1.00  0.00     0.125 HD
HETATM   24  H25 UNL     1      27.620   3.371  50.370  1.00  0.00     0.125 HD
ENDBRANCH  21  22
BRANCH  21  25
HETATM   25  C15 UNL     1      25.652   2.197  52.803  1.00  0.00     0.150 C 
BRANCH  25  26
HETATM   26  C16 UNL     1      24.390   1.457  53.083  1.00  0.00     0.116 A 
HETATM   27  N7  UNL     1      23.122   1.910  52.916  1.00  0.00    -0.233 NA
HETATM   28  C17 UNL     1      22.257   0.927  53.285  1.00  0.00     0.085 A 
HETATM   29  C18 UNL     1      20.881   0.847  53.319  1.00  0.00     0.034 A 
HETATM   30  C22 UNL     1      23.047  -0.129  53.680  1.00  0.00     0.067 A 
HETATM   31  C19 UNL     1      20.331  -0.342  53.765  1.00  0.00     0.002 A 
HETATM   32  C20 UNL     1      21.054  -1.438  54.174  1.00  0.00     0.002 A 
HETATM   33  C21 UNL     1      22.431  -1.299  54.119  1.00  0.00     0.032 A 
HETATM   34  N8  UNL     1      24.355   0.187  53.559  1.00  0.00    -0.306 N 
BRANCH  34  35
HETATM   35  C23 UNL     1      25.467  -0.682  53.882  1.00  0.00     0.354 C 
HETATM   36  F1  UNL     1      25.920  -1.235  52.701  1.00  0.00    -0.234 F 
ENDBRANCH  34  35
ENDBRANCH  25  26
ENDBRANCH  21  25
ENDBRANCH   1  20
TORSDOF 9
ENDMDL
MODEL 9
REMARK VINA RESULT:      -7.9      3.606      7.971
REMARK  9 active torsions:
REMARK  status: ('A' for Active; 'I' for Inactive)
REMARK    1  A    between atoms: N2_12  and  N3_13 
REMARK    2  A    between atoms: C11_14  and  C12_15 
REMARK    3  A    between atoms: C12_15  and  C13_16 
REMARK    4  A    between atoms: C13_16  and  N4_17 
REMARK    5  A    between atoms: C13_16  and  N5_18 
REMARK    6  A    between atoms: C14_19  and  N6_20 
REMARK    7  A    between atoms: C14_19  and  C15_21 
REMARK    8  A    between atoms: C15_21  and  C16_22 
REMARK    9  A    between atoms: N8_30  and  C23_31 
ROOT
HETATM    1  C13 UNL     1      22.612   2.334  50.818  1.00  0.00     0.344 C 
ENDROOT
BRANCH   1   2
HETATM    2  C12 UNL     1      21.570   3.312  51.343  1.00  0.00     0.107 C 
BRANCH   2   3
HETATM    3  C11 UNL     1      20.852   3.846  50.174  1.00  0.00     0.115 C 
HETATM    4  N3  UNL     1      20.817   4.777  49.284  1.00  0.00    -0.189 NA
BRANCH   4   5
HETATM    5  N2  UNL     1      21.784   5.769  49.279  1.00  0.00    -0.270 N 
HETATM    6  C2  UNL     1      22.570   5.830  48.090  1.00  0.00     0.025 C 
HETATM    7  C1  UNL     1      22.231   4.743  47.121  1.00  0.00     0.070 C 
HETATM    8  C3  UNL     1      23.548   6.587  47.567  1.00  0.00     0.024 C 
HETATM    9  C4  UNL     1      24.070   7.901  47.983  1.00  0.00     0.100 C 
HETATM   10  C5  UNL     1      25.575   7.872  47.844  1.00  0.00     0.036 C 
HETATM   11  N1  UNL     1      23.650   8.306  49.285  1.00  0.00    -0.405 N 
HETATM   12  C6  UNL     1      24.163   7.563  50.372  1.00  0.00     0.119 C 
HETATM   13  C10 UNL     1      22.339   8.813  49.392  1.00  0.00     0.119 C 
HETATM   14  C7  UNL     1      23.250   6.563  50.998  1.00  0.00     0.047 C 
HETATM   15  C8  UNL     1      21.847   6.599  50.492  1.00  0.00     0.113 C 
HETATM   16  C9  UNL     1      21.352   7.963  50.113  1.00  0.00     0.047 C 
ENDBRANCH   4   5
ENDBRANCH   2   3
ENDBRANCH   1   2
BRANCH   1  17
HETATM   17  N4  UNL     1      22.464   2.090  49.409  1.00  0.00     0.103 N 
HETATM   18  H22 UNL     1      23.367   2.157  48.912  1.00  0.00     0.315 HD
HETATM   19  H23 UNL     1      21.691   2.593  48.950  1.00  0.00     0.315 HD
ENDBRANCH   1  17
BRANCH   1  20
HETATM   20  N5  UNL     1      23.916   2.932  51.022  1.00  0.00    -0.246 NA
HETATM   21  C14 UNL     1      24.431   2.860  52.202  1.00  0.00     0.081 C 
BRANCH  21  22
HETATM   22  N6  UNL     1      25.449   3.573  51.481  1.00  0.00    -0.291 NA
HETATM   23  H24 UNL     1      26.452   3.820  51.723  1.00  0.00     0.125 HD
HETATM   24  H25 UNL     1      26.319   4.043  51.154  1.00  0.00     0.125 HD
ENDBRANCH  21  22
BRANCH  21  25
HETATM   25  C15 UNL     1      24.899   2.697  53.620  1.00  0.00     0.150 C 
BRANCH  25  26
HETATM   26  C16 UNL     1      26.094   1.809  53.586  1.00  0.00     0.116 A 
HETATM   27  N7  UNL     1      27.388   2.171  53.770  1.00  0.00    -0.233 NA
HETATM   28  C17 UNL     1      28.170   1.063  53.661  1.00  0.00     0.085 A 
HETATM   29  C18 UNL     1      29.529   0.855  53.756  1.00  0.00     0.034 A 
HETATM   30  C22 UNL     1      27.302   0.025  53.405  1.00  0.00     0.067 A 
HETATM   31  C19 UNL     1      29.982  -0.441  53.584  1.00  0.00     0.002 A 
HETATM   32  C20 UNL     1      29.177  -1.527  53.327  1.00  0.00     0.002 A 
HETATM   33  C21 UNL     1      27.822  -1.258  53.242  1.00  0.00     0.032 A 
HETATM   34  N8  UNL     1      26.029   0.472  53.358  1.00  0.00    -0.306 N 
BRANCH  34  35
HETATM   35  C23 UNL     1      24.856  -0.340  53.111  1.00  0.00     0.354 C 
HETATM   36  F1  UNL     1      24.230  -0.546  54.324  1.00  0.00    -0.234 F 
ENDBRANCH  34  35
ENDBRANCH  25  26
ENDBRANCH  21  25
ENDBRANCH   1  20
TORSDOF 9
ENDMDL
