MODEL 1
REMARK VINA RESULT:      -8.8      0.000      0.000
REMARK  6 active torsions:
REMARK  status: ('A' for Active; 'I' for Inactive)
REMARK    1  A    between atoms: C2_2  and  S1_17 
REMARK    2  A    between atoms: C3_3  and  C4_5 
REMARK    3  A    between atoms: C4_5  and  C5_6 
REMARK    4  A    between atoms: C7_9  and  C8_10 
REMARK    5  A    between atoms: S1_17  and  N4_20 
REMARK    6  A    between atoms: N4_20  and  C12_21 
ROOT
HETATM    1  C1  UNL     1      22.233   3.179  50.180  1.00  0.00     0.076 A 
HETATM    2  C2  UNL     1      22.705   4.278  50.782  1.00  0.00     0.171 A 
HETATM    3  C3  UNL     1      22.950   3.261  51.714  1.00  0.00     0.081 A 
HETATM    4 CL1  UNL     1      23.567   4.764  52.470  1.00  0.00    -0.175 Cl
ENDROOT
BRANCH   2   5
HETATM    5  S1  UNL     1      22.527   5.664  49.838  1.00  0.00     0.255 S 
HETATM    6  O2  UNL     1      21.536   5.345  48.725  1.00  0.00    -0.204 OA
HETATM    7  O3  UNL     1      21.792   6.738  50.658  1.00  0.00    -0.204 OA
BRANCH   5   8
HETATM    8  N4  UNL     1      23.927   6.325  49.126  1.00  0.00    -0.282 N 
HETATM    9  H12 UNL     1      23.781   7.300  48.709  1.00  0.00     0.178 HD
BRANCH   8  10
HETATM   10  C12 UNL     1      25.266   5.950  48.908  1.00  0.00     0.051 A 
HETATM   11  C13 UNL     1      25.733   4.734  49.345  1.00  0.00     0.031 A 
HETATM   12  C14 UNL     1      27.020   4.261  49.198  1.00  0.00     0.005 A 
HETATM   13  C15 UNL     1      27.926   5.082  48.550  1.00  0.00     0.043 A 
HETATM   14  C16 UNL     1      27.513   6.309  48.094  1.00  0.00     0.124 A 
HETATM   15  F1  UNL     1      28.345   7.150  47.463  1.00  0.00    -0.205 F 
HETATM   16  C17 UNL     1      26.217   6.722  48.272  1.00  0.00     0.004 A 
HETATM   17  C18 UNL     1      25.799   8.063  47.768  1.00  0.00     0.054 C 
ENDBRANCH   8  10
ENDBRANCH   5   8
ENDBRANCH   2   5
BRANCH   3  18
HETATM   18  C4  UNL     1      23.233   2.434  52.655  1.00  0.00     0.003 C 
BRANCH  18  19
HETATM   19  C5  UNL     1      24.668   2.338  52.990  1.00  0.00     0.027 C 
HETATM   20  C6  UNL     1      25.531   1.387  53.368  1.00  0.00     0.061 C 
HETATM   21  N1  UNL     1      26.849   1.911  53.553  1.00  0.00    -0.251 NA
HETATM   22  C10 UNL     1      25.378  -0.054  53.613  1.00  0.00     0.178 C 
HETATM   23  C7  UNL     1      28.000   1.416  53.723  1.00  0.00     0.093 C 
HETATM   24  C9  UNL     1      28.187  -0.050  53.771  1.00  0.00     0.235 C 
HETATM   25  N2  UNL     1      27.376  -0.498  54.891  1.00  0.00    -0.191 NA
HETATM   26  N3  UNL     1      26.120  -0.490  54.798  1.00  0.00    -0.187 NA
HETATM   27  C11 UNL     1      23.966  -0.502  53.861  1.00  0.00     0.043 C 
BRANCH  23  28
HETATM   28  C8  UNL     1      29.105   2.365  53.871  1.00  0.00     0.287 C 
HETATM   29  O1  UNL     1      29.625   2.400  55.011  1.00  0.00    -0.300 OA
ENDBRANCH  23  28
ENDBRANCH  18  19
ENDBRANCH   3  18
TORSDOF 6
ENDMDL
MODEL 2
REMARK VINA RESULT:      -8.7      4.283      7.557
REMARK  6 active torsions:
REMARK  status: ('A' for Active; 'I' for Inactive)
REMARK    1  A    between atoms: C2_2  and  S1_17 
REMARK    2  A    between atoms: C3_3  and  C4_5 
REMARK    3  A    between atoms: C4_5  and  C5_6 
REMARK    4  A    between atoms: C7_9  and  C8_10 
REMARK    5  A    between atoms: S1_17  and  N4_20 
REMARK    6  A    between atoms: N4_20  and  C12_21 
ROOT
HETATM    1  C1  UNL     1      25.018   5.814  50.321  1.00  0.00     0.076 A 
HETATM    2  C2  UNL     1      25.624   4.627  50.192  1.00  0.00     0.171 A 
HETATM    3  C3  UNL     1      26.295   5.440  49.269  1.00  0.00     0.081 A 
HETATM    4 CL1  UNL     1      27.070   3.830  49.142  1.00  0.00    -0.175 Cl
ENDROOT
BRANCH   2   5
HETATM    5  S1  UNL     1      24.987   3.456  51.224  1.00  0.00     0.255 S 
HETATM    6  O2  UNL     1      23.821   4.084  51.978  1.00  0.00    -0.204 OA
HETATM    7  O3  UNL     1      24.305   2.363  50.383  1.00  0.00    -0.204 OA
BRANCH   5   8
HETATM    8  N4  UNL     1      26.035   2.748  52.367  1.00  0.00    -0.282 N 
HETATM    9  H12 UNL     1      26.321   3.409  53.159  1.00  0.00     0.178 HD
BRANCH   8  10
HETATM   10  C12 UNL     1      26.665   1.508  52.580  1.00  0.00     0.051 A 
HETATM   11  C13 UNL     1      26.046   0.336  52.219  1.00  0.00     0.031 A 
HETATM   12  C14 UNL     1      26.557  -0.934  52.384  1.00  0.00     0.005 A 
HETATM   13  C15 UNL     1      27.809  -1.042  52.965  1.00  0.00     0.043 A 
HETATM   14  C16 UNL     1      28.472   0.098  53.345  1.00  0.00     0.124 A 
HETATM   15  F1  UNL     1      29.685   0.058  53.916  1.00  0.00    -0.205 F 
HETATM   16  C17 UNL     1      27.908   1.333  53.155  1.00  0.00     0.004 A 
HETATM   17  C18 UNL     1      28.653   2.554  53.583  1.00  0.00     0.054 C 
ENDBRANCH   8  10
ENDBRANCH   5   8
ENDBRANCH   2   5
BRANCH   3  18
HETATM   18  C4  UNL     1      26.991   6.067  48.391  1.00  0.00     0.003 C 
BRANCH  18  19
HETATM   19  C5  UNL     1      28.384   5.598  48.250  1.00  0.00     0.027 C 
HETATM   20  C6  UNL     1      29.614   6.121  48.333  1.00  0.00     0.061 C 
HETATM   21  N1  UNL     1      30.624   5.138  48.089  1.00  0.00    -0.251 NA
HETATM   22  C10 UNL     1      30.100   7.477  48.626  1.00  0.00     0.178 C 
HETATM   23  C7  UNL     1      31.881   5.086  48.222  1.00  0.00     0.093 C 
HETATM   24  C9  UNL     1      32.630   6.251  48.739  1.00  0.00     0.235 C 
HETATM   25  N2  UNL     1      32.360   7.323  47.795  1.00  0.00    -0.191 NA
HETATM   26  N3  UNL     1      31.219   7.856  47.761  1.00  0.00    -0.187 NA
HETATM   27  C11 UNL     1      29.083   8.564  48.432  1.00  0.00     0.043 C 
BRANCH  23  28
HETATM   28  C8  UNL     1      32.528   3.831  47.836  1.00  0.00     0.287 C 
HETATM   29  O1  UNL     1      33.781   3.865  47.812  1.00  0.00    -0.300 OA
ENDBRANCH  23  28
ENDBRANCH  18  19
ENDBRANCH   3  18
TORSDOF 6
ENDMDL
MODEL 3
REMARK VINA RESULT:      -8.6      4.575      7.692
REMARK  6 active torsions:
REMARK  status: ('A' for Active; 'I' for Inactive)
REMARK    1  A    between atoms: C2_2  and  S1_17 
REMARK    2  A    between atoms: C3_3  and  C4_5 
REMARK    3  A    between atoms: C4_5  and  C5_6 
REMARK    4  A    between atoms: C7_9  and  C8_10 
REMARK    5  A    between atoms: S1_17  and  N4_20 
REMARK    6  A    between atoms: N4_20  and  C12_21 
ROOT
HETATM    1  C1  UNL     1      25.206   6.393  49.938  1.00  0.00     0.076 A 
HETATM    2  C2  UNL     1      25.726   5.171  49.767  1.00  0.00     0.171 A 
HETATM    3  C3  UNL     1      26.596   6.001  49.049  1.00  0.00     0.081 A 
HETATM    4 CL1  UNL     1      27.247   4.343  48.856  1.00  0.00    -0.175 Cl
ENDROOT
BRANCH   2   5
HETATM    5  S1  UNL     1      24.842   3.972  50.558  1.00  0.00     0.255 S 
HETATM    6  O2  UNL     1      23.615   4.629  51.177  1.00  0.00    -0.204 OA
HETATM    7  O3  UNL     1      24.234   3.024  49.510  1.00  0.00    -0.204 OA
BRANCH   5   8
HETATM    8  N4  UNL     1      25.630   3.074  51.773  1.00  0.00    -0.282 N 
HETATM    9  H12 UNL     1      26.254   3.665  52.411  1.00  0.00     0.178 HD
BRANCH   8  10
HETATM   10  C12 UNL     1      25.714   1.734  52.196  1.00  0.00     0.051 A 
HETATM   11  C13 UNL     1      26.880   1.023  52.046  1.00  0.00     0.031 A 
HETATM   12  C14 UNL     1      27.079  -0.291  52.413  1.00  0.00     0.005 A 
HETATM   13  C15 UNL     1      26.009  -0.958  52.984  1.00  0.00     0.043 A 
HETATM   14  C16 UNL     1      24.820  -0.295  53.156  1.00  0.00     0.124 A 
HETATM   15  F1  UNL     1      23.747  -0.889  53.700  1.00  0.00    -0.205 F 
HETATM   16  C17 UNL     1      24.685   1.013  52.770  1.00  0.00     0.004 A 
HETATM   17  C18 UNL     1      23.378   1.706  52.966  1.00  0.00     0.054 C 
ENDBRANCH   8  10
ENDBRANCH   5   8
ENDBRANCH   2   5
BRANCH   3  18
HETATM   18  C4  UNL     1      27.468   6.640  48.356  1.00  0.00     0.003 C 
BRANCH  18  19
HETATM   19  C5  UNL     1      28.747   5.930  48.158  1.00  0.00     0.027 C 
HETATM   20  C6  UNL     1      30.052   6.180  48.329  1.00  0.00     0.061 C 
HETATM   21  N1  UNL     1      30.859   5.063  47.949  1.00  0.00    -0.251 NA
HETATM   22  C10 UNL     1      30.781   7.355  48.827  1.00  0.00     0.178 C 
HETATM   23  C7  UNL     1      32.075   4.743  48.083  1.00  0.00     0.093 C 
HETATM   24  C9  UNL     1      33.018   5.648  48.775  1.00  0.00     0.235 C 
HETATM   25  N2  UNL     1      32.997   6.878  48.001  1.00  0.00    -0.191 NA
HETATM   26  N3  UNL     1      31.985   7.627  48.038  1.00  0.00    -0.187 NA
HETATM   27  C11 UNL     1      30.004   8.639  48.790  1.00  0.00     0.043 C 
BRANCH  23  28
HETATM   28  C8  UNL     1      32.480   3.454  47.518  1.00  0.00     0.287 C 
HETATM   29  O1  UNL     1      31.975   3.182  46.403  1.00  0.00    -0.300 OA
ENDBRANCH  23  28
ENDBRANCH  18  19
ENDBRANCH   3  18
TORSDOF 6
ENDMDL
MODEL 4
REMARK VINA RESULT:      -8.1      1.326      1.935
REMARK  6 active torsions:
REMARK  status: ('A' for Active; 'I' for Inactive)
REMARK    1  A    between atoms: C2_2  and  S1_17 
REMARK    2  A    between atoms: C3_3  and  C4_5 
REMARK    3  A    between atoms: C4_5  and  C5_6 
REMARK    4  A    between atoms: C7_9  and  C8_10 
REMARK    5  A    between atoms: S1_17  and  N4_20 
REMARK    6  A    between atoms: N4_20  and  C12_21 
ROOT
HETATM    1  C1  UNL     1      21.316   1.825  50.337  1.00  0.00     0.076 A 
HETATM    2  C2  UNL     1      21.772   3.033  50.691  1.00  0.00     0.171 A 
HETATM    3  C3  UNL     1      22.180   2.205  51.745  1.00  0.00     0.081 A 
HETATM    4 CL1  UNL     1      22.767   3.845  52.167  1.00  0.00    -0.175 Cl
ENDROOT
BRANCH   2   5
HETATM    5  S1  UNL     1      21.404   4.225  49.557  1.00  0.00     0.255 S 
HETATM    6  O2  UNL     1      20.239   3.723  48.713  1.00  0.00    -0.204 OA
HETATM    7  O3  UNL     1      20.804   5.441  50.283  1.00  0.00    -0.204 OA
BRANCH   5   8
HETATM    8  N4  UNL     1      22.644   4.726  48.500  1.00  0.00    -0.282 N 
HETATM    9  H12 UNL     1      22.422   4.567  47.465  1.00  0.00     0.178 HD
BRANCH   8  10
HETATM   10  C12 UNL     1      23.926   5.300  48.590  1.00  0.00     0.051 A 
HETATM   11  C13 UNL     1      24.138   6.605  48.216  1.00  0.00     0.031 A 
HETATM   12  C14 UNL     1      25.345   7.271  48.252  1.00  0.00     0.005 A 
HETATM   13  C15 UNL     1      26.445   6.565  48.707  1.00  0.00     0.043 A 
HETATM   14  C16 UNL     1      26.289   5.257  49.093  1.00  0.00     0.124 A 
HETATM   15  F1  UNL     1      27.318   4.520  49.539  1.00  0.00    -0.205 F 
HETATM   16  C17 UNL     1      25.061   4.650  49.033  1.00  0.00     0.004 A 
HETATM   17  C18 UNL     1      24.925   3.225  49.456  1.00  0.00     0.054 C 
ENDBRANCH   8  10
ENDBRANCH   5   8
ENDBRANCH   2   5
BRANCH   3  18
HETATM   18  C4  UNL     1      22.613   1.568  52.772  1.00  0.00     0.003 C 
BRANCH  18  19
HETATM   19  C5  UNL     1      24.063   1.696  53.019  1.00  0.00     0.027 C 
HETATM   20  C6  UNL     1      25.051   0.937  53.510  1.00  0.00     0.061 C 
HETATM   21  N1  UNL     1      26.303   1.627  53.500  1.00  0.00    -0.251 NA
HETATM   22  C10 UNL     1      25.082  -0.435  54.036  1.00  0.00     0.178 C 
HETATM   23  C7  UNL     1      27.512   1.302  53.681  1.00  0.00     0.093 C 
HETATM   24  C9  UNL     1      27.876  -0.096  53.995  1.00  0.00     0.235 C 
HETATM   25  N2  UNL     1      27.177  -0.399  55.233  1.00  0.00    -0.191 NA
HETATM   26  N3  UNL     1      25.926  -0.546  55.228  1.00  0.00    -0.187 NA
HETATM   27  C11 UNL     1      23.748  -0.975  54.463  1.00  0.00     0.043 C 
BRANCH  23  28
HETATM   28  C8  UNL     1      28.502   2.376  53.569  1.00  0.00     0.287 C 
HETATM   29  O1  UNL     1      29.301   2.463  54.531  1.00  0.00    -0.300 OA
ENDBRANCH  23  28
ENDBRANCH  18  19
ENDBRANCH   3  18
TORSDOF 6
ENDMDL
MODEL 5
REMARK VINA RESULT:      -7.9      3.928      8.129
REMARK  6 active torsions:
REMARK  status: ('A' for Active; 'I' for Inactive)
REMARK    1  A    between atoms: C2_2  and  S1_17 
REMARK    2  A    between atoms: C3_3  and  C4_5 
REMARK    3  A    between atoms: C4_5  and  C5_6 
REMARK    4  A    between atoms: C7_9  and  C8_10 
REMARK    5  A    between atoms: S1_17  and  N4_20 
REMARK    6  A    between atoms: N4_20  and  C12_21 
ROOT
HETATM    1  C1  UNL     1      24.994   5.025  50.494  1.00  0.00     0.076 A 
HETATM    2  C2  UNL     1      25.446   3.767  50.408  1.00  0.00     0.171 A 
HETATM    3  C3  UNL     1      26.263   4.472  49.514  1.00  0.00     0.081 A 
HETATM    4 CL1  UNL     1      26.826   2.772  49.441  1.00  0.00    -0.175 Cl
ENDROOT
BRANCH   2   5
HETATM    5  S1  UNL     1      24.609   2.706  51.416  1.00  0.00     0.255 S 
HETATM    6  O2  UNL     1      23.999   3.522  52.548  1.00  0.00    -0.204 OA
HETATM    7  O3  UNL     1      23.374   2.173  50.670  1.00  0.00    -0.204 OA
BRANCH   5   8
HETATM    8  N4  UNL     1      25.480   1.413  52.106  1.00  0.00    -0.282 N 
HETATM    9  H12 UNL     1      24.949   0.485  52.108  1.00  0.00     0.178 HD
BRANCH   8  10
HETATM   10  C12 UNL     1      26.736   1.201  52.706  1.00  0.00     0.051 A 
HETATM   11  C13 UNL     1      27.497   2.262  53.134  1.00  0.00     0.031 A 
HETATM   12  C14 UNL     1      28.739   2.180  53.726  1.00  0.00     0.005 A 
HETATM   13  C15 UNL     1      29.272   0.916  53.908  1.00  0.00     0.043 A 
HETATM   14  C16 UNL     1      28.554  -0.179  53.497  1.00  0.00     0.124 A 
HETATM   15  F1  UNL     1      29.019  -1.429  53.644  1.00  0.00    -0.205 F 
HETATM   16  C17 UNL     1      27.322  -0.031  52.914  1.00  0.00     0.004 A 
HETATM   17  C18 UNL     1      26.568  -1.242  52.475  1.00  0.00     0.054 C 
ENDBRANCH   8  10
ENDBRANCH   5   8
ENDBRANCH   2   5
BRANCH   3  18
HETATM   18  C4  UNL     1      27.078   4.989  48.666  1.00  0.00     0.003 C 
BRANCH  18  19
HETATM   19  C5  UNL     1      27.125   6.465  48.670  1.00  0.00     0.027 C 
HETATM   20  C6  UNL     1      28.042   7.422  48.480  1.00  0.00     0.061 C 
HETATM   21  N1  UNL     1      27.477   8.729  48.613  1.00  0.00    -0.251 NA
HETATM   22  C10 UNL     1      29.476   7.376  48.163  1.00  0.00     0.178 C 
HETATM   23  C7  UNL     1      27.863   9.907  48.363  1.00  0.00     0.093 C 
HETATM   24  C9  UNL     1      29.206  10.153  47.796  1.00  0.00     0.235 C 
HETATM   25  N2  UNL     1      30.134   9.615  48.777  1.00  0.00    -0.191 NA
HETATM   26  N3  UNL     1      30.237   8.369  48.925  1.00  0.00    -0.187 NA
HETATM   27  C11 UNL     1      30.145   6.067  48.467  1.00  0.00     0.043 C 
BRANCH  23  28
HETATM   28  C8  UNL     1      26.918  10.984  48.669  1.00  0.00     0.287 C 
HETATM   29  O1  UNL     1      27.438  12.110  48.850  1.00  0.00    -0.300 OA
ENDBRANCH  23  28
ENDBRANCH  18  19
ENDBRANCH   3  18
TORSDOF 6
ENDMDL
MODEL 6
REMARK VINA RESULT:      -7.9      3.432      4.326
REMARK  6 active torsions:
REMARK  status: ('A' for Active; 'I' for Inactive)
REMARK    1  A    between atoms: C2_2  and  S1_17 
REMARK    2  A    between atoms: C3_3  and  C4_5 
REMARK    3  A    between atoms: C4_5  and  C5_6 
REMARK    4  A    between atoms: C7_9  and  C8_10 
REMARK    5  A    between atoms: S1_17  and  N4_20 
REMARK    6  A    between atoms: N4_20  and  C12_21 
ROOT
HETATM    1  C1  UNL     1      19.224  -0.094  52.313  1.00  0.00     0.076 A 
HETATM    2  C2  UNL     1      19.687   1.153  52.153  1.00  0.00     0.171 A 
HETATM    3  C3  UNL     1      20.629   0.558  53.003  1.00  0.00     0.081 A 
HETATM    4 CL1  UNL     1      21.200   2.238  52.752  1.00  0.00    -0.175 Cl
ENDROOT
BRANCH   2   5
HETATM    5  S1  UNL     1      18.708   2.085  51.146  1.00  0.00     0.255 S 
HETATM    6  O2  UNL     1      17.580   1.196  50.638  1.00  0.00    -0.204 OA
HETATM    7  O3  UNL     1      17.966   3.132  51.995  1.00  0.00    -0.204 OA
BRANCH   5   8
HETATM    8  N4  UNL     1      19.438   2.833  49.799  1.00  0.00    -0.282 N 
HETATM    9  H12 UNL     1      18.842   2.802  48.911  1.00  0.00     0.178 HD
BRANCH   8  10
HETATM   10  C12 UNL     1      20.642   3.496  49.497  1.00  0.00     0.051 A 
HETATM   11  C13 UNL     1      20.695   4.868  49.450  1.00  0.00     0.031 A 
HETATM   12  C14 UNL     1      21.809   5.625  49.159  1.00  0.00     0.005 A 
HETATM   13  C15 UNL     1      22.984   4.946  48.889  1.00  0.00     0.043 A 
HETATM   14  C16 UNL     1      22.988   3.574  48.921  1.00  0.00     0.124 A 
HETATM   15  F1  UNL     1      24.094   2.859  48.665  1.00  0.00    -0.205 F 
HETATM   16  C17 UNL     1      21.845   2.877  49.217  1.00  0.00     0.004 A 
HETATM   17  C18 UNL     1      21.879   1.385  49.240  1.00  0.00     0.054 C 
ENDBRANCH   8  10
ENDBRANCH   5   8
ENDBRANCH   2   5
BRANCH   3  18
HETATM   18  C4  UNL     1      21.563   0.144  53.780  1.00  0.00     0.003 C 
BRANCH  18  19
HETATM   19  C5  UNL     1      22.930   0.516  53.364  1.00  0.00     0.027 C 
HETATM   20  C6  UNL     1      24.183   0.118  53.623  1.00  0.00     0.061 C 
HETATM   21  N1  UNL     1      25.143   0.886  52.892  1.00  0.00    -0.251 NA
HETATM   22  C10 UNL     1      24.732  -0.934  54.489  1.00  0.00     0.178 C 
HETATM   23  C7  UNL     1      26.382   0.791  52.659  1.00  0.00     0.093 C 
HETATM   24  C9  UNL     1      27.168  -0.330  53.216  1.00  0.00     0.235 C 
HETATM   25  N2  UNL     1      27.028  -0.210  54.658  1.00  0.00    -0.191 NA
HETATM   26  N3  UNL     1      25.928  -0.484  55.206  1.00  0.00    -0.187 NA
HETATM   27  C11 UNL     1      23.801  -1.413  55.564  1.00  0.00     0.043 C 
BRANCH  23  28
HETATM   28  C8  UNL     1      26.974   1.842  51.827  1.00  0.00     0.287 C 
HETATM   29  O1  UNL     1      27.933   2.456  52.351  1.00  0.00    -0.300 OA
ENDBRANCH  23  28
ENDBRANCH  18  19
ENDBRANCH   3  18
TORSDOF 6
ENDMDL
MODEL 7
REMARK VINA RESULT:      -7.9      4.052      8.069
REMARK  6 active torsions:
REMARK  status: ('A' for Active; 'I' for Inactive)
REMARK    1  A    between atoms: C2_2  and  S1_17 
REMARK    2  A    between atoms: C3_3  and  C4_5 
REMARK    3  A    between atoms: C4_5  and  C5_6 
REMARK    4  A    between atoms: C7_9  and  C8_10 
REMARK    5  A    between atoms: S1_17  and  N4_20 
REMARK    6  A    between atoms: N4_20  and  C12_21 
ROOT
HETATM    1  C1  UNL     1      23.935   4.070  51.701  1.00  0.00     0.076 A 
HETATM    2  C2  UNL     1      24.922   3.295  51.234  1.00  0.00     0.171 A 
HETATM    3  C3  UNL     1      24.668   4.177  50.176  1.00  0.00     0.081 A 
HETATM    4 CL1  UNL     1      25.989   3.110  49.604  1.00  0.00    -0.175 Cl
ENDROOT
BRANCH   2   5
HETATM    5  S1  UNL     1      25.418   2.131  52.349  1.00  0.00     0.255 S 
HETATM    6  O2  UNL     1      26.896   1.851  52.105  1.00  0.00    -0.204 OA
HETATM    7  O3  UNL     1      25.413   2.751  53.757  1.00  0.00    -0.204 OA
BRANCH   5   8
HETATM    8  N4  UNL     1      24.593   0.639  52.361  1.00  0.00    -0.282 N 
HETATM    9  H12 UNL     1      25.021  -0.097  51.714  1.00  0.00     0.178 HD
BRANCH   8  10
HETATM   10  C12 UNL     1      23.468   0.072  52.989  1.00  0.00     0.051 A 
HETATM   11  C13 UNL     1      23.597  -0.614  54.172  1.00  0.00     0.031 A 
HETATM   12  C14 UNL     1      22.574  -1.216  54.873  1.00  0.00     0.005 A 
HETATM   13  C15 UNL     1      21.300  -1.124  54.340  1.00  0.00     0.043 A 
HETATM   14  C16 UNL     1      21.115  -0.450  53.159  1.00  0.00     0.124 A 
HETATM   15  F1  UNL     1      19.906  -0.329  52.591  1.00  0.00    -0.205 F 
HETATM   16  C17 UNL     1      22.175   0.128  52.509  1.00  0.00     0.004 A 
HETATM   17  C18 UNL     1      21.942   0.851  51.223  1.00  0.00     0.054 C 
ENDBRANCH   8  10
ENDBRANCH   5   8
ENDBRANCH   2   5
BRANCH   3  18
HETATM   18  C4  UNL     1      24.541   4.915  49.133  1.00  0.00     0.003 C 
BRANCH  18  19
HETATM   19  C5  UNL     1      25.679   5.819  48.868  1.00  0.00     0.027 C 
HETATM   20  C6  UNL     1      26.105   7.017  49.290  1.00  0.00     0.061 C 
HETATM   21  N1  UNL     1      27.326   7.399  48.650  1.00  0.00    -0.251 NA
HETATM   22  C10 UNL     1      25.567   7.978  50.263  1.00  0.00     0.178 C 
HETATM   23  C7  UNL     1      28.188   8.308  48.823  1.00  0.00     0.093 C 
HETATM   24  C9  UNL     1      28.027   9.298  49.910  1.00  0.00     0.235 C 
HETATM   25  N2  UNL     1      26.769   9.970  49.625  1.00  0.00    -0.191 NA
HETATM   26  N3  UNL     1      25.680   9.359  49.789  1.00  0.00    -0.187 NA
HETATM   27  C11 UNL     1      24.109   7.802  50.579  1.00  0.00     0.043 C 
BRANCH  23  28
HETATM   28  C8  UNL     1      29.323   8.319  47.898  1.00  0.00     0.287 C 
HETATM   29  O1  UNL     1      29.587   7.214  47.369  1.00  0.00    -0.300 OA
ENDBRANCH  23  28
ENDBRANCH  18  19
ENDBRANCH   3  18
TORSDOF 6
ENDMDL
MODEL 8
REMARK VINA RESULT:      -7.5      3.335      4.202
REMARK  6 active torsions:
REMARK  status: ('A' for Active; 'I' for Inactive)
REMARK    1  A    between atoms: C2_2  and  S1_17 
REMARK    2  A    between atoms: C3_3  and  C4_5 
REMARK    3  A    between atoms: C4_5  and  C5_6 
REMARK    4  A    between atoms: C7_9  and  C8_10 
REMARK    5  A    between atoms: S1_17  and  N4_20 
REMARK    6  A    between atoms: N4_20  and  C12_21 
ROOT
HETATM    1  C1  UNL     1      19.440   0.633  51.950  1.00  0.00     0.076 A 
HETATM    2  C2  UNL     1      20.169   1.755  51.900  1.00  0.00     0.171 A 
HETATM    3  C3  UNL     1      20.978   0.870  52.624  1.00  0.00     0.081 A 
HETATM    4 CL1  UNL     1      21.909   2.398  52.524  1.00  0.00    -0.175 Cl
ENDROOT
BRANCH   2   5
HETATM    5  S1  UNL     1      19.397   2.995  51.057  1.00  0.00     0.255 S 
HETATM    6  O2  UNL     1      18.425   2.356  50.074  1.00  0.00    -0.204 OA
HETATM    7  O3  UNL     1      18.466   3.753  52.019  1.00  0.00    -0.204 OA
BRANCH   5   8
HETATM    8  N4  UNL     1      20.372   4.096  50.195  1.00  0.00    -0.282 N 
HETATM    9  H12 UNL     1      21.053   3.631  49.514  1.00  0.00     0.178 HD
BRANCH   8  10
HETATM   10  C12 UNL     1      20.558   5.490  50.118  1.00  0.00     0.051 A 
HETATM   11  C13 UNL     1      19.581   6.299  49.589  1.00  0.00     0.031 A 
HETATM   12  C14 UNL     1      19.652   7.670  49.455  1.00  0.00     0.005 A 
HETATM   13  C15 UNL     1      20.809   8.291  49.893  1.00  0.00     0.043 A 
HETATM   14  C16 UNL     1      21.816   7.529  50.429  1.00  0.00     0.124 A 
HETATM   15  F1  UNL     1      22.962   8.072  50.867  1.00  0.00    -0.205 F 
HETATM   16  C17 UNL     1      21.686   6.168  50.535  1.00  0.00     0.004 A 
HETATM   17  C18 UNL     1      22.802   5.366  51.119  1.00  0.00     0.054 C 
ENDBRANCH   8  10
ENDBRANCH   5   8
ENDBRANCH   2   5
BRANCH   3  18
HETATM   18  C4  UNL     1      21.817   0.168  53.297  1.00  0.00     0.003 C 
BRANCH  18  19
HETATM   19  C5  UNL     1      23.226   0.588  53.165  1.00  0.00     0.027 C 
HETATM   20  C6  UNL     1      24.420   0.197  53.630  1.00  0.00     0.061 C 
HETATM   21  N1  UNL     1      25.477   1.023  53.135  1.00  0.00    -0.251 NA
HETATM   22  C10 UNL     1      24.829  -0.896  54.523  1.00  0.00     0.178 C 
HETATM   23  C7  UNL     1      26.740   0.964  53.132  1.00  0.00     0.093 C 
HETATM   24  C9  UNL     1      27.440  -0.176  53.763  1.00  0.00     0.235 C 
HETATM   25  N2  UNL     1      27.032  -0.144  55.157  1.00  0.00    -0.191 NA
HETATM   26  N3  UNL     1      25.857  -0.470  55.475  1.00  0.00    -0.187 NA
HETATM   27  C11 UNL     1      23.727  -1.455  55.377  1.00  0.00     0.043 C 
BRANCH  23  28
HETATM   28  C8  UNL     1      27.446   2.072  52.485  1.00  0.00     0.287 C 
HETATM   29  O1  UNL     1      28.649   2.198  52.812  1.00  0.00    -0.300 OA
ENDBRANCH  23  28
ENDBRANCH  18  19
ENDBRANCH   3  18
TORSDOF 6
ENDMDL
MODEL 9
REMARK VINA RESULT:      -7.4      2.393      3.046
REMARK  6 active torsions:
REMARK  status: ('A' for Active; 'I' for Inactive)
REMARK    1  A    between atoms: C2_2  and  S1_17 
REMARK    2  A    between atoms: C3_3  and  C4_5 
REMARK    3  A    between atoms: C4_5  and  C5_6 
REMARK    4  A    between atoms: C7_9  and  C8_10 
REMARK    5  A    between atoms: S1_17  and  N4_20 
REMARK    6  A    between atoms: N4_20  and  C12_21 
ROOT
HETATM    1  C1  UNL     1      20.905   3.114  52.244  1.00  0.00     0.076 A 
HETATM    2  C2  UNL     1      21.357   2.356  51.236  1.00  0.00     0.171 A 
HETATM    3  C3  UNL     1      21.765   1.659  52.381  1.00  0.00     0.081 A 
HETATM    4 CL1  UNL     1      22.344   0.685  50.993  1.00  0.00    -0.175 Cl
ENDROOT
BRANCH   2   5
HETATM    5  S1  UNL     1      20.978   2.995  49.722  1.00  0.00     0.255 S 
HETATM    6  O2  UNL     1      20.161   1.953  48.968  1.00  0.00    -0.204 OA
HETATM    7  O3  UNL     1      19.980   4.152  49.901  1.00  0.00    -0.204 OA
BRANCH   5   8
HETATM    8  N4  UNL     1      22.268   3.481  48.720  1.00  0.00    -0.282 N 
HETATM    9  H12 UNL     1      22.107   3.284  47.681  1.00  0.00     0.178 HD
BRANCH   8  10
HETATM   10  C12 UNL     1      23.533   4.081  48.862  1.00  0.00     0.051 A 
HETATM   11  C13 UNL     1      24.593   3.369  49.368  1.00  0.00     0.031 A 
HETATM   12  C14 UNL     1      25.872   3.847  49.561  1.00  0.00     0.005 A 
HETATM   13  C15 UNL     1      26.114   5.165  49.212  1.00  0.00     0.043 A 
HETATM   14  C16 UNL     1      25.090   5.922  48.702  1.00  0.00     0.124 A 
HETATM   15  F1  UNL     1      25.261   7.205  48.349  1.00  0.00    -0.205 F 
HETATM   16  C17 UNL     1      23.838   5.387  48.535  1.00  0.00     0.004 A 
HETATM   17  C18 UNL     1      22.744   6.238  47.981  1.00  0.00     0.054 C 
ENDBRANCH   8  10
ENDBRANCH   5   8
ENDBRANCH   2   5
BRANCH   3  18
HETATM   18  C4  UNL     1      22.199   0.921  53.338  1.00  0.00     0.003 C 
BRANCH  18  19
HETATM   19  C5  UNL     1      23.556   0.375  53.137  1.00  0.00     0.027 C 
HETATM   20  C6  UNL     1      24.815   0.828  53.165  1.00  0.00     0.061 C 
HETATM   21  N1  UNL     1      25.757  -0.210  52.879  1.00  0.00    -0.251 NA
HETATM   22  C10 UNL     1      25.389   2.154  53.433  1.00  0.00     0.178 C 
HETATM   23  C7  UNL     1      27.013  -0.332  52.956  1.00  0.00     0.093 C 
HETATM   24  C9  UNL     1      27.849   0.789  53.436  1.00  0.00     0.235 C 
HETATM   25  N2  UNL     1      27.598   1.874  52.502  1.00  0.00    -0.191 NA
HETATM   26  N3  UNL     1      26.488   2.471  52.518  1.00  0.00    -0.187 NA
HETATM   27  C11 UNL     1      24.427   3.297  53.281  1.00  0.00     0.043 C 
BRANCH  23  28
HETATM   28  C8  UNL     1      27.572  -1.622  52.544  1.00  0.00     0.287 C 
HETATM   29  O1  UNL     1      26.724  -2.505  52.273  1.00  0.00    -0.300 OA
ENDBRANCH  23  28
ENDBRANCH  18  19
ENDBRANCH   3  18
TORSDOF 6
ENDMDL
