MODEL 1
REMARK VINA RESULT:      -9.6      0.000      0.000
REMARK  4 active torsions:
REMARK  status: ('A' for Active; 'I' for Inactive)
REMARK    1  A    between atoms: O1_2  and  C2_3 
REMARK    2  A    between atoms: C11_15  and  N3_16 
REMARK       I    between atoms: N3_16  and  C12_17 
REMARK       I    between atoms: C12_17  and  N4_19 
REMARK    3  A    between atoms: N4_19  and  C13_20 
REMARK    4  A    between atoms: C21_30  and  O4_31 
ROOT
HETATM    1  C2  UNL     1      24.146   2.335  52.340  1.00  0.00     0.080 C 
HETATM    2  C3  UNL     1      25.257   2.446  53.049  1.00  0.00     0.052 C 
HETATM    3  C4  UNL     1      26.188   1.525  53.690  1.00  0.00     0.037 A 
HETATM    4  C5  UNL     1      27.421   2.128  53.813  1.00  0.00     0.134 A 
HETATM    5  N1  UNL     1      28.460   1.483  54.378  1.00  0.00    -0.253 NA
HETATM    6  C6  UNL     1      28.284   0.219  54.831  1.00  0.00     0.235 A 
HETATM    7  N2  UNL     1      27.081  -0.393  54.721  1.00  0.00    -0.217 NA
HETATM    8  C7  UNL     1      26.022   0.219  54.164  1.00  0.00     0.182 A 
HETATM    9  O2  UNL     1      24.925  -0.675  54.198  1.00  0.00    -0.290 OA
HETATM   10  C8  UNL     1      23.544  -0.495  53.957  1.00  0.00     0.087 A 
HETATM   11  C9  UNL     1      22.847  -1.241  54.881  1.00  0.00     0.040 A 
HETATM   12  C10 UNL     1      21.477  -1.174  54.782  1.00  0.00     0.032 A 
HETATM   13  C11 UNL     1      20.782  -0.440  53.857  1.00  0.00     0.037 A 
HETATM   14  C19 UNL     1      21.553   0.273  52.972  1.00  0.00     0.042 A 
HETATM   15  C20 UNL     1      22.927   0.271  52.991  1.00  0.00     0.013 A 
HETATM   16  C21 UNL     1      23.345   1.157  51.879  1.00  0.00     0.213 C 
ENDROOT
BRANCH  13  17
HETATM   17  N3  UNL     1      19.380  -0.342  53.717  1.00  0.00    -0.309 N 
HETATM   18  C12 UNL     1      18.433  -1.333  53.386  1.00  0.00     0.325 C 
HETATM   19  O3  UNL     1      18.843  -2.500  53.171  1.00  0.00    -0.247 OA
HETATM   20  N4  UNL     1      17.045  -1.158  53.266  1.00  0.00    -0.309 N 
HETATM   21  H10 UNL     1      16.663  -0.181  53.442  1.00  0.00     0.170 HD
HETATM   22  H9  UNL     1      18.897   0.569  53.868  1.00  0.00     0.170 HD
BRANCH  20  23
HETATM   23  C13 UNL     1      16.306  -2.341  52.916  1.00  0.00     0.038 A 
HETATM   24  C14 UNL     1      15.557  -2.145  51.767  1.00  0.00     0.032 A 
HETATM   25  C15 UNL     1      14.785  -3.216  51.306  1.00  0.00     0.046 A 
HETATM   26  C16 UNL     1      14.782  -4.423  51.988  1.00  0.00     0.138 A 
HETATM   27  F1  UNL     1      14.049  -5.477  51.572  1.00  0.00    -0.204 F 
HETATM   28  C17 UNL     1      15.539  -4.589  53.131  1.00  0.00     0.074 A 
HETATM   29 CL1  UNL     1      15.576  -6.087  54.036  1.00  0.00    -0.081 Cl
HETATM   30  C18 UNL     1      16.305  -3.540  53.597  1.00  0.00     0.056 A 
ENDBRANCH  20  23
ENDBRANCH  13  17
BRANCH  16  31
HETATM   31  O4  UNL     1      22.209   1.640  51.258  1.00  0.00    -0.379 OA
HETATM   32  C22 UNL     1      22.256   1.501  49.875  1.00  0.00     0.202 C 
ENDBRANCH  16  31
BRANCH   1  33
HETATM   33  O1  UNL     1      23.607   3.544  51.937  1.00  0.00    -0.357 OA
HETATM   34  C1  UNL     1      23.440   4.625  52.826  1.00  0.00     0.209 C 
ENDBRANCH   1  33
TORSDOF 4
ENDMDL
MODEL 2
REMARK VINA RESULT:      -9.4      2.623      2.965
REMARK  4 active torsions:
REMARK  status: ('A' for Active; 'I' for Inactive)
REMARK    1  A    between atoms: O1_2  and  C2_3 
REMARK    2  A    between atoms: C11_15  and  N3_16 
REMARK       I    between atoms: N3_16  and  C12_17 
REMARK       I    between atoms: C12_17  and  N4_19 
REMARK    3  A    between atoms: N4_19  and  C13_20 
REMARK    4  A    between atoms: C21_30  and  O4_31 
ROOT
HETATM    1  C2  UNL     1      24.230   2.354  52.457  1.00  0.00     0.080 C 
HETATM    2  C3  UNL     1      25.338   2.460  53.172  1.00  0.00     0.052 C 
HETATM    3  C4  UNL     1      26.289   1.536  53.776  1.00  0.00     0.037 A 
HETATM    4  C5  UNL     1      27.508   2.161  53.924  1.00  0.00     0.134 A 
HETATM    5  N1  UNL     1      28.561   1.516  54.464  1.00  0.00    -0.253 NA
HETATM    6  C6  UNL     1      28.413   0.232  54.866  1.00  0.00     0.235 A 
HETATM    7  N2  UNL     1      27.224  -0.402  54.731  1.00  0.00    -0.217 NA
HETATM    8  C7  UNL     1      26.152   0.208  54.198  1.00  0.00     0.182 A 
HETATM    9  O2  UNL     1      25.075  -0.710  54.195  1.00  0.00    -0.290 OA
HETATM   10  C8  UNL     1      23.690  -0.552  53.960  1.00  0.00     0.087 A 
HETATM   11  C9  UNL     1      23.010  -1.349  54.854  1.00  0.00     0.040 A 
HETATM   12  C10 UNL     1      21.638  -1.309  54.756  1.00  0.00     0.032 A 
HETATM   13  C11 UNL     1      20.927  -0.554  53.860  1.00  0.00     0.037 A 
HETATM   14  C19 UNL     1      21.682   0.212  53.005  1.00  0.00     0.042 A 
HETATM   15  C20 UNL     1      23.056   0.239  53.025  1.00  0.00     0.013 A 
HETATM   16  C21 UNL     1      23.454   1.178  51.949  1.00  0.00     0.213 C 
ENDROOT
BRANCH  13  17
HETATM   17  N3  UNL     1      19.524  -0.481  53.723  1.00  0.00    -0.309 N 
HETATM   18  C12 UNL     1      18.738  -0.240  52.577  1.00  0.00     0.325 C 
HETATM   19  O3  UNL     1      19.323  -0.055  51.483  1.00  0.00    -0.247 OA
HETATM   20  N4  UNL     1      17.336  -0.184  52.520  1.00  0.00    -0.309 N 
HETATM   21  H10 UNL     1      16.807  -0.337  53.430  1.00  0.00     0.170 HD
HETATM   22  H9  UNL     1      18.905  -0.617  54.551  1.00  0.00     0.170 HD
BRANCH  20  23
HETATM   23  C13 UNL     1      16.786   0.079  51.217  1.00  0.00     0.038 A 
HETATM   24  C14 UNL     1      16.549   1.432  51.034  1.00  0.00     0.032 A 
HETATM   25  C15 UNL     1      16.014   1.835  49.808  1.00  0.00     0.046 A 
HETATM   26  C16 UNL     1      15.734   0.900  48.822  1.00  0.00     0.138 A 
HETATM   27  F1  UNL     1      15.216   1.254  47.627  1.00  0.00    -0.204 F 
HETATM   28  C17 UNL     1      15.980  -0.442  49.034  1.00  0.00     0.074 A 
HETATM   29 CL1  UNL     1      15.648  -1.670  47.831  1.00  0.00    -0.081 Cl
HETATM   30  C18 UNL     1      16.509  -0.854  50.240  1.00  0.00     0.056 A 
ENDBRANCH  20  23
ENDBRANCH  13  17
BRANCH  16  31
HETATM   31  O4  UNL     1      22.308   1.659  51.347  1.00  0.00    -0.379 OA
HETATM   32  C22 UNL     1      22.314   1.481  49.968  1.00  0.00     0.202 C 
ENDBRANCH  16  31
BRANCH   1  33
HETATM   33  O1  UNL     1      23.664   3.565  52.103  1.00  0.00    -0.357 OA
HETATM   34  C1  UNL     1      24.285   4.448  51.197  1.00  0.00     0.209 C 
ENDBRANCH   1  33
TORSDOF 4
ENDMDL
MODEL 3
REMARK VINA RESULT:      -8.9      6.490     10.663
REMARK  4 active torsions:
REMARK  status: ('A' for Active; 'I' for Inactive)
REMARK    1  A    between atoms: O1_2  and  C2_3 
REMARK    2  A    between atoms: C11_15  and  N3_16 
REMARK       I    between atoms: N3_16  and  C12_17 
REMARK       I    between atoms: C12_17  and  N4_19 
REMARK    3  A    between atoms: N4_19  and  C13_20 
REMARK    4  A    between atoms: C21_30  and  O4_31 
ROOT
HETATM    1  C2  UNL     1      24.642   0.939  53.404  1.00  0.00     0.080 C 
HETATM    2  C3  UNL     1      23.753   0.193  54.039  1.00  0.00     0.052 C 
HETATM    3  C4  UNL     1      22.359  -0.182  53.831  1.00  0.00     0.037 A 
HETATM    4  C5  UNL     1      22.103  -1.375  54.471  1.00  0.00     0.134 A 
HETATM    5  N1  UNL     1      20.880  -1.939  54.432  1.00  0.00    -0.253 NA
HETATM    6  C6  UNL     1      19.889  -1.318  53.750  1.00  0.00     0.235 A 
HETATM    7  N2  UNL     1      20.118  -0.145  53.114  1.00  0.00    -0.217 NA
HETATM    8  C7  UNL     1      21.324   0.448  53.131  1.00  0.00     0.182 A 
HETATM    9  O2  UNL     1      21.240   1.646  52.383  1.00  0.00    -0.290 OA
HETATM   10  C8  UNL     1      22.116   2.747  52.249  1.00  0.00     0.087 A 
HETATM   11  C9  UNL     1      21.358   3.897  52.221  1.00  0.00     0.040 A 
HETATM   12  C10 UNL     1      22.067   5.069  52.094  1.00  0.00     0.032 A 
HETATM   13  C11 UNL     1      23.431   5.167  51.996  1.00  0.00     0.037 A 
HETATM   14  C19 UNL     1      24.110   3.973  52.031  1.00  0.00     0.042 A 
HETATM   15  C20 UNL     1      23.491   2.752  52.156  1.00  0.00     0.013 A 
HETATM   16  C21 UNL     1      24.582   1.748  52.146  1.00  0.00     0.213 C 
ENDROOT
BRANCH  13  17
HETATM   17  N3  UNL     1      24.199   6.344  51.864  1.00  0.00    -0.309 N 
HETATM   18  C12 UNL     1      24.828   6.890  50.726  1.00  0.00     0.325 C 
HETATM   19  O3  UNL     1      24.722   6.277  49.636  1.00  0.00    -0.247 OA
HETATM   20  N4  UNL     1      25.580   8.074  50.673  1.00  0.00    -0.309 N 
HETATM   21  H10 UNL     1      25.690   8.620  51.579  1.00  0.00     0.170 HD
HETATM   22  H9  UNL     1      24.371   6.957  52.689  1.00  0.00     0.170 HD
BRANCH  20  23
HETATM   23  C13 UNL     1      26.114   8.404  49.378  1.00  0.00     0.038 A 
HETATM   24  C14 UNL     1      25.383   9.414  48.773  1.00  0.00     0.032 A 
HETATM   25  C15 UNL     1      25.790   9.838  47.506  1.00  0.00     0.046 A 
HETATM   26  C16 UNL     1      26.888   9.257  46.890  1.00  0.00     0.138 A 
HETATM   27  F1  UNL     1      27.309   9.642  45.667  1.00  0.00    -0.204 F 
HETATM   28  C17 UNL     1      27.598   8.252  47.518  1.00  0.00     0.074 A 
HETATM   29 CL1  UNL     1      28.992   7.479  46.793  1.00  0.00    -0.081 Cl
HETATM   30  C18 UNL     1      27.207   7.823  48.769  1.00  0.00     0.056 A 
ENDBRANCH  20  23
ENDBRANCH  13  17
BRANCH  16  31
HETATM   31  O4  UNL     1      25.785   2.415  52.017  1.00  0.00    -0.379 OA
HETATM   32  C22 UNL     1      26.537   1.954  50.941  1.00  0.00     0.202 C 
ENDBRANCH  16  31
BRANCH   1  33
HETATM   33  O1  UNL     1      25.881   0.989  54.017  1.00  0.00    -0.357 OA
HETATM   34  C1  UNL     1      26.625  -0.172  54.305  1.00  0.00     0.209 C 
ENDBRANCH   1  33
TORSDOF 4
ENDMDL
MODEL 4
REMARK VINA RESULT:      -8.8      5.448      7.213
REMARK  4 active torsions:
REMARK  status: ('A' for Active; 'I' for Inactive)
REMARK    1  A    between atoms: O1_2  and  C2_3 
REMARK    2  A    between atoms: C11_15  and  N3_16 
REMARK       I    between atoms: N3_16  and  C12_17 
REMARK       I    between atoms: C12_17  and  N4_19 
REMARK    3  A    between atoms: N4_19  and  C13_20 
REMARK    4  A    between atoms: C21_30  and  O4_31 
ROOT
HETATM    1  C2  UNL     1      26.690   7.893  48.676  1.00  0.00     0.080 C 
HETATM    2  C3  UNL     1      28.012   7.880  48.649  1.00  0.00     0.052 C 
HETATM    3  C4  UNL     1      29.044   6.915  48.287  1.00  0.00     0.037 A 
HETATM    4  C5  UNL     1      30.196   7.584  47.933  1.00  0.00     0.134 A 
HETATM    5  N1  UNL     1      31.302   6.914  47.557  1.00  0.00    -0.253 NA
HETATM    6  C6  UNL     1      31.278   5.562  47.529  1.00  0.00     0.235 A 
HETATM    7  N2  UNL     1      30.157   4.883  47.874  1.00  0.00    -0.217 NA
HETATM    8  C7  UNL     1      29.034   5.516  48.254  1.00  0.00     0.182 A 
HETATM    9  O2  UNL     1      28.053   4.540  48.546  1.00  0.00    -0.290 OA
HETATM   10  C8  UNL     1      26.792   4.618  49.181  1.00  0.00     0.087 A 
HETATM   11  C9  UNL     1      26.646   3.508  49.982  1.00  0.00     0.040 A 
HETATM   12  C10 UNL     1      25.460   3.432  50.676  1.00  0.00     0.032 A 
HETATM   13  C11 UNL     1      24.449   4.357  50.626  1.00  0.00     0.037 A 
HETATM   14  C19 UNL     1      24.676   5.433  49.802  1.00  0.00     0.042 A 
HETATM   15  C20 UNL     1      25.827   5.597  49.069  1.00  0.00     0.013 A 
HETATM   16  C21 UNL     1      25.653   6.870  48.329  1.00  0.00     0.213 C 
ENDROOT
BRANCH  13  17
HETATM   17  N3  UNL     1      23.219   4.321  51.318  1.00  0.00    -0.309 N 
HETATM   18  C12 UNL     1      22.356   3.235  51.572  1.00  0.00     0.325 C 
HETATM   19  O3  UNL     1      22.681   2.103  51.139  1.00  0.00    -0.247 OA
HETATM   20  N4  UNL     1      21.141   3.278  52.273  1.00  0.00    -0.309 N 
HETATM   21  H10 UNL     1      20.834   4.222  52.655  1.00  0.00     0.170 HD
HETATM   22  H9  UNL     1      22.822   5.190  51.735  1.00  0.00     0.170 HD
BRANCH  20  23
HETATM   23  C13 UNL     1      20.454   2.019  52.388  1.00  0.00     0.038 A 
HETATM   24  C14 UNL     1      19.336   1.979  51.572  1.00  0.00     0.032 A 
HETATM   25  C15 UNL     1      18.569   0.810  51.581  1.00  0.00     0.046 A 
HETATM   26  C16 UNL     1      18.931  -0.260  52.386  1.00  0.00     0.138 A 
HETATM   27  F1  UNL     1      18.214  -1.404  52.419  1.00  0.00    -0.204 F 
HETATM   28  C17 UNL     1      20.052  -0.191  53.189  1.00  0.00     0.074 A 
HETATM   29 CL1  UNL     1      20.560  -1.507  54.226  1.00  0.00    -0.081 Cl
HETATM   30  C18 UNL     1      20.818   0.957  53.190  1.00  0.00     0.056 A 
ENDBRANCH  20  23
ENDBRANCH  13  17
BRANCH  16  31
HETATM   31  O4  UNL     1      24.418   7.396  48.656  1.00  0.00    -0.379 OA
HETATM   32  C22 UNL     1      23.634   7.653  47.536  1.00  0.00     0.202 C 
ENDBRANCH  16  31
BRANCH   1  33
HETATM   33  O1  UNL     1      26.143   9.087  49.110  1.00  0.00    -0.357 OA
HETATM   34  C1  UNL     1      26.467  10.322  48.514  1.00  0.00     0.209 C 
ENDBRANCH   1  33
TORSDOF 4
ENDMDL
MODEL 5
REMARK VINA RESULT:      -8.7      8.793     11.968
REMARK  4 active torsions:
REMARK  status: ('A' for Active; 'I' for Inactive)
REMARK    1  A    between atoms: O1_2  and  C2_3 
REMARK    2  A    between atoms: C11_15  and  N3_16 
REMARK       I    between atoms: N3_16  and  C12_17 
REMARK       I    between atoms: C12_17  and  N4_19 
REMARK    3  A    between atoms: N4_19  and  C13_20 
REMARK    4  A    between atoms: C21_30  and  O4_31 
ROOT
HETATM    1  C2  UNL     1      32.370   4.579  47.242  1.00  0.00     0.080 C 
HETATM    2  C3  UNL     1      32.815   4.443  46.004  1.00  0.00     0.052 C 
HETATM    3  C4  UNL     1      33.074   5.334  44.879  1.00  0.00     0.037 A 
HETATM    4  C5  UNL     1      34.017   4.766  44.050  1.00  0.00     0.134 A 
HETATM    5  N1  UNL     1      34.430   5.394  42.932  1.00  0.00    -0.253 NA
HETATM    6  C6  UNL     1      33.907   6.603  42.623  1.00  0.00     0.235 A 
HETATM    7  N2  UNL     1      32.979   7.180  43.423  1.00  0.00    -0.217 NA
HETATM    8  C7  UNL     1      32.542   6.585  44.546  1.00  0.00     0.182 A 
HETATM    9  O2  UNL     1      31.586   7.432  45.153  1.00  0.00    -0.290 OA
HETATM   10  C8  UNL     1      30.665   7.226  46.206  1.00  0.00     0.087 A 
HETATM   11  C9  UNL     1      29.488   7.860  45.876  1.00  0.00     0.040 A 
HETATM   12  C10 UNL     1      28.479   7.753  46.806  1.00  0.00     0.032 A 
HETATM   13  C11 UNL     1      28.565   7.083  47.998  1.00  0.00     0.037 A 
HETATM   14  C19 UNL     1      29.773   6.481  48.249  1.00  0.00     0.042 A 
HETATM   15  C20 UNL     1      30.840   6.530  47.384  1.00  0.00     0.013 A 
HETATM   16  C21 UNL     1      31.925   5.765  48.041  1.00  0.00     0.213 C 
ENDROOT
BRANCH  13  17
HETATM   17  N3  UNL     1      27.559   6.948  48.980  1.00  0.00    -0.309 N 
HETATM   18  C12 UNL     1      26.705   5.861  49.257  1.00  0.00     0.325 C 
HETATM   19  O3  UNL     1      26.812   4.827  48.553  1.00  0.00    -0.247 OA
HETATM   20  N4  UNL     1      25.723   5.801  50.258  1.00  0.00    -0.309 N 
HETATM   21  H10 UNL     1      25.605   6.661  50.873  1.00  0.00     0.170 HD
HETATM   22  H9  UNL     1      27.358   7.730  49.640  1.00  0.00     0.170 HD
BRANCH  20  23
HETATM   23  C13 UNL     1      24.988   4.566  50.324  1.00  0.00     0.038 A 
HETATM   24  C14 UNL     1      23.887   4.589  49.483  1.00  0.00     0.032 A 
HETATM   25  C15 UNL     1      23.079   3.449  49.444  1.00  0.00     0.046 A 
HETATM   26  C16 UNL     1      23.383   2.346  50.227  1.00  0.00     0.138 A 
HETATM   27  F1  UNL     1      22.625   1.229  50.214  1.00  0.00    -0.204 F 
HETATM   28  C17 UNL     1      24.488   2.352  51.055  1.00  0.00     0.074 A 
HETATM   29 CL1  UNL     1      24.924   0.991  52.067  1.00  0.00    -0.081 Cl
HETATM   30  C18 UNL     1      25.295   3.470  51.104  1.00  0.00     0.056 A 
ENDBRANCH  20  23
ENDBRANCH  13  17
BRANCH  16  31
HETATM   31  O4  UNL     1      31.456   5.301  49.255  1.00  0.00    -0.379 OA
HETATM   32  C22 UNL     1      32.027   5.964  50.336  1.00  0.00     0.202 C 
ENDBRANCH  16  31
BRANCH   1  33
HETATM   33  O1  UNL     1      32.296   3.394  47.952  1.00  0.00    -0.357 OA
HETATM   34  C1  UNL     1      32.920   2.211  47.507  1.00  0.00     0.209 C 
ENDBRANCH   1  33
TORSDOF 4
ENDMDL
MODEL 6
REMARK VINA RESULT:      -8.7      2.684      3.002
REMARK  4 active torsions:
REMARK  status: ('A' for Active; 'I' for Inactive)
REMARK    1  A    between atoms: O1_2  and  C2_3 
REMARK    2  A    between atoms: C11_15  and  N3_16 
REMARK       I    between atoms: N3_16  and  C12_17 
REMARK       I    between atoms: C12_17  and  N4_19 
REMARK    3  A    between atoms: N4_19  and  C13_20 
REMARK    4  A    between atoms: C21_30  and  O4_31 
ROOT
HETATM    1  C2  UNL     1      23.177   2.379  51.363  1.00  0.00     0.080 C 
HETATM    2  C3  UNL     1      24.088   2.426  52.322  1.00  0.00     0.052 C 
HETATM    3  C4  UNL     1      24.736   1.460  53.200  1.00  0.00     0.037 A 
HETATM    4  C5  UNL     1      25.957   1.954  53.605  1.00  0.00     0.134 A 
HETATM    5  N1  UNL     1      26.756   1.247  54.428  1.00  0.00    -0.253 NA
HETATM    6  C6  UNL     1      26.348   0.032  54.861  1.00  0.00     0.235 A 
HETATM    7  N2  UNL     1      25.152  -0.473  54.476  1.00  0.00    -0.217 NA
HETATM    8  C7  UNL     1      24.328   0.202  53.657  1.00  0.00     0.182 A 
HETATM    9  O2  UNL     1      23.170  -0.584  53.446  1.00  0.00    -0.290 OA
HETATM   10  C8  UNL     1      21.915  -0.293  52.866  1.00  0.00     0.087 A 
HETATM   11  C9  UNL     1      20.942  -0.921  53.612  1.00  0.00     0.040 A 
HETATM   12  C10 UNL     1      19.651  -0.734  53.175  1.00  0.00     0.032 A 
HETATM   13  C11 UNL     1      19.279   0.009  52.085  1.00  0.00     0.037 A 
HETATM   14  C19 UNL     1      20.311   0.600  51.397  1.00  0.00     0.042 A 
HETATM   15  C20 UNL     1      21.632   0.474  51.755  1.00  0.00     0.013 A 
HETATM   16  C21 UNL     1      22.395   1.256  50.754  1.00  0.00     0.213 C 
ENDROOT
BRANCH  13  17
HETATM   17  N3  UNL     1      17.971   0.227  51.601  1.00  0.00    -0.309 N 
HETATM   18  C12 UNL     1      16.727  -0.043  52.206  1.00  0.00     0.325 C 
HETATM   19  O3  UNL     1      16.721  -0.557  53.351  1.00  0.00    -0.247 OA
HETATM   20  N4  UNL     1      15.458   0.204  51.658  1.00  0.00    -0.309 N 
HETATM   21  H10 UNL     1      15.425   0.639  50.689  1.00  0.00     0.170 HD
HETATM   22  H9  UNL     1      17.820   0.651  50.661  1.00  0.00     0.170 HD
BRANCH  20  23
HETATM   23  C13 UNL     1      14.346  -0.170  52.492  1.00  0.00     0.038 A 
HETATM   24  C14 UNL     1      13.914  -1.455  52.209  1.00  0.00     0.032 A 
HETATM   25  C15 UNL     1      12.837  -1.953  52.947  1.00  0.00     0.046 A 
HETATM   26  C16 UNL     1      12.234  -1.173  53.922  1.00  0.00     0.138 A 
HETATM   27  F1  UNL     1      11.191  -1.622  54.653  1.00  0.00    -0.204 F 
HETATM   28  C17 UNL     1      12.687   0.105  54.182  1.00  0.00     0.074 A 
HETATM   29 CL1  UNL     1      11.967   1.139  55.398  1.00  0.00    -0.081 Cl
HETATM   30  C18 UNL     1      13.749   0.609  53.461  1.00  0.00     0.056 A 
ENDBRANCH  20  23
ENDBRANCH  13  17
BRANCH  16  31
HETATM   31  O4  UNL     1      21.499   1.806  49.858  1.00  0.00    -0.379 OA
HETATM   32  C22 UNL     1      21.792   1.475  48.539  1.00  0.00     0.202 C 
ENDBRANCH  16  31
BRANCH   1  33
HETATM   33  O1  UNL     1      22.877   3.608  50.804  1.00  0.00    -0.357 OA
HETATM   34  C1  UNL     1      22.648   4.755  51.590  1.00  0.00     0.209 C 
ENDBRANCH   1  33
TORSDOF 4
ENDMDL
MODEL 7
REMARK VINA RESULT:      -8.4      6.262      9.861
REMARK  4 active torsions:
REMARK  status: ('A' for Active; 'I' for Inactive)
REMARK    1  A    between atoms: O1_2  and  C2_3 
REMARK    2  A    between atoms: C11_15  and  N3_16 
REMARK       I    between atoms: N3_16  and  C12_17 
REMARK       I    between atoms: C12_17  and  N4_19 
REMARK    3  A    between atoms: N4_19  and  C13_20 
REMARK    4  A    between atoms: C21_30  and  O4_31 
ROOT
HETATM    1  C2  UNL     1      22.707   6.014  48.064  1.00  0.00     0.080 C 
HETATM    2  C3  UNL     1      22.639   5.917  46.746  1.00  0.00     0.052 C 
HETATM    3  C4  UNL     1      21.786   5.225  45.788  1.00  0.00     0.037 A 
HETATM    4  C5  UNL     1      21.816   5.890  44.581  1.00  0.00     0.134 A 
HETATM    5  N1  UNL     1      21.107   5.448  43.524  1.00  0.00    -0.253 NA
HETATM    6  C6  UNL     1      20.354   4.331  43.655  1.00  0.00     0.235 A 
HETATM    7  N2  UNL     1      20.310   3.662  44.831  1.00  0.00    -0.217 NA
HETATM    8  C7  UNL     1      21.003   4.072  45.907  1.00  0.00     0.182 A 
HETATM    9  O2  UNL     1      20.749   3.170  46.968  1.00  0.00    -0.290 OA
HETATM   10  C8  UNL     1      21.361   2.989  48.229  1.00  0.00     0.087 A 
HETATM   11  C9  UNL     1      21.440   1.636  48.477  1.00  0.00     0.040 A 
HETATM   12  C10 UNL     1      22.016   1.288  49.676  1.00  0.00     0.032 A 
HETATM   13  C11 UNL     1      22.501   2.167  50.610  1.00  0.00     0.037 A 
HETATM   14  C19 UNL     1      22.383   3.496  50.284  1.00  0.00     0.042 A 
HETATM   15  C20 UNL     1      21.822   3.942  49.112  1.00  0.00     0.013 A 
HETATM   16  C21 UNL     1      21.892   5.422  49.172  1.00  0.00     0.213 C 
ENDROOT
BRANCH  13  17
HETATM   17  N3  UNL     1      23.099   1.856  51.851  1.00  0.00    -0.309 N 
HETATM   18  C12 UNL     1      24.430   1.497  52.149  1.00  0.00     0.325 C 
HETATM   19  O3  UNL     1      25.253   1.428  51.204  1.00  0.00    -0.247 OA
HETATM   20  N4  UNL     1      24.953   1.201  53.418  1.00  0.00    -0.309 N 
HETATM   21  H10 UNL     1      24.283   1.250  54.242  1.00  0.00     0.170 HD
HETATM   22  H9  UNL     1      22.535   1.873  52.728  1.00  0.00     0.170 HD
BRANCH  20  23
HETATM   23  C13 UNL     1      26.351   0.863  53.441  1.00  0.00     0.038 A 
HETATM   24  C14 UNL     1      27.138   1.988  53.627  1.00  0.00     0.032 A 
HETATM   25  C15 UNL     1      28.523   1.809  53.671  1.00  0.00     0.046 A 
HETATM   26  C16 UNL     1      29.072   0.544  53.531  1.00  0.00     0.138 A 
HETATM   27  F1  UNL     1      30.405   0.334  53.568  1.00  0.00    -0.204 F 
HETATM   28  C17 UNL     1      28.262  -0.560  53.347  1.00  0.00     0.074 A 
HETATM   29 CL1  UNL     1      28.894  -2.182  53.164  1.00  0.00    -0.081 Cl
HETATM   30  C18 UNL     1      26.893  -0.397  53.302  1.00  0.00     0.056 A 
ENDBRANCH  20  23
ENDBRANCH  13  17
BRANCH  16  31
HETATM   31  O4  UNL     1      22.485   5.780  50.367  1.00  0.00    -0.379 OA
HETATM   32  C22 UNL     1      21.757   6.744  51.057  1.00  0.00     0.202 C 
ENDBRANCH  16  31
BRANCH   1  33
HETATM   33  O1  UNL     1      23.732   6.821  48.522  1.00  0.00    -0.357 OA
HETATM   34  C1  UNL     1      24.291   7.846  47.733  1.00  0.00     0.209 C 
ENDBRANCH   1  33
TORSDOF 4
ENDMDL
MODEL 8
REMARK VINA RESULT:      -8.4      8.580     13.478
REMARK  4 active torsions:
REMARK  status: ('A' for Active; 'I' for Inactive)
REMARK    1  A    between atoms: O1_2  and  C2_3 
REMARK    2  A    between atoms: C11_15  and  N3_16 
REMARK       I    between atoms: N3_16  and  C12_17 
REMARK       I    between atoms: C12_17  and  N4_19 
REMARK    3  A    between atoms: N4_19  and  C13_20 
REMARK    4  A    between atoms: C21_30  and  O4_31 
ROOT
HETATM    1  C2  UNL     1      23.256   7.317  49.463  1.00  0.00     0.080 C 
HETATM    2  C3  UNL     1      22.252   6.484  49.680  1.00  0.00     0.052 C 
HETATM    3  C4  UNL     1      22.032   5.299  50.500  1.00  0.00     0.037 A 
HETATM    4  C5  UNL     1      20.685   5.160  50.757  1.00  0.00     0.134 A 
HETATM    5  N1  UNL     1      20.219   4.136  51.497  1.00  0.00    -0.253 NA
HETATM    6  C6  UNL     1      21.093   3.229  51.995  1.00  0.00     0.235 A 
HETATM    7  N2  UNL     1      22.421   3.345  51.754  1.00  0.00    -0.217 NA
HETATM    8  C7  UNL     1      22.923   4.353  51.020  1.00  0.00     0.182 A 
HETATM    9  O2  UNL     1      24.328   4.195  50.953  1.00  0.00    -0.290 OA
HETATM   10  C8  UNL     1      25.318   4.817  50.159  1.00  0.00     0.087 A 
HETATM   11  C9  UNL     1      26.233   3.857  49.787  1.00  0.00     0.040 A 
HETATM   12  C10 UNL     1      27.271   4.305  49.002  1.00  0.00     0.032 A 
HETATM   13  C11 UNL     1      27.450   5.597  48.581  1.00  0.00     0.037 A 
HETATM   14  C19 UNL     1      26.492   6.489  48.998  1.00  0.00     0.042 A 
HETATM   15  C20 UNL     1      25.419   6.139  49.782  1.00  0.00     0.013 A 
HETATM   16  C21 UNL     1      24.654   7.390  49.995  1.00  0.00     0.213 C 
ENDROOT
BRANCH  13  17
HETATM   17  N3  UNL     1      28.496   6.100  47.778  1.00  0.00    -0.309 N 
HETATM   18  C12 UNL     1      29.892   6.048  47.975  1.00  0.00     0.325 C 
HETATM   19  O3  UNL     1      30.326   5.480  49.006  1.00  0.00    -0.247 OA
HETATM   20  N4  UNL     1      30.877   6.575  47.125  1.00  0.00    -0.309 N 
HETATM   21  H10 UNL     1      30.545   7.063  46.241  1.00  0.00     0.170 HD
HETATM   22  H9  UNL     1      28.286   6.597  46.886  1.00  0.00     0.170 HD
BRANCH  20  23
HETATM   23  C13 UNL     1      32.234   6.383  47.566  1.00  0.00     0.038 A 
HETATM   24  C14 UNL     1      32.801   7.576  47.984  1.00  0.00     0.032 A 
HETATM   25  C15 UNL     1      34.121   7.539  48.441  1.00  0.00     0.046 A 
HETATM   26  C16 UNL     1      34.822   6.343  48.467  1.00  0.00     0.138 A 
HETATM   27  F1  UNL     1      36.098   6.272  48.903  1.00  0.00    -0.204 F 
HETATM   28  C17 UNL     1      34.230   5.170  48.044  1.00  0.00     0.074 A 
HETATM   29 CL1  UNL     1      35.062   3.629  48.053  1.00  0.00    -0.081 Cl
HETATM   30  C18 UNL     1      32.927   5.191  47.590  1.00  0.00     0.056 A 
ENDBRANCH  20  23
ENDBRANCH  13  17
BRANCH  16  31
HETATM   31  O4  UNL     1      25.303   8.414  49.333  1.00  0.00    -0.379 OA
HETATM   32  C22 UNL     1      25.987   9.261  50.199  1.00  0.00     0.202 C 
ENDBRANCH  16  31
BRANCH   1  33
HETATM   33  O1  UNL     1      22.970   8.329  48.564  1.00  0.00    -0.357 OA
HETATM   34  C1  UNL     1      22.154   8.121  47.434  1.00  0.00     0.209 C 
ENDBRANCH   1  33
TORSDOF 4
ENDMDL
MODEL 9
REMARK VINA RESULT:      -8.3      8.570     13.363
REMARK  4 active torsions:
REMARK  status: ('A' for Active; 'I' for Inactive)
REMARK    1  A    between atoms: O1_2  and  C2_3 
REMARK    2  A    between atoms: C11_15  and  N3_16 
REMARK       I    between atoms: N3_16  and  C12_17 
REMARK       I    between atoms: C12_17  and  N4_19 
REMARK    3  A    between atoms: N4_19  and  C13_20 
REMARK    4  A    between atoms: C21_30  and  O4_31 
ROOT
HETATM    1  C2  UNL     1      23.862   3.321  51.698  1.00  0.00     0.080 C 
HETATM    2  C3  UNL     1      22.623   3.157  52.131  1.00  0.00     0.052 C 
HETATM    3  C4  UNL     1      21.298   3.590  51.706  1.00  0.00     0.037 A 
HETATM    4  C5  UNL     1      20.351   2.709  52.181  1.00  0.00     0.134 A 
HETATM    5  N1  UNL     1      19.041   2.889  51.924  1.00  0.00    -0.253 NA
HETATM    6  C6  UNL     1      18.653   3.955  51.187  1.00  0.00     0.235 A 
HETATM    7  N2  UNL     1      19.566   4.835  50.710  1.00  0.00    -0.217 NA
HETATM    8  C7  UNL     1      20.881   4.689  50.945  1.00  0.00     0.182 A 
HETATM    9  O2  UNL     1      21.565   5.758  50.320  1.00  0.00    -0.290 OA
HETATM   10  C8  UNL     1      22.897   6.221  50.415  1.00  0.00     0.087 A 
HETATM   11  C9  UNL     1      22.874   7.598  50.408  1.00  0.00     0.040 A 
HETATM   12  C10 UNL     1      24.103   8.210  50.495  1.00  0.00     0.032 A 
HETATM   13  C11 UNL     1      25.308   7.563  50.586  1.00  0.00     0.037 A 
HETATM   14  C19 UNL     1      25.241   6.191  50.587  1.00  0.00     0.042 A 
HETATM   15  C20 UNL     1      24.062   5.490  50.504  1.00  0.00     0.013 A 
HETATM   16  C21 UNL     1      24.445   4.058  50.532  1.00  0.00     0.213 C 
ENDROOT
BRANCH  13  17
HETATM   17  N3  UNL     1      26.590   8.148  50.677  1.00  0.00    -0.309 N 
HETATM   18  C12 UNL     1      27.227   9.068  49.820  1.00  0.00     0.325 C 
HETATM   19  O3  UNL     1      26.605   9.462  48.803  1.00  0.00    -0.247 OA
HETATM   20  N4  UNL     1      28.513   9.609  49.978  1.00  0.00    -0.309 N 
HETATM   21  H10 UNL     1      29.069   9.297  50.830  1.00  0.00     0.170 HD
HETATM   22  H9  UNL     1      27.222   7.914  51.473  1.00  0.00     0.170 HD
BRANCH  20  23
HETATM   23  C13 UNL     1      28.922  10.530  48.952  1.00  0.00     0.038 A 
HETATM   24  C14 UNL     1      29.820   9.943  48.075  1.00  0.00     0.032 A 
HETATM   25  C15 UNL     1      30.303  10.725  47.023  1.00  0.00     0.046 A 
HETATM   26  C16 UNL     1      29.888  12.040  46.877  1.00  0.00     0.138 A 
HETATM   27  F1  UNL     1      30.334  12.823  45.873  1.00  0.00    -0.204 F 
HETATM   28  C17 UNL     1      28.991  12.598  47.767  1.00  0.00     0.074 A 
HETATM   29 CL1  UNL     1      28.430  14.252  47.637  1.00  0.00    -0.081 Cl
HETATM   30  C18 UNL     1      28.506  11.838  48.811  1.00  0.00     0.056 A 
ENDBRANCH  20  23
ENDBRANCH  13  17
BRANCH  16  31
HETATM   31  O4  UNL     1      25.821   3.979  50.631  1.00  0.00    -0.379 OA
HETATM   32  C22 UNL     1      26.384   3.199  49.625  1.00  0.00     0.202 C 
ENDBRANCH  16  31
BRANCH   1  33
HETATM   33  O1  UNL     1      24.822   2.689  52.469  1.00  0.00    -0.357 OA
HETATM   34  C1  UNL     1      24.567   1.476  53.139  1.00  0.00     0.209 C 
ENDBRANCH   1  33
TORSDOF 4
ENDMDL
