MODEL 1
REMARK VINA RESULT:      -7.0      0.000      0.000
REMARK  6 active torsions:
REMARK  status: ('A' for Active; 'I' for Inactive)
REMARK    1  A    between atoms: C6_6  and  N1_7 
REMARK    2  A    between atoms: N1_7  and  C7_8 
REMARK    3  A    between atoms: C7_8  and  C8_9 
REMARK    4  A    between atoms: C9_10  and  N2_11 
REMARK    5  A    between atoms: C10_12  and  C11_13 
REMARK    6  A    between atoms: C11_13  and  C12_14 
ROOT
HETATM    1  C8  UNL     1      25.188   2.750  51.052  1.00  0.00     0.012 C 
HETATM    2  C9  UNL     1      26.495   2.953  51.069  1.00  0.00     0.113 C 
ENDROOT
BRANCH   1   3
HETATM    3  C7  UNL     1      23.976   3.237  50.376  1.00  0.00     0.148 C 
BRANCH   3   4
HETATM    4  N1  UNL     1      23.011   2.164  50.101  1.00  0.00    -0.386 N 
HETATM    5  H7  UNL     1      22.822   1.677  49.198  1.00  0.00     0.160 HD
BRANCH   4   6
HETATM    6  C6  UNL     1      22.256   1.761  51.240  1.00  0.00     0.028 A 
HETATM    7  C5  UNL     1      21.137   2.443  51.657  1.00  0.00     0.029 A 
HETATM    8  C4  UNL     1      20.358   2.110  52.749  1.00  0.00     0.003 A 
HETATM    9  C3  UNL     1      20.734   1.006  53.476  1.00  0.00     0.007 A 
HETATM   10  C2  UNL     1      21.848   0.285  53.102  1.00  0.00    -0.060 A 
HETATM   11  C1  UNL     1      22.190  -0.896  53.940  1.00  0.00     0.048 C 
HETATM   12  C17 UNL     1      22.614   0.646  51.996  1.00  0.00     0.036 A 
ENDBRANCH   4   6
ENDBRANCH   3   4
ENDBRANCH   1   3
BRANCH   2  13
HETATM   13  N2  UNL     1      27.434   2.250  51.908  1.00  0.00    -0.276 NA
HETATM   14  C10 UNL     1      26.918   1.460  52.790  1.00  0.00     0.108 C 
BRANCH  14  15
HETATM   15  C11 UNL     1      27.773   0.694  53.699  1.00  0.00     0.072 C 
HETATM   16  C13 UNL     1      28.177  -0.601  53.008  1.00  0.00     0.053 C 
HETATM   17  C14 UNL     1      26.934  -1.356  52.711  1.00  0.00    -0.001 C 
HETATM   18  C15 UNL     1      25.880  -1.312  53.500  1.00  0.00     0.130 C 
HETATM   19  O2  UNL     1      25.984  -0.525  54.625  1.00  0.00    -0.362 OA
HETATM   20  C16 UNL     1      27.057   0.314  54.954  1.00  0.00     0.197 C 
BRANCH  15  21
HETATM   21  C12 UNL     1      29.011   1.501  53.993  1.00  0.00     0.248 C 
HETATM   22  O1  UNL     1      29.290   2.249  54.928  1.00  0.00    -0.306 OA
ENDBRANCH  15  21
ENDBRANCH  14  15
ENDBRANCH   2  13
TORSDOF 6
ENDMDL
MODEL 2
REMARK VINA RESULT:      -6.8      2.331      4.700
REMARK  6 active torsions:
REMARK  status: ('A' for Active; 'I' for Inactive)
REMARK    1  A    between atoms: C6_6  and  N1_7 
REMARK    2  A    between atoms: N1_7  and  C7_8 
REMARK    3  A    between atoms: C7_8  and  C8_9 
REMARK    4  A    between atoms: C9_10  and  N2_11 
REMARK    5  A    between atoms: C10_12  and  C11_13 
REMARK    6  A    between atoms: C11_13  and  C12_14 
ROOT
HETATM    1  C8  UNL     1      24.473   3.204  51.899  1.00  0.00     0.012 C 
HETATM    2  C9  UNL     1      24.669   3.154  53.206  1.00  0.00     0.113 C 
ENDROOT
BRANCH   1   3
HETATM    3  C7  UNL     1      23.588   3.842  50.912  1.00  0.00     0.148 C 
BRANCH   3   4
HETATM    4  N1  UNL     1      24.086   3.708  49.536  1.00  0.00    -0.386 N 
HETATM    5  H7  UNL     1      23.863   2.969  48.834  1.00  0.00     0.160 HD
BRANCH   4   6
HETATM    6  C6  UNL     1      24.988   4.739  49.145  1.00  0.00     0.028 A 
HETATM    7  C5  UNL     1      24.569   6.024  48.893  1.00  0.00     0.029 A 
HETATM    8  C4  UNL     1      25.386   7.072  48.511  1.00  0.00     0.003 A 
HETATM    9  C3  UNL     1      26.726   6.805  48.372  1.00  0.00     0.007 A 
HETATM   10  C2  UNL     1      27.201   5.533  48.612  1.00  0.00    -0.060 A 
HETATM   11  C1  UNL     1      28.664   5.324  48.438  1.00  0.00     0.048 C 
HETATM   12  C17 UNL     1      26.353   4.497  48.995  1.00  0.00     0.036 A 
ENDBRANCH   4   6
ENDBRANCH   3   4
ENDBRANCH   1   3
BRANCH   2  13
HETATM   13  N2  UNL     1      25.692   2.377  53.863  1.00  0.00    -0.276 NA
HETATM   14  C10 UNL     1      26.433   1.655  53.089  1.00  0.00     0.108 C 
BRANCH  14  15
HETATM   15  C11 UNL     1      27.504   0.824  53.642  1.00  0.00     0.072 C 
HETATM   16  C13 UNL     1      27.751  -0.342  52.695  1.00  0.00     0.053 C 
HETATM   17  C14 UNL     1      26.490  -1.120  52.605  1.00  0.00    -0.001 C 
HETATM   18  C15 UNL     1      25.667  -1.241  53.626  1.00  0.00     0.130 C 
HETATM   19  O2  UNL     1      26.031  -0.607  54.793  1.00  0.00    -0.362 OA
HETATM   20  C16 UNL     1      27.134   0.241  54.966  1.00  0.00     0.197 C 
BRANCH  15  21
HETATM   21  C12 UNL     1      28.758   1.654  53.737  1.00  0.00     0.248 C 
HETATM   22  O1  UNL     1      29.145   2.447  54.594  1.00  0.00    -0.306 OA
ENDBRANCH  15  21
ENDBRANCH  14  15
ENDBRANCH   2  13
TORSDOF 6
ENDMDL
MODEL 3
REMARK VINA RESULT:      -6.8      2.414      4.047
REMARK  6 active torsions:
REMARK  status: ('A' for Active; 'I' for Inactive)
REMARK    1  A    between atoms: C6_6  and  N1_7 
REMARK    2  A    between atoms: N1_7  and  C7_8 
REMARK    3  A    between atoms: C7_8  and  C8_9 
REMARK    4  A    between atoms: C9_10  and  N2_11 
REMARK    5  A    between atoms: C10_12  and  C11_13 
REMARK    6  A    between atoms: C11_13  and  C12_14 
ROOT
HETATM    1  C8  UNL     1      23.097  -1.187  54.808  1.00  0.00     0.012 C 
HETATM    2  C9  UNL     1      24.229  -1.287  55.487  1.00  0.00     0.113 C 
ENDROOT
BRANCH   1   3
HETATM    3  C7  UNL     1      21.659  -1.456  54.963  1.00  0.00     0.148 C 
BRANCH   3   4
HETATM    4  N1  UNL     1      20.835  -0.256  54.764  1.00  0.00    -0.386 N 
HETATM    5  H7  UNL     1      20.434   0.382  55.486  1.00  0.00     0.160 HD
BRANCH   4   6
HETATM    6  C6  UNL     1      20.572   0.045  53.397  1.00  0.00     0.028 A 
HETATM    7  C5  UNL     1      19.343  -0.174  52.821  1.00  0.00     0.029 A 
HETATM    8  C4  UNL     1      19.018   0.094  51.504  1.00  0.00     0.003 A 
HETATM    9  C3  UNL     1      20.006   0.621  50.707  1.00  0.00     0.007 A 
HETATM   10  C2  UNL     1      21.257   0.860  51.234  1.00  0.00    -0.060 A 
HETATM   11  C1  UNL     1      22.272   1.430  50.307  1.00  0.00     0.048 C 
HETATM   12  C17 UNL     1      21.555   0.579  52.565  1.00  0.00     0.036 A 
ENDBRANCH   4   6
ENDBRANCH   3   4
ENDBRANCH   1   3
BRANCH   2  13
HETATM   13  N2  UNL     1      25.528  -0.905  54.992  1.00  0.00    -0.276 NA
HETATM   14  C10 UNL     1      25.577  -0.552  53.751  1.00  0.00     0.108 C 
BRANCH  14  15
HETATM   15  C11 UNL     1      26.842  -0.144  53.137  1.00  0.00     0.072 C 
HETATM   16  C13 UNL     1      27.379   1.064  53.893  1.00  0.00     0.053 C 
HETATM   17  C14 UNL     1      26.375   2.150  53.772  1.00  0.00    -0.001 C 
HETATM   18  C15 UNL     1      25.633   2.303  52.695  1.00  0.00     0.130 C 
HETATM   19  O2  UNL     1      25.831   1.400  51.675  1.00  0.00    -0.362 OA
HETATM   20  C16 UNL     1      26.666   0.274  51.714  1.00  0.00     0.197 C 
BRANCH  15  21
HETATM   21  C12 UNL     1      27.826  -1.278  53.261  1.00  0.00     0.248 C 
HETATM   22  O1  UNL     1      27.727  -2.473  52.986  1.00  0.00    -0.306 OA
ENDBRANCH  15  21
ENDBRANCH  14  15
ENDBRANCH   2  13
TORSDOF 6
ENDMDL
MODEL 4
REMARK VINA RESULT:      -6.7      2.711      4.027
REMARK  6 active torsions:
REMARK  status: ('A' for Active; 'I' for Inactive)
REMARK    1  A    between atoms: C6_6  and  N1_7 
REMARK    2  A    between atoms: N1_7  and  C7_8 
REMARK    3  A    between atoms: C7_8  and  C8_9 
REMARK    4  A    between atoms: C9_10  and  N2_11 
REMARK    5  A    between atoms: C10_12  and  C11_13 
REMARK    6  A    between atoms: C11_13  and  C12_14 
ROOT
HETATM    1  C8  UNL     1      22.830  -0.997  53.577  1.00  0.00     0.012 C 
HETATM    2  C9  UNL     1      23.675  -0.011  53.828  1.00  0.00     0.113 C 
ENDROOT
BRANCH   1   3
HETATM    3  C7  UNL     1      21.620  -1.621  54.136  1.00  0.00     0.148 C 
BRANCH   3   4
HETATM    4  N1  UNL     1      20.556  -0.645  54.408  1.00  0.00    -0.386 N 
HETATM    5  H7  UNL     1      20.452  -0.011  55.230  1.00  0.00     0.160 HD
BRANCH   4   6
HETATM    6  C6  UNL     1      19.555  -0.585  53.396  1.00  0.00     0.028 A 
HETATM    7  C5  UNL     1      18.397  -1.323  53.464  1.00  0.00     0.029 A 
HETATM    8  C4  UNL     1      17.386  -1.314  52.521  1.00  0.00     0.003 A 
HETATM    9  C3  UNL     1      17.554  -0.500  51.428  1.00  0.00     0.007 A 
HETATM   10  C2  UNL     1      18.697   0.263  51.308  1.00  0.00    -0.060 A 
HETATM   11  C1  UNL     1      18.804   1.117  50.095  1.00  0.00     0.048 C 
HETATM   12  C17 UNL     1      19.699   0.232  52.275  1.00  0.00     0.036 A 
ENDBRANCH   4   6
ENDBRANCH   3   4
ENDBRANCH   1   3
BRANCH   2  13
HETATM   13  N2  UNL     1      24.815   0.333  53.015  1.00  0.00    -0.276 NA
HETATM   14  C10 UNL     1      25.695   1.095  53.574  1.00  0.00     0.108 C 
BRANCH  14  15
HETATM   15  C11 UNL     1      26.896   1.511  52.845  1.00  0.00     0.072 C 
HETATM   16  C13 UNL     1      27.623   0.265  52.359  1.00  0.00     0.053 C 
HETATM   17  C14 UNL     1      27.997  -0.530  53.554  1.00  0.00    -0.001 C 
HETATM   18  C15 UNL     1      28.317   0.034  54.701  1.00  0.00     0.130 C 
HETATM   19  O2  UNL     1      28.287   1.410  54.741  1.00  0.00    -0.362 OA
HETATM   20  C16 UNL     1      27.849   2.261  53.718  1.00  0.00     0.197 C 
BRANCH  15  21
HETATM   21  C12 UNL     1      26.476   2.332  51.654  1.00  0.00     0.248 C 
HETATM   22  O1  UNL     1      26.853   2.316  50.483  1.00  0.00    -0.306 OA
ENDBRANCH  15  21
ENDBRANCH  14  15
ENDBRANCH   2  13
TORSDOF 6
ENDMDL
MODEL 5
REMARK VINA RESULT:      -6.7      3.482      5.975
REMARK  6 active torsions:
REMARK  status: ('A' for Active; 'I' for Inactive)
REMARK    1  A    between atoms: C6_6  and  N1_7 
REMARK    2  A    between atoms: N1_7  and  C7_8 
REMARK    3  A    between atoms: C7_8  and  C8_9 
REMARK    4  A    between atoms: C9_10  and  N2_11 
REMARK    5  A    between atoms: C10_12  and  C11_13 
REMARK    6  A    between atoms: C11_13  and  C12_14 
ROOT
HETATM    1  C8  UNL     1      26.732   3.167  50.727  1.00  0.00     0.012 C 
HETATM    2  C9  UNL     1      25.992   2.721  51.729  1.00  0.00     0.113 C 
ENDROOT
BRANCH   1   3
HETATM    3  C7  UNL     1      26.591   3.870  49.443  1.00  0.00     0.148 C 
BRANCH   3   4
HETATM    4  N1  UNL     1      27.616   4.905  49.250  1.00  0.00    -0.386 N 
HETATM    5  H7  UNL     1      28.606   4.909  49.583  1.00  0.00     0.160 HD
BRANCH   4   6
HETATM    6  C6  UNL     1      27.165   6.034  48.508  1.00  0.00     0.028 A 
HETATM    7  C5  UNL     1      25.839   6.394  48.453  1.00  0.00     0.029 A 
HETATM    8  C4  UNL     1      25.332   7.474  47.754  1.00  0.00     0.003 A 
HETATM    9  C3  UNL     1      26.228   8.249  47.058  1.00  0.00     0.007 A 
HETATM   10  C2  UNL     1      27.570   7.933  47.078  1.00  0.00    -0.060 A 
HETATM   11  C1  UNL     1      28.475   8.820  46.299  1.00  0.00     0.048 C 
HETATM   12  C17 UNL     1      28.051   6.838  47.791  1.00  0.00     0.036 A 
ENDBRANCH   4   6
ENDBRANCH   3   4
ENDBRANCH   1   3
BRANCH   2  13
HETATM   13  N2  UNL     1      26.497   2.038  52.895  1.00  0.00    -0.276 NA
HETATM   14  C10 UNL     1      27.441   1.183  52.681  1.00  0.00     0.108 C 
BRANCH  14  15
HETATM   15  C11 UNL     1      28.033   0.429  53.787  1.00  0.00     0.072 C 
HETATM   16  C13 UNL     1      28.488  -0.926  53.262  1.00  0.00     0.053 C 
HETATM   17  C14 UNL     1      27.290  -1.631  52.742  1.00  0.00    -0.001 C 
HETATM   18  C15 UNL     1      26.099  -1.482  53.284  1.00  0.00     0.130 C 
HETATM   19  O2  UNL     1      26.014  -0.634  54.366  1.00  0.00    -0.362 OA
HETATM   20  C16 UNL     1      27.045   0.165  54.877  1.00  0.00     0.197 C 
BRANCH  15  21
HETATM   21  C12 UNL     1      29.230   1.185  54.300  1.00  0.00     0.248 C 
HETATM   22  O1  UNL     1      29.319   2.151  55.057  1.00  0.00    -0.306 OA
ENDBRANCH  15  21
ENDBRANCH  14  15
ENDBRANCH   2  13
TORSDOF 6
ENDMDL
MODEL 6
REMARK VINA RESULT:      -6.6      3.904      6.866
REMARK  6 active torsions:
REMARK  status: ('A' for Active; 'I' for Inactive)
REMARK    1  A    between atoms: C6_6  and  N1_7 
REMARK    2  A    between atoms: N1_7  and  C7_8 
REMARK    3  A    between atoms: C7_8  and  C8_9 
REMARK    4  A    between atoms: C9_10  and  N2_11 
REMARK    5  A    between atoms: C10_12  and  C11_13 
REMARK    6  A    between atoms: C11_13  and  C12_14 
ROOT
HETATM    1  C8  UNL     1      26.010   3.651  50.392  1.00  0.00     0.012 C 
HETATM    2  C9  UNL     1      26.592   2.567  50.878  1.00  0.00     0.113 C 
ENDROOT
BRANCH   1   3
HETATM    3  C7  UNL     1      26.270   4.747  49.446  1.00  0.00     0.148 C 
BRANCH   3   4
HETATM    4  N1  UNL     1      27.704   4.977  49.229  1.00  0.00    -0.386 N 
HETATM    5  H7  UNL     1      28.514   4.454  49.630  1.00  0.00     0.160 HD
BRANCH   4   6
HETATM    6  C6  UNL     1      27.989   6.061  48.350  1.00  0.00     0.028 A 
HETATM    7  C5  UNL     1      27.029   6.968  47.969  1.00  0.00     0.029 A 
HETATM    8  C4  UNL     1      27.234   8.041  47.122  1.00  0.00     0.003 A 
HETATM    9  C3  UNL     1      28.501   8.213  46.620  1.00  0.00     0.007 A 
HETATM   10  C2  UNL     1      29.503   7.332  46.969  1.00  0.00    -0.060 A 
HETATM   11  C1  UNL     1      30.847   7.585  46.384  1.00  0.00     0.048 C 
HETATM   12  C17 UNL     1      29.265   6.260  47.825  1.00  0.00     0.036 A 
ENDBRANCH   4   6
ENDBRANCH   3   4
ENDBRANCH   1   3
BRANCH   2  13
HETATM   13  N2  UNL     1      26.007   1.674  51.848  1.00  0.00    -0.276 NA
HETATM   14  C10 UNL     1      26.805   0.794  52.356  1.00  0.00     0.108 C 
BRANCH  14  15
HETATM   15  C11 UNL     1      26.323  -0.166  53.351  1.00  0.00     0.072 C 
HETATM   16  C13 UNL     1      26.864   0.237  54.716  1.00  0.00     0.053 C 
HETATM   17  C14 UNL     1      28.346   0.199  54.639  1.00  0.00    -0.001 C 
HETATM   18  C15 UNL     1      28.987  -0.674  53.889  1.00  0.00     0.130 C 
HETATM   19  O2  UNL     1      28.214  -1.558  53.171  1.00  0.00    -0.362 OA
HETATM   20  C16 UNL     1      26.815  -1.550  53.077  1.00  0.00     0.197 C 
BRANCH  15  21
HETATM   21  C12 UNL     1      24.818  -0.113  53.384  1.00  0.00     0.248 C 
HETATM   22  O1  UNL     1      23.993  -0.809  53.974  1.00  0.00    -0.306 OA
ENDBRANCH  15  21
ENDBRANCH  14  15
ENDBRANCH   2  13
TORSDOF 6
ENDMDL
MODEL 7
REMARK VINA RESULT:      -6.6      5.147      7.052
REMARK  6 active torsions:
REMARK  status: ('A' for Active; 'I' for Inactive)
REMARK    1  A    between atoms: C6_6  and  N1_7 
REMARK    2  A    between atoms: N1_7  and  C7_8 
REMARK    3  A    between atoms: C7_8  and  C8_9 
REMARK    4  A    between atoms: C9_10  and  N2_11 
REMARK    5  A    between atoms: C10_12  and  C11_13 
REMARK    6  A    between atoms: C11_13  and  C12_14 
ROOT
HETATM    1  C8  UNL     1      26.949   4.138  49.227  1.00  0.00     0.012 C 
HETATM    2  C9  UNL     1      27.640   5.069  48.590  1.00  0.00     0.113 C 
ENDROOT
BRANCH   1   3
HETATM    3  C7  UNL     1      25.588   3.880  49.723  1.00  0.00     0.148 C 
BRANCH   3   4
HETATM    4  N1  UNL     1      25.505   3.913  51.189  1.00  0.00    -0.386 N 
HETATM    5  H7  UNL     1      25.626   4.730  51.828  1.00  0.00     0.160 HD
BRANCH   4   6
HETATM    6  C6  UNL     1      25.221   2.649  51.781  1.00  0.00     0.028 A 
HETATM    7  C5  UNL     1      24.029   2.386  52.413  1.00  0.00     0.029 A 
HETATM    8  C4  UNL     1      23.686   1.185  53.007  1.00  0.00     0.003 A 
HETATM    9  C3  UNL     1      24.615   0.174  52.961  1.00  0.00     0.007 A 
HETATM   10  C2  UNL     1      25.828   0.383  52.340  1.00  0.00    -0.060 A 
HETATM   11  C1  UNL     1      26.779  -0.760  52.333  1.00  0.00     0.048 C 
HETATM   12  C17 UNL     1      26.144   1.604  51.751  1.00  0.00     0.036 A 
ENDBRANCH   4   6
ENDBRANCH   3   4
ENDBRANCH   1   3
BRANCH   2  13
HETATM   13  N2  UNL     1      29.039   4.978  48.251  1.00  0.00    -0.276 NA
HETATM   14  C10 UNL     1      29.692   6.093  48.254  1.00  0.00     0.108 C 
BRANCH  14  15
HETATM   15  C11 UNL     1      31.118   6.125  47.925  1.00  0.00     0.072 C 
HETATM   16  C13 UNL     1      31.886   6.609  49.147  1.00  0.00     0.053 C 
HETATM   17  C14 UNL     1      31.401   7.975  49.468  1.00  0.00    -0.001 C 
HETATM   18  C15 UNL     1      31.015   8.820  48.534  1.00  0.00     0.130 C 
HETATM   19  O2  UNL     1      31.081   8.375  47.233  1.00  0.00    -0.362 OA
HETATM   20  C16 UNL     1      31.416   7.079  46.815  1.00  0.00     0.197 C 
BRANCH  15  21
HETATM   21  C12 UNL     1      31.567   4.728  47.585  1.00  0.00     0.248 C 
HETATM   22  O1  UNL     1      32.517   4.059  47.989  1.00  0.00    -0.306 OA
ENDBRANCH  15  21
ENDBRANCH  14  15
ENDBRANCH   2  13
TORSDOF 6
ENDMDL
MODEL 8
REMARK VINA RESULT:      -6.6      5.018      7.544
REMARK  6 active torsions:
REMARK  status: ('A' for Active; 'I' for Inactive)
REMARK    1  A    between atoms: C6_6  and  N1_7 
REMARK    2  A    between atoms: N1_7  and  C7_8 
REMARK    3  A    between atoms: C7_8  and  C8_9 
REMARK    4  A    between atoms: C9_10  and  N2_11 
REMARK    5  A    between atoms: C10_12  and  C11_13 
REMARK    6  A    between atoms: C11_13  and  C12_14 
ROOT
HETATM    1  C8  UNL     1      27.123   4.348  49.310  1.00  0.00     0.012 C 
HETATM    2  C9  UNL     1      26.729   5.460  48.711  1.00  0.00     0.113 C 
ENDROOT
BRANCH   1   3
HETATM    3  C7  UNL     1      26.563   3.133  49.922  1.00  0.00     0.148 C 
BRANCH   3   4
HETATM    4  N1  UNL     1      26.459   3.233  51.384  1.00  0.00    -0.386 N 
HETATM    5  H7  UNL     1      26.028   3.994  51.953  1.00  0.00     0.160 HD
BRANCH   4   6
HETATM    6  C6  UNL     1      27.029   2.130  52.081  1.00  0.00     0.028 A 
HETATM    7  C5  UNL     1      28.060   2.282  52.977  1.00  0.00     0.029 A 
HETATM    8  C4  UNL     1      28.661   1.258  53.687  1.00  0.00     0.003 A 
HETATM    9  C3  UNL     1      28.186  -0.014  53.478  1.00  0.00     0.007 A 
HETATM   10  C2  UNL     1      27.153  -0.224  52.589  1.00  0.00    -0.060 A 
HETATM   11  C1  UNL     1      26.697  -1.630  52.418  1.00  0.00     0.048 C 
HETATM   12  C17 UNL     1      26.569   0.828  51.888  1.00  0.00     0.036 A 
ENDBRANCH   4   6
ENDBRANCH   3   4
ENDBRANCH   1   3
BRANCH   2  13
HETATM   13  N2  UNL     1      27.606   6.489  48.210  1.00  0.00    -0.276 NA
HETATM   14  C10 UNL     1      28.858   6.177  48.144  1.00  0.00     0.108 C 
BRANCH  14  15
HETATM   15  C11 UNL     1      29.844   7.141  47.651  1.00  0.00     0.072 C 
HETATM   16  C13 UNL     1      30.965   6.378  46.960  1.00  0.00     0.053 C 
HETATM   17  C14 UNL     1      31.583   5.480  47.969  1.00  0.00    -0.001 C 
HETATM   18  C15 UNL     1      31.674   5.812  49.240  1.00  0.00     0.130 C 
HETATM   19  O2  UNL     1      31.166   7.041  49.597  1.00  0.00    -0.362 OA
HETATM   20  C16 UNL     1      30.467   7.923  48.761  1.00  0.00     0.197 C 
BRANCH  15  21
HETATM   21  C12 UNL     1      29.175   8.045  46.649  1.00  0.00     0.248 C 
HETATM   22  O1  UNL     1      28.997   7.924  45.438  1.00  0.00    -0.306 OA
ENDBRANCH  15  21
ENDBRANCH  14  15
ENDBRANCH   2  13
TORSDOF 6
ENDMDL
MODEL 9
REMARK VINA RESULT:      -6.5      2.860      5.732
REMARK  6 active torsions:
REMARK  status: ('A' for Active; 'I' for Inactive)
REMARK    1  A    between atoms: C6_6  and  N1_7 
REMARK    2  A    between atoms: N1_7  and  C7_8 
REMARK    3  A    between atoms: C7_8  and  C8_9 
REMARK    4  A    between atoms: C9_10  and  N2_11 
REMARK    5  A    between atoms: C10_12  and  C11_13 
REMARK    6  A    between atoms: C11_13  and  C12_14 
ROOT
HETATM    1  C8  UNL     1      24.671   3.243  51.645  1.00  0.00     0.012 C 
HETATM    2  C9  UNL     1      25.204   2.060  51.384  1.00  0.00     0.113 C 
ENDROOT
BRANCH   1   3
HETATM    3  C7  UNL     1      24.390   4.527  50.985  1.00  0.00     0.148 C 
BRANCH   3   4
HETATM    4  N1  UNL     1      24.553   4.460  49.526  1.00  0.00    -0.386 N 
HETATM    5  H7  UNL     1      23.924   4.017  48.822  1.00  0.00     0.160 HD
BRANCH   4   6
HETATM    6  C6  UNL     1      25.736   5.094  49.048  1.00  0.00     0.028 A 
HETATM    7  C5  UNL     1      26.952   4.453  49.021  1.00  0.00     0.029 A 
HETATM    8  C4  UNL     1      28.137   5.006  48.572  1.00  0.00     0.003 A 
HETATM    9  C3  UNL     1      28.094   6.301  48.116  1.00  0.00     0.007 A 
HETATM   10  C2  UNL     1      26.900   6.991  48.121  1.00  0.00    -0.060 A 
HETATM   11  C1  UNL     1      26.936   8.389  47.612  1.00  0.00     0.048 C 
HETATM   12  C17 UNL     1      25.722   6.407  48.580  1.00  0.00     0.036 A 
ENDBRANCH   4   6
ENDBRANCH   3   4
ENDBRANCH   1   3
BRANCH   2  13
HETATM   13  N2  UNL     1      25.320   0.975  52.328  1.00  0.00    -0.276 NA
HETATM   14  C10 UNL     1      26.503   0.764  52.800  1.00  0.00     0.108 C 
BRANCH  14  15
HETATM   15  C11 UNL     1      26.743  -0.311  53.765  1.00  0.00     0.072 C 
HETATM   16  C13 UNL     1      27.448   0.277  54.980  1.00  0.00     0.053 C 
HETATM   17  C14 UNL     1      28.737   0.848  54.515  1.00  0.00    -0.001 C 
HETATM   18  C15 UNL     1      29.425   0.315  53.527  1.00  0.00     0.130 C 
HETATM   19  O2  UNL     1      28.889  -0.808  52.936  1.00  0.00    -0.362 OA
HETATM   20  C16 UNL     1      27.636  -1.372  53.212  1.00  0.00     0.197 C 
BRANCH  15  21
HETATM   21  C12 UNL     1      25.415  -0.878  54.195  1.00  0.00     0.248 C 
HETATM   22  O1  UNL     1      25.002  -1.232  55.298  1.00  0.00    -0.306 OA
ENDBRANCH  15  21
ENDBRANCH  14  15
ENDBRANCH   2  13
TORSDOF 6
ENDMDL
