MODEL 1
REMARK VINA RESULT:      -7.1      0.000      0.000
REMARK  8 active torsions:
REMARK  status: ('A' for Active; 'I' for Inactive)
REMARK    1  A    between atoms: C2_2  and  C3_3 
REMARK    2  A    between atoms: C3_3  and  N1_4 
REMARK    3  A    between atoms: N1_4  and  C4_5 
REMARK    4  A    between atoms: N1_4  and  N2_14 
REMARK    5  A    between atoms: C4_5  and  C5_6 
REMARK    6  A    between atoms: C10_12  and  O1_13 
REMARK    7  A    between atoms: N2_14  and  C11_15 
REMARK    8  A    between atoms: C16_20  and  S1_21 
ROOT
HETATM    1  N1  UNL     1      25.611   2.844  51.129  1.00  0.00    -0.323 N 
ENDROOT
BRANCH   1   2
HETATM    2  C3  UNL     1      26.531   3.134  50.104  1.00  0.00     0.142 C 
BRANCH   2   3
HETATM    3  C2  UNL     1      26.340   4.483  49.494  1.00  0.00     0.017 C 
HETATM    4  C1  UNL     1      27.564   4.796  48.662  1.00  0.00     0.007 C 
ENDBRANCH   2   3
ENDBRANCH   1   2
BRANCH   1   5
HETATM    5  C4  UNL     1      26.084   2.578  52.421  1.00  0.00     0.183 C 
BRANCH   5   6
HETATM    6  C5  UNL     1      26.707   1.244  52.624  1.00  0.00    -0.004 A 
HETATM    7  C6  UNL     1      25.968   0.065  52.472  1.00  0.00     0.012 A 
HETATM    8  C7  UNL     1      26.461  -1.213  52.640  1.00  0.00     0.002 A 
HETATM    9  C8  UNL     1      27.808  -1.332  52.990  1.00  0.00     0.026 A 
HETATM   10  C9  UNL     1      28.586  -0.204  53.153  1.00  0.00     0.067 A 
HETATM   11 CL1  UNL     1      30.263  -0.395  53.589  1.00  0.00    -0.081 Cl
HETATM   12  C10 UNL     1      28.027   1.042  52.969  1.00  0.00     0.095 A 
BRANCH  12  13
HETATM   13  O1  UNL     1      28.835   2.145  53.140  1.00  0.00    -0.358 OA
HETATM   14  H13 UNL     1      29.003   2.601  54.019  1.00  0.00     0.217 HD
ENDBRANCH  12  13
ENDBRANCH   5   6
ENDBRANCH   1   5
BRANCH   1  15
HETATM   15  N2  UNL     1      24.298   3.116  50.931  1.00  0.00    -0.301 N 
HETATM   16  H14 UNL     1      24.058   3.991  51.447  1.00  0.00     0.187 HD
BRANCH  15  17
HETATM   17  C11 UNL     1      23.304   2.430  50.183  1.00  0.00     0.064 A 
HETATM   18  C12 UNL     1      23.181   2.588  48.820  1.00  0.00     0.032 A 
HETATM   19  C13 UNL     1      22.228   1.932  48.090  1.00  0.00     0.002 A 
HETATM   20  C14 UNL     1      21.351   1.076  48.738  1.00  0.00     0.002 A 
HETATM   21  C15 UNL     1      21.463   0.909  50.104  1.00  0.00     0.021 A 
HETATM   22  C16 UNL     1      22.435   1.580  50.833  1.00  0.00     0.028 A 
BRANCH  22  23
HETATM   23  S1  UNL     1      22.526   1.315  52.612  1.00  0.00    -0.132 SA
HETATM   24  C17 UNL     1      22.280  -0.437  52.931  1.00  0.00     0.095 C 
ENDBRANCH  22  23
ENDBRANCH  15  17
ENDBRANCH   1  15
TORSDOF 8
ENDMDL
MODEL 2
REMARK VINA RESULT:      -7.1      2.607      3.969
REMARK  8 active torsions:
REMARK  status: ('A' for Active; 'I' for Inactive)
REMARK    1  A    between atoms: C2_2  and  C3_3 
REMARK    2  A    between atoms: C3_3  and  N1_4 
REMARK    3  A    between atoms: N1_4  and  C4_5 
REMARK    4  A    between atoms: N1_4  and  N2_14 
REMARK    5  A    between atoms: C4_5  and  C5_6 
REMARK    6  A    between atoms: C10_12  and  O1_13 
REMARK    7  A    between atoms: N2_14  and  C11_15 
REMARK    8  A    between atoms: C16_20  and  S1_21 
ROOT
HETATM    1  N1  UNL     1      24.873   1.884  52.207  1.00  0.00    -0.323 N 
ENDROOT
BRANCH   1   2
HETATM    2  C3  UNL     1      24.372   2.915  53.023  1.00  0.00     0.142 C 
BRANCH   2   3
HETATM    3  C2  UNL     1      23.146   3.568  52.475  1.00  0.00     0.017 C 
HETATM    4  C1  UNL     1      23.360   5.065  52.510  1.00  0.00     0.007 C 
ENDBRANCH   2   3
ENDBRANCH   1   2
BRANCH   1   5
HETATM    5  C4  UNL     1      26.166   1.994  51.677  1.00  0.00     0.183 C 
BRANCH   5   6
HETATM    6  C5  UNL     1      27.260   1.432  52.510  1.00  0.00    -0.004 A 
HETATM    7  C6  UNL     1      28.043   2.251  53.332  1.00  0.00     0.012 A 
HETATM    8  C7  UNL     1      29.077   1.819  54.136  1.00  0.00     0.002 A 
HETATM    9  C8  UNL     1      29.361   0.450  54.125  1.00  0.00     0.026 A 
HETATM   10  C9  UNL     1      28.622  -0.405  53.334  1.00  0.00     0.067 A 
HETATM   11 CL1  UNL     1      29.006  -2.106  53.348  1.00  0.00    -0.081 Cl
HETATM   12  C10 UNL     1      27.602   0.096  52.555  1.00  0.00     0.095 A 
BRANCH  12  13
HETATM   13  O1  UNL     1      26.886  -0.790  51.779  1.00  0.00    -0.358 OA
HETATM   14  H13 UNL     1      26.856  -1.783  51.923  1.00  0.00     0.217 HD
ENDBRANCH  12  13
ENDBRANCH   5   6
ENDBRANCH   1   5
BRANCH   1  15
HETATM   15  N2  UNL     1      24.234   0.689  52.190  1.00  0.00    -0.301 N 
HETATM   16  H14 UNL     1      24.217   0.334  51.208  1.00  0.00     0.187 HD
BRANCH  15  17
HETATM   17  C11 UNL     1      23.641  -0.069  53.235  1.00  0.00     0.064 A 
HETATM   18  C12 UNL     1      24.381  -0.553  54.292  1.00  0.00     0.032 A 
HETATM   19  C13 UNL     1      23.822  -1.284  55.304  1.00  0.00     0.002 A 
HETATM   20  C14 UNL     1      22.461  -1.550  55.272  1.00  0.00     0.002 A 
HETATM   21  C15 UNL     1      21.709  -1.071  54.220  1.00  0.00     0.021 A 
HETATM   22  C16 UNL     1      22.288  -0.331  53.199  1.00  0.00     0.028 A 
BRANCH  22  23
HETATM   23  S1  UNL     1      21.247   0.265  51.856  1.00  0.00    -0.132 SA
HETATM   24  C17 UNL     1      19.543   0.269  52.427  1.00  0.00     0.095 C 
ENDBRANCH  22  23
ENDBRANCH  15  17
ENDBRANCH   1  15
TORSDOF 8
ENDMDL
MODEL 3
REMARK VINA RESULT:      -7.0      1.697      3.909
REMARK  8 active torsions:
REMARK  status: ('A' for Active; 'I' for Inactive)
REMARK    1  A    between atoms: C2_2  and  C3_3 
REMARK    2  A    between atoms: C3_3  and  N1_4 
REMARK    3  A    between atoms: N1_4  and  C4_5 
REMARK    4  A    between atoms: N1_4  and  N2_14 
REMARK    5  A    between atoms: C4_5  and  C5_6 
REMARK    6  A    between atoms: C10_12  and  O1_13 
REMARK    7  A    between atoms: N2_14  and  C11_15 
REMARK    8  A    between atoms: C16_20  and  S1_21 
ROOT
HETATM    1  N1  UNL     1      24.433   0.798  52.672  1.00  0.00    -0.323 N 
ENDROOT
BRANCH   1   2
HETATM    2  C3  UNL     1      24.045   0.008  53.770  1.00  0.00     0.142 C 
BRANCH   2   3
HETATM    3  C2  UNL     1      22.843  -0.836  53.503  1.00  0.00     0.017 C 
HETATM    4  C1  UNL     1      21.973  -0.813  54.740  1.00  0.00     0.007 C 
ENDBRANCH   2   3
ENDBRANCH   1   2
BRANCH   1   5
HETATM    5  C4  UNL     1      25.587   0.454  51.953  1.00  0.00     0.183 C 
BRANCH   5   6
HETATM    6  C5  UNL     1      26.880   0.707  52.639  1.00  0.00    -0.004 A 
HETATM    7  C6  UNL     1      27.277   2.003  52.989  1.00  0.00     0.012 A 
HETATM    8  C7  UNL     1      28.456   2.332  53.625  1.00  0.00     0.002 A 
HETATM    9  C8  UNL     1      29.321   1.281  53.942  1.00  0.00     0.026 A 
HETATM   10  C9  UNL     1      28.982  -0.017  53.621  1.00  0.00     0.067 A 
HETATM   11 CL1  UNL     1      30.087  -1.301  54.034  1.00  0.00    -0.081 Cl
HETATM   12  C10 UNL     1      27.786  -0.274  52.985  1.00  0.00     0.095 A 
BRANCH  12  13
HETATM   13  O1  UNL     1      27.483  -1.583  52.681  1.00  0.00    -0.358 OA
HETATM   14  H13 UNL     1      27.401  -2.323  53.355  1.00  0.00     0.217 HD
ENDBRANCH  12  13
ENDBRANCH   5   6
ENDBRANCH   1   5
BRANCH   1  15
HETATM   15  N2  UNL     1      23.548   1.680  52.150  1.00  0.00    -0.301 N 
HETATM   16  H14 UNL     1      23.270   2.355  52.896  1.00  0.00     0.187 HD
BRANCH  15  17
HETATM   17  C11 UNL     1      23.002   1.792  50.843  1.00  0.00     0.064 A 
HETATM   18  C12 UNL     1      21.991   0.967  50.403  1.00  0.00     0.032 A 
HETATM   19  C13 UNL     1      21.457   1.066  49.147  1.00  0.00     0.002 A 
HETATM   20  C14 UNL     1      21.947   2.031  48.280  1.00  0.00     0.002 A 
HETATM   21  C15 UNL     1      22.960   2.864  48.708  1.00  0.00     0.021 A 
HETATM   22  C16 UNL     1      23.492   2.753  49.985  1.00  0.00     0.028 A 
BRANCH  22  23
HETATM   23  S1  UNL     1      24.813   3.874  50.479  1.00  0.00    -0.132 SA
HETATM   24  C17 UNL     1      26.320   3.369  49.640  1.00  0.00     0.095 C 
ENDBRANCH  22  23
ENDBRANCH  15  17
ENDBRANCH   1  15
TORSDOF 8
ENDMDL
MODEL 4
REMARK VINA RESULT:      -7.0      2.306      3.329
REMARK  8 active torsions:
REMARK  status: ('A' for Active; 'I' for Inactive)
REMARK    1  A    between atoms: C2_2  and  C3_3 
REMARK    2  A    between atoms: C3_3  and  N1_4 
REMARK    3  A    between atoms: N1_4  and  C4_5 
REMARK    4  A    between atoms: N1_4  and  N2_14 
REMARK    5  A    between atoms: C4_5  and  C5_6 
REMARK    6  A    between atoms: C10_12  and  O1_13 
REMARK    7  A    between atoms: N2_14  and  C11_15 
REMARK    8  A    between atoms: C16_20  and  S1_21 
ROOT
HETATM    1  N1  UNL     1      25.203   1.795  52.307  1.00  0.00    -0.323 N 
ENDROOT
BRANCH   1   2
HETATM    2  C3  UNL     1      25.531   2.911  51.514  1.00  0.00     0.142 C 
BRANCH   2   3
HETATM    3  C2  UNL     1      26.500   2.602  50.421  1.00  0.00     0.017 C 
HETATM    4  C1  UNL     1      26.634   3.836  49.555  1.00  0.00     0.007 C 
ENDBRANCH   2   3
ENDBRANCH   1   2
BRANCH   1   5
HETATM    5  C4  UNL     1      25.815   1.639  53.558  1.00  0.00     0.183 C 
BRANCH   5   6
HETATM    6  C5  UNL     1      27.116   0.921  53.561  1.00  0.00    -0.004 A 
HETATM    7  C6  UNL     1      28.315   1.590  53.832  1.00  0.00     0.012 A 
HETATM    8  C7  UNL     1      29.566   1.008  53.855  1.00  0.00     0.002 A 
HETATM    9  C8  UNL     1      29.634  -0.362  53.585  1.00  0.00     0.026 A 
HETATM   10  C9  UNL     1      28.484  -1.073  53.312  1.00  0.00     0.067 A 
HETATM   11 CL1  UNL     1      28.609  -2.780  52.981  1.00  0.00    -0.081 Cl
HETATM   12  C10 UNL     1      27.266  -0.426  53.305  1.00  0.00     0.095 A 
BRANCH  12  13
HETATM   13  O1  UNL     1      26.140  -1.170  53.028  1.00  0.00    -0.358 OA
HETATM   14  H13 UNL     1      25.682  -1.781  53.680  1.00  0.00     0.217 HD
ENDBRANCH  12  13
ENDBRANCH   5   6
ENDBRANCH   1   5
BRANCH   1  15
HETATM   15  N2  UNL     1      24.106   1.065  51.994  1.00  0.00    -0.301 N 
HETATM   16  H14 UNL     1      24.213   0.703  51.021  1.00  0.00     0.187 HD
BRANCH  15  17
HETATM   17  C11 UNL     1      22.941   0.760  52.748  1.00  0.00     0.064 A 
HETATM   18  C12 UNL     1      22.928  -0.244  53.691  1.00  0.00     0.032 A 
HETATM   19  C13 UNL     1      21.812  -0.548  54.423  1.00  0.00     0.002 A 
HETATM   20  C14 UNL     1      20.649   0.177  54.213  1.00  0.00     0.002 A 
HETATM   21  C15 UNL     1      20.649   1.186  53.271  1.00  0.00     0.021 A 
HETATM   22  C16 UNL     1      21.787   1.484  52.535  1.00  0.00     0.028 A 
BRANCH  22  23
HETATM   23  S1  UNL     1      21.717   2.813  51.322  1.00  0.00    -0.132 SA
HETATM   24  C17 UNL     1      22.041   4.364  52.172  1.00  0.00     0.095 C 
ENDBRANCH  22  23
ENDBRANCH  15  17
ENDBRANCH   1  15
TORSDOF 8
ENDMDL
MODEL 5
REMARK VINA RESULT:      -7.0      1.773      3.961
REMARK  8 active torsions:
REMARK  status: ('A' for Active; 'I' for Inactive)
REMARK    1  A    between atoms: C2_2  and  C3_3 
REMARK    2  A    between atoms: C3_3  and  N1_4 
REMARK    3  A    between atoms: N1_4  and  C4_5 
REMARK    4  A    between atoms: N1_4  and  N2_14 
REMARK    5  A    between atoms: C4_5  and  C5_6 
REMARK    6  A    between atoms: C10_12  and  O1_13 
REMARK    7  A    between atoms: N2_14  and  C11_15 
REMARK    8  A    between atoms: C16_20  and  S1_21 
ROOT
HETATM    1  N1  UNL     1      23.881   2.393  52.166  1.00  0.00    -0.323 N 
ENDROOT
BRANCH   1   2
HETATM    2  C3  UNL     1      22.571   1.992  52.490  1.00  0.00     0.142 C 
BRANCH   2   3
HETATM    3  C2  UNL     1      22.060   0.879  51.637  1.00  0.00     0.017 C 
HETATM    4  C1  UNL     1      21.778  -0.304  52.536  1.00  0.00     0.007 C 
ENDBRANCH   2   3
ENDBRANCH   1   2
BRANCH   1   5
HETATM    5  C4  UNL     1      24.861   2.412  53.168  1.00  0.00     0.183 C 
BRANCH   5   6
HETATM    6  C5  UNL     1      25.851   1.305  53.130  1.00  0.00    -0.004 A 
HETATM    7  C6  UNL     1      25.483   0.013  52.736  1.00  0.00     0.012 A 
HETATM    8  C7  UNL     1      26.331  -1.073  52.671  1.00  0.00     0.002 A 
HETATM    9  C8  UNL     1      27.664  -0.860  53.030  1.00  0.00     0.026 A 
HETATM   10  C9  UNL     1      28.085   0.393  53.426  1.00  0.00     0.067 A 
HETATM   11 CL1  UNL     1      29.757   0.619  53.865  1.00  0.00    -0.081 Cl
HETATM   12  C10 UNL     1      27.182   1.434  53.467  1.00  0.00     0.095 A 
BRANCH  12  13
HETATM   13  O1  UNL     1      27.639   2.670  53.869  1.00  0.00    -0.358 OA
HETATM   14  H13 UNL     1      28.608   2.923  53.954  1.00  0.00     0.217 HD
ENDBRANCH  12  13
ENDBRANCH   5   6
ENDBRANCH   1   5
BRANCH   1  15
HETATM   15  N2  UNL     1      24.244   2.465  50.863  1.00  0.00    -0.301 N 
HETATM   16  H14 UNL     1      23.872   1.624  50.367  1.00  0.00     0.187 HD
BRANCH  15  17
HETATM   17  C11 UNL     1      24.992   3.441  50.153  1.00  0.00     0.064 A 
HETATM   18  C12 UNL     1      26.350   3.316  49.956  1.00  0.00     0.032 A 
HETATM   19  C13 UNL     1      27.081   4.250  49.274  1.00  0.00     0.002 A 
HETATM   20  C14 UNL     1      26.438   5.366  48.760  1.00  0.00     0.002 A 
HETATM   21  C15 UNL     1      25.078   5.504  48.951  1.00  0.00     0.021 A 
HETATM   22  C16 UNL     1      24.348   4.549  49.644  1.00  0.00     0.028 A 
BRANCH  22  23
HETATM   23  S1  UNL     1      22.576   4.791  49.855  1.00  0.00    -0.132 SA
HETATM   24  C17 UNL     1      22.307   5.617  51.428  1.00  0.00     0.095 C 
ENDBRANCH  22  23
ENDBRANCH  15  17
ENDBRANCH   1  15
TORSDOF 8
ENDMDL
MODEL 6
REMARK VINA RESULT:      -6.8      3.032      6.574
REMARK  8 active torsions:
REMARK  status: ('A' for Active; 'I' for Inactive)
REMARK    1  A    between atoms: C2_2  and  C3_3 
REMARK    2  A    between atoms: C3_3  and  N1_4 
REMARK    3  A    between atoms: N1_4  and  C4_5 
REMARK    4  A    between atoms: N1_4  and  N2_14 
REMARK    5  A    between atoms: C4_5  and  C5_6 
REMARK    6  A    between atoms: C10_12  and  O1_13 
REMARK    7  A    between atoms: N2_14  and  C11_15 
REMARK    8  A    between atoms: C16_20  and  S1_21 
ROOT
HETATM    1  N1  UNL     1      24.376   0.674  52.666  1.00  0.00    -0.323 N 
ENDROOT
BRANCH   1   2
HETATM    2  C3  UNL     1      23.952  -0.329  53.558  1.00  0.00     0.142 C 
BRANCH   2   3
HETATM    3  C2  UNL     1      22.470  -0.499  53.605  1.00  0.00     0.017 C 
HETATM    4  C1  UNL     1      22.120  -1.176  54.912  1.00  0.00     0.007 C 
ENDBRANCH   2   3
ENDBRANCH   1   2
BRANCH   1   5
HETATM    5  C4  UNL     1      23.622   1.850  52.546  1.00  0.00     0.183 C 
BRANCH   5   6
HETATM    6  C5  UNL     1      23.435   2.365  51.165  1.00  0.00    -0.004 A 
HETATM    7  C6  UNL     1      22.582   1.724  50.260  1.00  0.00     0.012 A 
HETATM    8  C7  UNL     1      22.348   2.128  48.961  1.00  0.00     0.002 A 
HETATM    9  C8  UNL     1      23.020   3.271  48.521  1.00  0.00     0.026 A 
HETATM   10  C9  UNL     1      23.874   3.945  49.371  1.00  0.00     0.067 A 
HETATM   11 CL1  UNL     1      24.694   5.367  48.785  1.00  0.00    -0.081 Cl
HETATM   12  C10 UNL     1      24.061   3.484  50.657  1.00  0.00     0.095 A 
BRANCH  12  13
HETATM   13  O1  UNL     1      24.921   4.183  51.475  1.00  0.00    -0.358 OA
HETATM   14  H13 UNL     1      25.499   3.769  52.185  1.00  0.00     0.217 HD
ENDBRANCH  12  13
ENDBRANCH   5   6
ENDBRANCH   1   5
BRANCH   1  15
HETATM   15  N2  UNL     1      25.635   0.624  52.170  1.00  0.00    -0.301 N 
HETATM   16  H14 UNL     1      25.587   0.341  51.166  1.00  0.00     0.187 HD
BRANCH  15  17
HETATM   17  C11 UNL     1      26.891   0.882  52.781  1.00  0.00     0.064 A 
HETATM   18  C12 UNL     1      27.308   2.161  53.075  1.00  0.00     0.032 A 
HETATM   19  C13 UNL     1      28.515   2.422  53.664  1.00  0.00     0.002 A 
HETATM   20  C14 UNL     1      29.355   1.365  53.979  1.00  0.00     0.002 A 
HETATM   21  C15 UNL     1      28.950   0.078  53.690  1.00  0.00     0.021 A 
HETATM   22  C16 UNL     1      27.723  -0.173  53.093  1.00  0.00     0.028 A 
BRANCH  22  23
HETATM   23  S1  UNL     1      27.256  -1.877  52.744  1.00  0.00    -0.132 SA
HETATM   24  C17 UNL     1      28.668  -2.930  53.104  1.00  0.00     0.095 C 
ENDBRANCH  22  23
ENDBRANCH  15  17
ENDBRANCH   1  15
TORSDOF 8
ENDMDL
MODEL 7
REMARK VINA RESULT:      -6.8      2.162      4.138
REMARK  8 active torsions:
REMARK  status: ('A' for Active; 'I' for Inactive)
REMARK    1  A    between atoms: C2_2  and  C3_3 
REMARK    2  A    between atoms: C3_3  and  N1_4 
REMARK    3  A    between atoms: N1_4  and  C4_5 
REMARK    4  A    between atoms: N1_4  and  N2_14 
REMARK    5  A    between atoms: C4_5  and  C5_6 
REMARK    6  A    between atoms: C10_12  and  O1_13 
REMARK    7  A    between atoms: N2_14  and  C11_15 
REMARK    8  A    between atoms: C16_20  and  S1_21 
ROOT
HETATM    1  N1  UNL     1      24.745   1.563  51.921  1.00  0.00    -0.323 N 
ENDROOT
BRANCH   1   2
HETATM    2  C3  UNL     1      23.898   1.750  53.030  1.00  0.00     0.142 C 
BRANCH   2   3
HETATM    3  C2  UNL     1      22.550   1.131  52.862  1.00  0.00     0.017 C 
HETATM    4  C1  UNL     1      22.484  -0.090  53.751  1.00  0.00     0.007 C 
ENDBRANCH   2   3
ENDBRANCH   1   2
BRANCH   1   5
HETATM    5  C4  UNL     1      25.656   0.497  51.925  1.00  0.00     0.183 C 
BRANCH   5   6
HETATM    6  C5  UNL     1      26.946   0.746  52.620  1.00  0.00    -0.004 A 
HETATM    7  C6  UNL     1      27.352   2.043  52.957  1.00  0.00     0.012 A 
HETATM    8  C7  UNL     1      28.528   2.369  53.599  1.00  0.00     0.002 A 
HETATM    9  C8  UNL     1      29.380   1.314  53.938  1.00  0.00     0.026 A 
HETATM   10  C9  UNL     1      29.032   0.015  53.631  1.00  0.00     0.067 A 
HETATM   11 CL1  UNL     1      30.121  -1.274  54.070  1.00  0.00    -0.081 Cl
HETATM   12  C10 UNL     1      27.839  -0.238  52.988  1.00  0.00     0.095 A 
BRANCH  12  13
HETATM   13  O1  UNL     1      27.527  -1.548  52.698  1.00  0.00    -0.358 OA
HETATM   14  H13 UNL     1      27.672  -2.323  53.320  1.00  0.00     0.217 HD
ENDBRANCH  12  13
ENDBRANCH   5   6
ENDBRANCH   1   5
BRANCH   1  15
HETATM   15  N2  UNL     1      24.470   2.213  50.765  1.00  0.00    -0.301 N 
HETATM   16  H14 UNL     1      23.629   1.775  50.329  1.00  0.00     0.187 HD
BRANCH  15  17
HETATM   17  C11 UNL     1      25.116   3.309  50.133  1.00  0.00     0.064 A 
HETATM   18  C12 UNL     1      26.431   3.243  49.727  1.00  0.00     0.032 A 
HETATM   19  C13 UNL     1      27.063   4.292  49.117  1.00  0.00     0.002 A 
HETATM   20  C14 UNL     1      26.361   5.467  48.897  1.00  0.00     0.002 A 
HETATM   21  C15 UNL     1      25.044   5.547  49.299  1.00  0.00     0.021 A 
HETATM   22  C16 UNL     1      24.414   4.475  49.916  1.00  0.00     0.028 A 
BRANCH  22  23
HETATM   23  S1  UNL     1      22.692   4.647  50.414  1.00  0.00    -0.132 SA
HETATM   24  C17 UNL     1      22.651   5.003  52.176  1.00  0.00     0.095 C 
ENDBRANCH  22  23
ENDBRANCH  15  17
ENDBRANCH   1  15
TORSDOF 8
ENDMDL
MODEL 8
REMARK VINA RESULT:      -6.8      3.002      5.978
REMARK  8 active torsions:
REMARK  status: ('A' for Active; 'I' for Inactive)
REMARK    1  A    between atoms: C2_2  and  C3_3 
REMARK    2  A    between atoms: C3_3  and  N1_4 
REMARK    3  A    between atoms: N1_4  and  C4_5 
REMARK    4  A    between atoms: N1_4  and  N2_14 
REMARK    5  A    between atoms: C4_5  and  C5_6 
REMARK    6  A    between atoms: C10_12  and  O1_13 
REMARK    7  A    between atoms: N2_14  and  C11_15 
REMARK    8  A    between atoms: C16_20  and  S1_21 
ROOT
HETATM    1  N1  UNL     1      24.333   3.806  51.509  1.00  0.00    -0.323 N 
ENDROOT
BRANCH   1   2
HETATM    2  C3  UNL     1      23.571   4.809  52.136  1.00  0.00     0.142 C 
BRANCH   2   3
HETATM    3  C2  UNL     1      22.183   4.926  51.601  1.00  0.00     0.017 C 
HETATM    4  C1  UNL     1      21.344   3.843  52.243  1.00  0.00     0.007 C 
ENDBRANCH   2   3
ENDBRANCH   1   2
BRANCH   1   5
HETATM    5  C4  UNL     1      24.348   3.728  50.109  1.00  0.00     0.183 C 
BRANCH   5   6
HETATM    6  C5  UNL     1      25.130   4.779  49.408  1.00  0.00    -0.004 A 
HETATM    7  C6  UNL     1      24.500   5.877  48.810  1.00  0.00     0.012 A 
HETATM    8  C7  UNL     1      25.141   6.897  48.139  1.00  0.00     0.002 A 
HETATM    9  C8  UNL     1      26.534   6.822  48.053  1.00  0.00     0.026 A 
HETATM   10  C9  UNL     1      27.209   5.763  48.624  1.00  0.00     0.067 A 
HETATM   11 CL1  UNL     1      28.947   5.706  48.495  1.00  0.00    -0.081 Cl
HETATM   12  C10 UNL     1      26.503   4.778  49.280  1.00  0.00     0.095 A 
BRANCH  12  13
HETATM   13  O1  UNL     1      27.212   3.736  49.837  1.00  0.00    -0.358 OA
HETATM   14  H13 UNL     1      27.883   3.832  50.579  1.00  0.00     0.217 HD
ENDBRANCH  12  13
ENDBRANCH   5   6
ENDBRANCH   1   5
BRANCH   1  15
HETATM   15  N2  UNL     1      25.259   3.133  52.234  1.00  0.00    -0.301 N 
HETATM   16  H14 UNL     1      26.117   3.724  52.309  1.00  0.00     0.187 HD
BRANCH  15  17
HETATM   17  C11 UNL     1      25.216   1.852  52.847  1.00  0.00     0.064 A 
HETATM   18  C12 UNL     1      24.042   1.141  52.963  1.00  0.00     0.032 A 
HETATM   19  C13 UNL     1      23.988  -0.094  53.551  1.00  0.00     0.002 A 
HETATM   20  C14 UNL     1      25.154  -0.655  54.050  1.00  0.00     0.002 A 
HETATM   21  C15 UNL     1      26.337   0.048  53.941  1.00  0.00     0.021 A 
HETATM   22  C16 UNL     1      26.378   1.299  53.342  1.00  0.00     0.028 A 
BRANCH  22  23
HETATM   23  S1  UNL     1      27.955   2.160  53.231  1.00  0.00    -0.132 SA
HETATM   24  C17 UNL     1      29.156   1.260  54.221  1.00  0.00     0.095 C 
ENDBRANCH  22  23
ENDBRANCH  15  17
ENDBRANCH   1  15
TORSDOF 8
ENDMDL
MODEL 9
REMARK VINA RESULT:      -6.6      1.689      2.904
REMARK  8 active torsions:
REMARK  status: ('A' for Active; 'I' for Inactive)
REMARK    1  A    between atoms: C2_2  and  C3_3 
REMARK    2  A    between atoms: C3_3  and  N1_4 
REMARK    3  A    between atoms: N1_4  and  C4_5 
REMARK    4  A    between atoms: N1_4  and  N2_14 
REMARK    5  A    between atoms: C4_5  and  C5_6 
REMARK    6  A    between atoms: C10_12  and  O1_13 
REMARK    7  A    between atoms: N2_14  and  C11_15 
REMARK    8  A    between atoms: C16_20  and  S1_21 
ROOT
HETATM    1  N1  UNL     1      23.821   2.389  52.069  1.00  0.00    -0.323 N 
ENDROOT
BRANCH   1   2
HETATM    2  C3  UNL     1      24.344   2.634  50.785  1.00  0.00     0.142 C 
BRANCH   2   3
HETATM    3  C2  UNL     1      25.388   3.701  50.759  1.00  0.00     0.017 C 
HETATM    4  C1  UNL     1      26.193   3.534  49.489  1.00  0.00     0.007 C 
ENDBRANCH   2   3
ENDBRANCH   1   2
BRANCH   1   5
HETATM    5  C4  UNL     1      24.687   2.377  53.172  1.00  0.00     0.183 C 
BRANCH   5   6
HETATM    6  C5  UNL     1      25.690   1.282  53.199  1.00  0.00    -0.004 A 
HETATM    7  C6  UNL     1      25.341  -0.034  52.871  1.00  0.00     0.012 A 
HETATM    8  C7  UNL     1      26.202  -1.112  52.869  1.00  0.00     0.002 A 
HETATM    9  C8  UNL     1      27.531  -0.863  53.224  1.00  0.00     0.026 A 
HETATM   10  C9  UNL     1      27.933   0.415  53.556  1.00  0.00     0.067 A 
HETATM   11 CL1  UNL     1      29.599   0.685  53.992  1.00  0.00    -0.081 Cl
HETATM   12  C10 UNL     1      27.017   1.445  53.536  1.00  0.00     0.095 A 
BRANCH  12  13
HETATM   13  O1  UNL     1      27.457   2.707  53.874  1.00  0.00    -0.358 OA
HETATM   14  H13 UNL     1      28.418   2.997  53.877  1.00  0.00     0.217 HD
ENDBRANCH  12  13
ENDBRANCH   5   6
ENDBRANCH   1   5
BRANCH   1  15
HETATM   15  N2  UNL     1      22.483   2.467  52.260  1.00  0.00    -0.301 N 
HETATM   16  H14 UNL     1      22.187   3.462  52.149  1.00  0.00     0.187 HD
BRANCH  15  17
HETATM   17  C11 UNL     1      21.522   1.464  52.561  1.00  0.00     0.064 A 
HETATM   18  C12 UNL     1      21.570   0.740  53.732  1.00  0.00     0.032 A 
HETATM   19  C13 UNL     1      20.651  -0.228  54.033  1.00  0.00     0.002 A 
HETATM   20  C14 UNL     1      19.631  -0.494  53.132  1.00  0.00     0.002 A 
HETATM   21  C15 UNL     1      19.572   0.225  51.956  1.00  0.00     0.021 A 
HETATM   22  C16 UNL     1      20.510   1.204  51.662  1.00  0.00     0.028 A 
BRANCH  22  23
HETATM   23  S1  UNL     1      20.372   2.105  50.109  1.00  0.00    -0.132 SA
HETATM   24  C17 UNL     1      21.271   1.190  48.849  1.00  0.00     0.095 C 
ENDBRANCH  22  23
ENDBRANCH  15  17
ENDBRANCH   1  15
TORSDOF 8
ENDMDL
