MODEL 1
REMARK VINA RESULT:      -8.6      0.000      0.000
REMARK  5 active torsions:
REMARK  status: ('A' for Active; 'I' for Inactive)
REMARK    1  A    between atoms: O1_1  and  C1_2 
REMARK    2  A    between atoms: C1_2  and  C2_3 
REMARK    3  A    between atoms: C2_3  and  N1_4 
REMARK    4  A    between atoms: C2_3  and  C13_18 
REMARK    5  A    between atoms: N1_4  and  C3_5 
ROOT
HETATM    1  C3  UNL     1      24.461   1.950  51.524  1.00  0.00     0.139 A 
HETATM    2  N2  UNL     1      24.666   2.922  50.637  1.00  0.00    -0.224 NA
HETATM    3  C4  UNL     1      23.784   3.816  50.202  1.00  0.00     0.236 A 
HETATM    4  N3  UNL     1      22.564   3.689  50.741  1.00  0.00    -0.234 NA
HETATM    5  C5  UNL     1      22.307   2.748  51.620  1.00  0.00     0.114 A 
HETATM    6  S1  UNL     1      20.798   2.350  52.480  1.00  0.00    -0.073 SA
HETATM    7  C6  UNL     1      21.450   0.973  53.398  1.00  0.00    -0.008 A 
HETATM    8  C7  UNL     1      22.817   0.874  53.002  1.00  0.00    -0.028 A 
HETATM    9  C8  UNL     1      23.219   1.804  52.087  1.00  0.00     0.053 A 
HETATM   10  C9  UNL     1      23.303  -0.263  53.787  1.00  0.00     0.041 C 
HETATM   11  C10 UNL     1      22.442  -1.479  53.370  1.00  0.00     0.005 C 
HETATM   12  C11 UNL     1      21.120  -1.368  54.126  1.00  0.00     0.005 C 
HETATM   13  C12 UNL     1      20.773   0.090  54.362  1.00  0.00     0.047 C 
ENDROOT
BRANCH   1  14
HETATM   14  N1  UNL     1      25.598   1.162  51.737  1.00  0.00    -0.363 N 
HETATM   15  H5  UNL     1      25.717   0.289  51.220  1.00  0.00     0.162 HD
BRANCH  14  16
HETATM   16  C2  UNL     1      26.718   1.317  52.587  1.00  0.00     0.140 C 
BRANCH  16  17
HETATM   17  C1  UNL     1      26.432   2.104  53.844  1.00  0.00     0.194 C 
BRANCH  17  18
HETATM   18  O1  UNL     1      27.589   2.862  54.150  1.00  0.00    -0.399 OA
HETATM   19  H1  UNL     1      27.296   3.603  54.739  1.00  0.00     0.209 HD
ENDBRANCH  17  18
ENDBRANCH  16  17
BRANCH  16  20
HETATM   20  C13 UNL     1      27.439   0.057  52.796  1.00  0.00    -0.034 A 
HETATM   21  C14 UNL     1      28.699  -0.189  53.287  1.00  0.00     0.009 A 
HETATM   22  C15 UNL     1      29.271  -1.432  53.426  1.00  0.00     0.001 A 
HETATM   23  C16 UNL     1      28.585  -2.547  53.070  1.00  0.00     0.000 A 
HETATM   24  C17 UNL     1      27.308  -2.420  52.565  1.00  0.00     0.001 A 
HETATM   25  C18 UNL     1      26.805  -1.141  52.454  1.00  0.00     0.009 A 
ENDBRANCH  16  20
ENDBRANCH  14  16
ENDBRANCH   1  14
TORSDOF 5
ENDMDL
MODEL 2
REMARK VINA RESULT:      -8.4      2.566      5.182
REMARK  5 active torsions:
REMARK  status: ('A' for Active; 'I' for Inactive)
REMARK    1  A    between atoms: O1_1  and  C1_2 
REMARK    2  A    between atoms: C1_2  and  C2_3 
REMARK    3  A    between atoms: C2_3  and  N1_4 
REMARK    4  A    between atoms: C2_3  and  C13_18 
REMARK    5  A    between atoms: N1_4  and  C3_5 
ROOT
HETATM    1  C3  UNL     1      23.093   3.195  52.259  1.00  0.00     0.139 A 
HETATM    2  N2  UNL     1      21.820   3.554  52.109  1.00  0.00    -0.224 NA
HETATM    3  C4  UNL     1      20.741   2.808  52.324  1.00  0.00     0.236 A 
HETATM    4  N3  UNL     1      21.010   1.563  52.738  1.00  0.00    -0.234 NA
HETATM    5  C5  UNL     1      22.247   1.156  52.903  1.00  0.00     0.114 A 
HETATM    6  S1  UNL     1      22.886  -0.422  53.428  1.00  0.00    -0.073 SA
HETATM    7  C6  UNL     1      24.607   0.017  53.327  1.00  0.00    -0.008 A 
HETATM    8  C7  UNL     1      24.621   1.375  52.889  1.00  0.00    -0.028 A 
HETATM    9  C8  UNL     1      23.389   1.924  52.682  1.00  0.00     0.053 A 
HETATM   10  C9  UNL     1      26.052   1.684  52.830  1.00  0.00     0.041 C 
HETATM   11  C10 UNL     1      26.669   0.693  51.815  1.00  0.00     0.005 C 
HETATM   12  C11 UNL     1      26.864  -0.631  52.547  1.00  0.00     0.005 C 
HETATM   13  C12 UNL     1      25.796  -0.801  53.613  1.00  0.00     0.047 C 
ENDROOT
BRANCH   1  14
HETATM   14  N1  UNL     1      23.988   4.215  51.916  1.00  0.00    -0.363 N 
HETATM   15  H5  UNL     1      24.839   4.352  52.464  1.00  0.00     0.162 HD
BRANCH  14  16
HETATM   16  C2  UNL     1      23.975   5.188  50.889  1.00  0.00     0.140 C 
BRANCH  16  17
HETATM   17  C1  UNL     1      23.528   6.558  51.345  1.00  0.00     0.194 C 
BRANCH  17  18
HETATM   18  O1  UNL     1      24.411   6.980  52.368  1.00  0.00    -0.399 OA
HETATM   19  H1  UNL     1      24.120   7.887  52.639  1.00  0.00     0.209 HD
ENDBRANCH  17  18
ENDBRANCH  16  17
BRANCH  16  20
HETATM   20  C13 UNL     1      25.205   5.173  50.089  1.00  0.00    -0.034 A 
HETATM   21  C14 UNL     1      25.824   6.167  49.370  1.00  0.00     0.009 A 
HETATM   22  C15 UNL     1      26.983   6.022  48.645  1.00  0.00     0.001 A 
HETATM   23  C16 UNL     1      27.617   4.823  48.597  1.00  0.00     0.000 A 
HETATM   24  C17 UNL     1      27.084   3.752  49.283  1.00  0.00     0.001 A 
HETATM   25  C18 UNL     1      25.920   3.977  49.986  1.00  0.00     0.009 A 
ENDBRANCH  16  20
ENDBRANCH  14  16
ENDBRANCH   1  14
TORSDOF 5
ENDMDL
MODEL 3
REMARK VINA RESULT:      -8.3      2.311      5.140
REMARK  5 active torsions:
REMARK  status: ('A' for Active; 'I' for Inactive)
REMARK    1  A    between atoms: O1_1  and  C1_2 
REMARK    2  A    between atoms: C1_2  and  C2_3 
REMARK    3  A    between atoms: C2_3  and  N1_4 
REMARK    4  A    between atoms: C2_3  and  C13_18 
REMARK    5  A    between atoms: N1_4  and  C3_5 
ROOT
HETATM    1  C3  UNL     1      25.847   0.708  52.771  1.00  0.00     0.139 A 
HETATM    2  N2  UNL     1      27.119   0.779  53.159  1.00  0.00    -0.224 NA
HETATM    3  C4  UNL     1      27.655   0.275  54.266  1.00  0.00     0.236 A 
HETATM    4  N3  UNL     1      26.781  -0.370  55.052  1.00  0.00    -0.234 NA
HETATM    5  C5  UNL     1      25.515  -0.470  54.718  1.00  0.00     0.114 A 
HETATM    6  S1  UNL     1      24.154  -1.251  55.561  1.00  0.00    -0.073 SA
HETATM    7  C6  UNL     1      22.914  -0.848  54.353  1.00  0.00    -0.008 A 
HETATM    8  C7  UNL     1      23.603  -0.121  53.338  1.00  0.00    -0.028 A 
HETATM    9  C8  UNL     1      24.938   0.052  53.562  1.00  0.00     0.053 A 
HETATM   10  C9  UNL     1      22.542   0.178  52.373  1.00  0.00     0.041 C 
HETATM   11  C10 UNL     1      21.487   1.014  53.132  1.00  0.00     0.005 C 
HETATM   12  C11 UNL     1      20.639   0.034  53.940  1.00  0.00     0.005 C 
HETATM   13  C12 UNL     1      21.476  -1.163  54.352  1.00  0.00     0.047 C 
ENDROOT
BRANCH   1  14
HETATM   14  N1  UNL     1      25.611   1.375  51.564  1.00  0.00    -0.363 N 
HETATM   15  H5  UNL     1      25.401   0.840  50.719  1.00  0.00     0.162 HD
BRANCH  14  16
HETATM   16  C2  UNL     1      25.599   2.747  51.220  1.00  0.00     0.140 C 
BRANCH  16  17
HETATM   17  C1  UNL     1      26.288   3.060  49.913  1.00  0.00     0.194 C 
BRANCH  17  18
HETATM   18  O1  UNL     1      27.259   4.060  50.166  1.00  0.00    -0.399 OA
HETATM   19  H1  UNL     1      27.122   4.359  51.101  1.00  0.00     0.209 HD
ENDBRANCH  17  18
ENDBRANCH  16  17
BRANCH  16  20
HETATM   20  C13 UNL     1      24.271   3.352  51.380  1.00  0.00    -0.034 A 
HETATM   21  C14 UNL     1      23.728   4.071  52.417  1.00  0.00     0.009 A 
HETATM   22  C15 UNL     1      22.451   4.581  52.450  1.00  0.00     0.001 A 
HETATM   23  C16 UNL     1      21.610   4.394  51.401  1.00  0.00     0.000 A 
HETATM   24  C17 UNL     1      22.050   3.685  50.303  1.00  0.00     0.001 A 
HETATM   25  C18 UNL     1      23.342   3.206  50.346  1.00  0.00     0.009 A 
ENDBRANCH  16  20
ENDBRANCH  14  16
ENDBRANCH   1  14
TORSDOF 5
ENDMDL
MODEL 4
REMARK VINA RESULT:      -8.1      2.524      4.982
REMARK  5 active torsions:
REMARK  status: ('A' for Active; 'I' for Inactive)
REMARK    1  A    between atoms: O1_1  and  C1_2 
REMARK    2  A    between atoms: C1_2  and  C2_3 
REMARK    3  A    between atoms: C2_3  and  N1_4 
REMARK    4  A    between atoms: C2_3  and  C13_18 
REMARK    5  A    between atoms: N1_4  and  C3_5 
ROOT
HETATM    1  C3  UNL     1      25.556   0.886  52.614  1.00  0.00     0.139 A 
HETATM    2  N2  UNL     1      26.846   1.041  52.904  1.00  0.00    -0.224 NA
HETATM    3  C4  UNL     1      27.507   0.532  53.939  1.00  0.00     0.236 A 
HETATM    4  N3  UNL     1      26.752  -0.214  54.757  1.00  0.00    -0.234 NA
HETATM    5  C5  UNL     1      25.474  -0.399  54.518  1.00  0.00     0.114 A 
HETATM    6  S1  UNL     1      24.249  -1.321  55.426  1.00  0.00    -0.073 SA
HETATM    7  C6  UNL     1      22.887  -0.965  54.341  1.00  0.00    -0.008 A 
HETATM    8  C7  UNL     1      23.434  -0.142  53.312  1.00  0.00    -0.028 A 
HETATM    9  C8  UNL     1      24.767   0.127  53.439  1.00  0.00     0.053 A 
HETATM   10  C9  UNL     1      22.278   0.115  52.449  1.00  0.00     0.041 C 
HETATM   11  C10 UNL     1      21.229   0.831  53.330  1.00  0.00     0.005 C 
HETATM   12  C11 UNL     1      20.526  -0.247  54.151  1.00  0.00     0.005 C 
HETATM   13  C12 UNL     1      21.481  -1.392  54.436  1.00  0.00     0.047 C 
ENDROOT
BRANCH   1  14
HETATM   14  N1  UNL     1      25.172   1.584  51.463  1.00  0.00    -0.363 N 
HETATM   15  H5  UNL     1      25.294   1.157  50.544  1.00  0.00     0.162 HD
BRANCH  14  16
HETATM   16  C2  UNL     1      24.604   2.866  51.272  1.00  0.00     0.140 C 
BRANCH  16  17
HETATM   17  C1  UNL     1      24.135   3.527  52.548  1.00  0.00     0.194 C 
BRANCH  17  18
HETATM   18  O1  UNL     1      22.746   3.773  52.420  1.00  0.00    -0.399 OA
HETATM   19  H1  UNL     1      22.282   3.003  52.835  1.00  0.00     0.209 HD
ENDBRANCH  17  18
ENDBRANCH  16  17
BRANCH  16  20
HETATM   20  C13 UNL     1      25.422   3.716  50.400  1.00  0.00    -0.034 A 
HETATM   21  C14 UNL     1      26.592   3.455  49.729  1.00  0.00     0.009 A 
HETATM   22  C15 UNL     1      27.276   4.350  48.940  1.00  0.00     0.001 A 
HETATM   23  C16 UNL     1      26.805   5.612  48.770  1.00  0.00     0.000 A 
HETATM   24  C17 UNL     1      25.635   5.985  49.397  1.00  0.00     0.001 A 
HETATM   25  C18 UNL     1      25.010   5.031  50.171  1.00  0.00     0.009 A 
ENDBRANCH  16  20
ENDBRANCH  14  16
ENDBRANCH   1  14
TORSDOF 5
ENDMDL
MODEL 5
REMARK VINA RESULT:      -8.0      2.356      4.953
REMARK  5 active torsions:
REMARK  status: ('A' for Active; 'I' for Inactive)
REMARK    1  A    between atoms: O1_1  and  C1_2 
REMARK    2  A    between atoms: C1_2  and  C2_3 
REMARK    3  A    between atoms: C2_3  and  N1_4 
REMARK    4  A    between atoms: C2_3  and  C13_18 
REMARK    5  A    between atoms: N1_4  and  C3_5 
ROOT
HETATM    1  C3  UNL     1      23.558  -0.174  53.511  1.00  0.00     0.139 A 
HETATM    2  N2  UNL     1      23.949  -0.785  54.628  1.00  0.00    -0.224 NA
HETATM    3  C4  UNL     1      23.191  -1.460  55.486  1.00  0.00     0.236 A 
HETATM    4  N3  UNL     1      21.895  -1.507  55.151  1.00  0.00    -0.234 NA
HETATM    5  C5  UNL     1      21.454  -0.922  54.061  1.00  0.00     0.114 A 
HETATM    6  S1  UNL     1      19.808  -0.820  53.387  1.00  0.00    -0.073 SA
HETATM    7  C6  UNL     1      20.238   0.146  51.958  1.00  0.00    -0.008 A 
HETATM    8  C7  UNL     1      21.647   0.353  52.057  1.00  0.00    -0.028 A 
HETATM    9  C8  UNL     1      22.234  -0.211  53.152  1.00  0.00     0.053 A 
HETATM   10  C9  UNL     1      21.945   1.143  50.860  1.00  0.00     0.041 C 
HETATM   11  C10 UNL     1      21.113   2.441  50.976  1.00  0.00     0.005 C 
HETATM   12  C11 UNL     1      19.691   2.099  50.540  1.00  0.00     0.005 C 
HETATM   13  C12 UNL     1      19.374   0.654  50.880  1.00  0.00     0.047 C 
ENDROOT
BRANCH   1  14
HETATM   14  N1  UNL     1      24.608   0.474  52.851  1.00  0.00    -0.363 N 
HETATM   15  H5  UNL     1      24.995   0.075  51.995  1.00  0.00     0.162 HD
BRANCH  14  16
HETATM   16  C2  UNL     1      25.319   1.665  53.132  1.00  0.00     0.140 C 
BRANCH  16  17
HETATM   17  C1  UNL     1      26.821   1.495  53.148  1.00  0.00     0.194 C 
BRANCH  17  18
HETATM   18  O1  UNL     1      27.367   2.568  53.896  1.00  0.00    -0.399 OA
HETATM   19  H1  UNL     1      27.892   2.163  54.632  1.00  0.00     0.209 HD
ENDBRANCH  17  18
ENDBRANCH  16  17
BRANCH  16  20
HETATM   20  C13 UNL     1      24.834   2.805  52.346  1.00  0.00    -0.034 A 
HETATM   21  C14 UNL     1      25.085   3.175  51.047  1.00  0.00     0.009 A 
HETATM   22  C15 UNL     1      24.570   4.286  50.421  1.00  0.00     0.001 A 
HETATM   23  C16 UNL     1      23.737   5.125  51.089  1.00  0.00     0.000 A 
HETATM   24  C17 UNL     1      23.415   4.851  52.401  1.00  0.00     0.001 A 
HETATM   25  C18 UNL     1      23.971   3.719  52.957  1.00  0.00     0.009 A 
ENDBRANCH  16  20
ENDBRANCH  14  16
ENDBRANCH   1  14
TORSDOF 5
ENDMDL
MODEL 6
REMARK VINA RESULT:      -7.4      2.811      6.225
REMARK  5 active torsions:
REMARK  status: ('A' for Active; 'I' for Inactive)
REMARK    1  A    between atoms: O1_1  and  C1_2 
REMARK    2  A    between atoms: C1_2  and  C2_3 
REMARK    3  A    between atoms: C2_3  and  N1_4 
REMARK    4  A    between atoms: C2_3  and  C13_18 
REMARK    5  A    between atoms: N1_4  and  C3_5 
ROOT
HETATM    1  C3  UNL     1      22.684   1.663  52.601  1.00  0.00     0.139 A 
HETATM    2  N2  UNL     1      21.924   2.628  52.089  1.00  0.00    -0.224 NA
HETATM    3  C4  UNL     1      22.316   3.647  51.331  1.00  0.00     0.236 A 
HETATM    4  N3  UNL     1      23.631   3.667  51.078  1.00  0.00    -0.234 NA
HETATM    5  C5  UNL     1      24.428   2.739  51.558  1.00  0.00     0.114 A 
HETATM    6  S1  UNL     1      26.188   2.526  51.390  1.00  0.00    -0.073 SA
HETATM    7  C6  UNL     1      26.303   1.046  52.369  1.00  0.00    -0.008 A 
HETATM    8  C7  UNL     1      24.968   0.772  52.791  1.00  0.00    -0.028 A 
HETATM    9  C8  UNL     1      24.033   1.666  52.354  1.00  0.00     0.053 A 
HETATM   10  C9  UNL     1      25.120  -0.451  53.583  1.00  0.00     0.041 C 
HETATM   11  C10 UNL     1      26.082  -0.102  54.742  1.00  0.00     0.005 C 
HETATM   12  C11 UNL     1      27.498  -0.151  54.175  1.00  0.00     0.005 C 
HETATM   13  C12 UNL     1      27.488   0.242  52.709  1.00  0.00     0.047 C 
ENDROOT
BRANCH   1  14
HETATM   14  N1  UNL     1      21.957   0.757  53.382  1.00  0.00    -0.363 N 
HETATM   15  H5  UNL     1      21.745   0.980  54.356  1.00  0.00     0.162 HD
BRANCH  14  16
HETATM   16  C2  UNL     1      21.403  -0.514  53.100  1.00  0.00     0.140 C 
BRANCH  16  17
HETATM   17  C1  UNL     1      21.638  -1.542  54.182  1.00  0.00     0.194 C 
BRANCH  17  18
HETATM   18  O1  UNL     1      21.973  -0.847  55.370  1.00  0.00    -0.399 OA
HETATM   19  H1  UNL     1      22.914  -1.076  55.578  1.00  0.00     0.209 HD
ENDBRANCH  17  18
ENDBRANCH  16  17
BRANCH  16  20
HETATM   20  C13 UNL     1      20.019  -0.426  52.620  1.00  0.00    -0.034 A 
HETATM   21  C14 UNL     1      19.487   0.193  51.515  1.00  0.00     0.009 A 
HETATM   22  C15 UNL     1      18.154   0.212  51.177  1.00  0.00     0.001 A 
HETATM   23  C16 UNL     1      17.239  -0.418  51.959  1.00  0.00     0.000 A 
HETATM   24  C17 UNL     1      17.662  -1.073  53.095  1.00  0.00     0.001 A 
HETATM   25  C18 UNL     1      19.013  -1.046  53.366  1.00  0.00     0.009 A 
ENDBRANCH  16  20
ENDBRANCH  14  16
ENDBRANCH   1  14
TORSDOF 5
ENDMDL
MODEL 7
REMARK VINA RESULT:      -7.2      7.743      9.895
REMARK  5 active torsions:
REMARK  status: ('A' for Active; 'I' for Inactive)
REMARK    1  A    between atoms: O1_1  and  C1_2 
REMARK    2  A    between atoms: C1_2  and  C2_3 
REMARK    3  A    between atoms: C2_3  and  N1_4 
REMARK    4  A    between atoms: C2_3  and  C13_18 
REMARK    5  A    between atoms: N1_4  and  C3_5 
ROOT
HETATM    1  C3  UNL     1      29.353   6.295  48.053  1.00  0.00     0.139 A 
HETATM    2  N2  UNL     1      28.782   5.115  48.285  1.00  0.00    -0.224 NA
HETATM    3  C4  UNL     1      27.552   4.888  48.733  1.00  0.00     0.236 A 
HETATM    4  N3  UNL     1      26.840   5.999  48.964  1.00  0.00    -0.234 NA
HETATM    5  C5  UNL     1      27.353   7.189  48.753  1.00  0.00     0.114 A 
HETATM    6  S1  UNL     1      26.649   8.810  48.977  1.00  0.00    -0.073 SA
HETATM    7  C6  UNL     1      28.078   9.724  48.445  1.00  0.00    -0.008 A 
HETATM    8  C7  UNL     1      29.051   8.734  48.111  1.00  0.00    -0.028 A 
HETATM    9  C8  UNL     1      28.641   7.444  48.284  1.00  0.00     0.053 A 
HETATM   10  C9  UNL     1      30.197   9.537  47.677  1.00  0.00     0.041 C 
HETATM   11  C10 UNL     1      30.592  10.420  48.883  1.00  0.00     0.005 C 
HETATM   12  C11 UNL     1      29.624  11.600  48.907  1.00  0.00     0.005 C 
HETATM   13  C12 UNL     1      28.274  11.180  48.353  1.00  0.00     0.047 C 
ENDROOT
BRANCH   1  14
HETATM   14  N1  UNL     1      30.677   6.180  47.613  1.00  0.00    -0.363 N 
HETATM   15  H5  UNL     1      30.873   6.046  46.620  1.00  0.00     0.162 HD
BRANCH  14  16
HETATM   16  C2  UNL     1      31.914   6.208  48.298  1.00  0.00     0.140 C 
BRANCH  16  17
HETATM   17  C1  UNL     1      31.792   6.500  49.776  1.00  0.00     0.194 C 
BRANCH  17  18
HETATM   18  O1  UNL     1      31.330   5.321  50.411  1.00  0.00    -0.399 OA
HETATM   19  H1  UNL     1      30.913   5.603  51.264  1.00  0.00     0.209 HD
ENDBRANCH  17  18
ENDBRANCH  16  17
BRANCH  16  20
HETATM   20  C13 UNL     1      32.765   5.060  47.963  1.00  0.00    -0.034 A 
HETATM   21  C14 UNL     1      34.107   4.846  48.161  1.00  0.00     0.009 A 
HETATM   22  C15 UNL     1      34.798   3.718  47.787  1.00  0.00     0.001 A 
HETATM   23  C16 UNL     1      34.155   2.694  47.168  1.00  0.00     0.000 A 
HETATM   24  C17 UNL     1      32.804   2.800  46.918  1.00  0.00     0.001 A 
HETATM   25  C18 UNL     1      32.183   3.963  47.323  1.00  0.00     0.009 A 
ENDBRANCH  16  20
ENDBRANCH  14  16
ENDBRANCH   1  14
TORSDOF 5
ENDMDL
MODEL 8
REMARK VINA RESULT:      -7.0      3.250      6.429
REMARK  5 active torsions:
REMARK  status: ('A' for Active; 'I' for Inactive)
REMARK    1  A    between atoms: O1_1  and  C1_2 
REMARK    2  A    between atoms: C1_2  and  C2_3 
REMARK    3  A    between atoms: C2_3  and  N1_4 
REMARK    4  A    between atoms: C2_3  and  C13_18 
REMARK    5  A    between atoms: N1_4  and  C3_5 
ROOT
HETATM    1  C3  UNL     1      22.092   1.455  51.248  1.00  0.00     0.139 A 
HETATM    2  N2  UNL     1      22.283   2.475  50.413  1.00  0.00    -0.224 NA
HETATM    3  C4  UNL     1      23.399   3.175  50.237  1.00  0.00     0.236 A 
HETATM    4  N3  UNL     1      24.422   2.777  51.005  1.00  0.00    -0.234 NA
HETATM    5  C5  UNL     1      24.289   1.777  51.846  1.00  0.00     0.114 A 
HETATM    6  S1  UNL     1      25.460   1.053  52.976  1.00  0.00    -0.073 SA
HETATM    7  C6  UNL     1      24.362  -0.179  53.638  1.00  0.00    -0.008 A 
HETATM    8  C7  UNL     1      23.124   0.018  52.956  1.00  0.00    -0.028 A 
HETATM    9  C8  UNL     1      23.127   1.033  52.043  1.00  0.00     0.053 A 
HETATM   10  C9  UNL     1      22.265  -1.019  53.531  1.00  0.00     0.041 C 
HETATM   11  C10 UNL     1      22.194  -0.732  55.049  1.00  0.00     0.005 C 
HETATM   12  C11 UNL     1      23.476  -1.284  55.667  1.00  0.00     0.005 C 
HETATM   13  C12 UNL     1      24.616  -1.199  54.669  1.00  0.00     0.047 C 
ENDROOT
BRANCH   1  14
HETATM   14  N1  UNL     1      20.784   0.959  51.208  1.00  0.00    -0.363 N 
HETATM   15  H5  UNL     1      20.564   0.150  50.625  1.00  0.00     0.162 HD
BRANCH  14  16
HETATM   16  C2  UNL     1      19.591   1.366  51.850  1.00  0.00     0.140 C 
BRANCH  16  17
HETATM   17  C1  UNL     1      18.870   2.494  51.149  1.00  0.00     0.194 C 
BRANCH  17  18
HETATM   18  O1  UNL     1      18.654   3.523  52.099  1.00  0.00    -0.399 OA
HETATM   19  H1  UNL     1      17.791   3.325  52.542  1.00  0.00     0.209 HD
ENDBRANCH  17  18
ENDBRANCH  16  17
BRANCH  16  20
HETATM   20  C13 UNL     1      18.743   0.230  52.227  1.00  0.00    -0.034 A 
HETATM   21  C14 UNL     1      18.910  -0.738  53.188  1.00  0.00     0.009 A 
HETATM   22  C15 UNL     1      18.036  -1.770  53.440  1.00  0.00     0.001 A 
HETATM   23  C16 UNL     1      16.896  -1.895  52.714  1.00  0.00     0.000 A 
HETATM   24  C17 UNL     1      16.625  -0.978  51.722  1.00  0.00     0.001 A 
HETATM   25  C18 UNL     1      17.550   0.026  51.530  1.00  0.00     0.009 A 
ENDBRANCH  16  20
ENDBRANCH  14  16
ENDBRANCH   1  14
TORSDOF 5
ENDMDL
MODEL 9
REMARK VINA RESULT:      -7.0      2.779      5.828
REMARK  5 active torsions:
REMARK  status: ('A' for Active; 'I' for Inactive)
REMARK    1  A    between atoms: O1_1  and  C1_2 
REMARK    2  A    between atoms: C1_2  and  C2_3 
REMARK    3  A    between atoms: C2_3  and  N1_4 
REMARK    4  A    between atoms: C2_3  and  C13_18 
REMARK    5  A    between atoms: N1_4  and  C3_5 
ROOT
HETATM    1  C3  UNL     1      24.462   1.964  51.321  1.00  0.00     0.139 A 
HETATM    2  N2  UNL     1      25.612   2.568  51.028  1.00  0.00    -0.224 NA
HETATM    3  C4  UNL     1      26.789   2.393  51.620  1.00  0.00     0.236 A 
HETATM    4  N3  UNL     1      26.772   1.500  52.619  1.00  0.00    -0.234 NA
HETATM    5  C5  UNL     1      25.666   0.875  52.950  1.00  0.00     0.114 A 
HETATM    6  S1  UNL     1      25.357  -0.335  54.220  1.00  0.00    -0.073 SA
HETATM    7  C6  UNL     1      23.625  -0.545  53.878  1.00  0.00    -0.008 A 
HETATM    8  C7  UNL     1      23.350   0.334  52.788  1.00  0.00    -0.028 A 
HETATM    9  C8  UNL     1      24.425   1.047  52.341  1.00  0.00     0.053 A 
HETATM   10  C9  UNL     1      21.922   0.117  52.546  1.00  0.00     0.041 C 
HETATM   11  C10 UNL     1      21.195   0.500  53.856  1.00  0.00     0.005 C 
HETATM   12  C11 UNL     1      21.336  -0.686  54.806  1.00  0.00     0.005 C 
HETATM   13  C12 UNL     1      22.641  -1.415  54.543  1.00  0.00     0.047 C 
ENDROOT
BRANCH   1  14
HETATM   14  N1  UNL     1      23.400   2.401  50.521  1.00  0.00    -0.363 N 
HETATM   15  H5  UNL     1      23.168   1.897  49.663  1.00  0.00     0.162 HD
BRANCH  14  16
HETATM   16  C2  UNL     1      22.498   3.483  50.644  1.00  0.00     0.140 C 
BRANCH  16  17
HETATM   17  C1  UNL     1      22.722   4.589  49.639  1.00  0.00     0.194 C 
BRANCH  17  18
HETATM   18  O1  UNL     1      23.120   3.988  48.420  1.00  0.00    -0.399 OA
HETATM   19  H1  UNL     1      24.039   3.645  48.559  1.00  0.00     0.209 HD
ENDBRANCH  17  18
ENDBRANCH  16  17
BRANCH  16  20
HETATM   20  C13 UNL     1      21.106   3.038  50.774  1.00  0.00    -0.034 A 
HETATM   21  C14 UNL     1      20.112   3.428  51.638  1.00  0.00     0.009 A 
HETATM   22  C15 UNL     1      18.834   2.921  51.666  1.00  0.00     0.001 A 
HETATM   23  C16 UNL     1      18.462   1.953  50.789  1.00  0.00     0.000 A 
HETATM   24  C17 UNL     1      19.379   1.485  49.873  1.00  0.00     0.001 A 
HETATM   25  C18 UNL     1      20.639   2.043  49.910  1.00  0.00     0.009 A 
ENDBRANCH  16  20
ENDBRANCH  14  16
ENDBRANCH   1  14
TORSDOF 5
ENDMDL
