MODEL 1
REMARK VINA RESULT:      -7.6      0.000      0.000
REMARK  4 active torsions:
REMARK  status: ('A' for Active; 'I' for Inactive)
REMARK    1  A    between atoms: O1_2  and  C2_3 
REMARK    2  A    between atoms: N1_7  and  C6_8 
REMARK    3  A    between atoms: C10_14  and  O2_15 
REMARK    4  A    between atoms: C12_17  and  O3_18 
ROOT
HETATM    1  C6  UNL     1      23.606  -0.255  53.501  1.00  0.00     0.144 A 
HETATM    2  N2  UNL     1      23.821  -0.893  54.691  1.00  0.00    -0.223 NA
HETATM    3  C7  UNL     1      22.799  -1.409  55.406  1.00  0.00     0.236 A 
HETATM    4  N3  UNL     1      21.517  -1.302  54.948  1.00  0.00    -0.241 NA
HETATM    5  C8  UNL     1      21.269  -0.690  53.797  1.00  0.00     0.075 A 
HETATM    6  C9  UNL     1      20.022  -0.524  53.226  1.00  0.00     0.072 A 
HETATM    7  C10 UNL     1      19.860   0.130  52.003  1.00  0.00     0.103 A 
HETATM    8  C12 UNL     1      20.940   0.642  51.305  1.00  0.00     0.102 A 
HETATM    9  C14 UNL     1      22.188   0.481  51.867  1.00  0.00     0.057 A 
HETATM   10  C15 UNL     1      22.305  -0.160  53.060  1.00  0.00     0.042 A 
ENDROOT
BRANCH   1  11
HETATM   11  N1  UNL     1      24.831   0.221  52.964  1.00  0.00    -0.330 N 
HETATM   12  C5  UNL     1      25.822  -0.821  53.086  1.00  0.00     0.093 A 
HETATM   13  C4  UNL     1      27.072  -0.680  52.664  1.00  0.00     0.020 A 
HETATM   14  C3  UNL     1      27.536   0.555  52.042  1.00  0.00     0.036 A 
HETATM   15  C2  UNL     1      26.607   1.492  51.946  1.00  0.00     0.068 A 
HETATM   16  C16 UNL     1      25.200   1.487  52.362  1.00  0.00     0.143 A 
HETATM   17  C17 UNL     1      24.917   2.543  53.419  1.00  0.00     0.040 C 
BRANCH  15  18
HETATM   18  O1  UNL     1      26.908   2.721  51.375  1.00  0.00    -0.358 OA
HETATM   19  C1  UNL     1      26.444   3.069  50.088  1.00  0.00     0.209 C 
ENDBRANCH  15  18
ENDBRANCH   1  11
BRANCH   8  20
HETATM   20  O3  UNL     1      20.665   1.267  50.108  1.00  0.00    -0.353 OA
HETATM   21  C13 UNL     1      21.475   1.056  48.955  1.00  0.00     0.210 C 
ENDBRANCH   8  20
BRANCH   7  22
HETATM   22  O2  UNL     1      18.570   0.257  51.494  1.00  0.00    -0.353 OA
HETATM   23  C11 UNL     1      17.539  -0.569  51.981  1.00  0.00     0.210 C 
ENDBRANCH   7  22
TORSDOF 4
ENDMDL
MODEL 2
REMARK VINA RESULT:      -7.4      2.725      6.598
REMARK  4 active torsions:
REMARK  status: ('A' for Active; 'I' for Inactive)
REMARK    1  A    between atoms: O1_2  and  C2_3 
REMARK    2  A    between atoms: N1_7  and  C6_8 
REMARK    3  A    between atoms: C10_14  and  O2_15 
REMARK    4  A    between atoms: C12_17  and  O3_18 
ROOT
HETATM    1  C6  UNL     1      24.110   2.292  51.100  1.00  0.00     0.144 A 
HETATM    2  N2  UNL     1      24.646   3.157  50.188  1.00  0.00    -0.223 NA
HETATM    3  C7  UNL     1      25.978   3.364  50.115  1.00  0.00     0.236 A 
HETATM    4  N3  UNL     1      26.823   2.704  50.960  1.00  0.00    -0.241 NA
HETATM    5  C8  UNL     1      26.340   1.855  51.858  1.00  0.00     0.075 A 
HETATM    6  C9  UNL     1      27.089   1.124  52.760  1.00  0.00     0.072 A 
HETATM    7  C10 UNL     1      26.488   0.247  53.666  1.00  0.00     0.103 A 
HETATM    8  C12 UNL     1      25.117   0.068  53.703  1.00  0.00     0.102 A 
HETATM    9  C14 UNL     1      24.362   0.792  52.807  1.00  0.00     0.057 A 
HETATM   10  C15 UNL     1      24.982   1.637  51.941  1.00  0.00     0.042 A 
ENDROOT
BRANCH   1  11
HETATM   11  N1  UNL     1      22.694   2.275  50.996  1.00  0.00    -0.330 N 
HETATM   12  C5  UNL     1      22.330   1.552  49.801  1.00  0.00     0.093 A 
HETATM   13  C4  UNL     1      21.070   1.358  49.432  1.00  0.00     0.020 A 
HETATM   14  C3  UNL     1      19.954   1.871  50.218  1.00  0.00     0.036 A 
HETATM   15  C2  UNL     1      20.318   2.531  51.305  1.00  0.00     0.068 A 
HETATM   16  C16 UNL     1      21.652   2.826  51.840  1.00  0.00     0.143 A 
HETATM   17  C17 UNL     1      21.921   4.322  51.901  1.00  0.00     0.040 C 
BRANCH  15  18
HETATM   18  O1  UNL     1      19.359   3.075  52.149  1.00  0.00    -0.358 OA
HETATM   19  C1  UNL     1      18.106   3.502  51.662  1.00  0.00     0.209 C 
ENDBRANCH  15  18
ENDBRANCH   1  11
BRANCH   8  20
HETATM   20  O3  UNL     1      24.633  -0.823  54.636  1.00  0.00    -0.353 OA
HETATM   21  C13 UNL     1      23.234  -1.046  54.797  1.00  0.00     0.210 C 
ENDBRANCH   8  20
BRANCH   7  22
HETATM   22  O2  UNL     1      27.313  -0.453  54.544  1.00  0.00    -0.353 OA
HETATM   23  C11 UNL     1      28.617   0.011  54.802  1.00  0.00     0.210 C 
ENDBRANCH   7  22
TORSDOF 4
ENDMDL
MODEL 3
REMARK VINA RESULT:      -7.4      2.326      4.052
REMARK  4 active torsions:
REMARK  status: ('A' for Active; 'I' for Inactive)
REMARK    1  A    between atoms: O1_2  and  C2_3 
REMARK    2  A    between atoms: N1_7  and  C6_8 
REMARK    3  A    between atoms: C10_14  and  O2_15 
REMARK    4  A    between atoms: C12_17  and  O3_18 
ROOT
HETATM    1  C6  UNL     1      25.002   1.487  52.013  1.00  0.00     0.144 A 
HETATM    2  N2  UNL     1      25.205   2.386  51.004  1.00  0.00    -0.223 NA
HETATM    3  C7  UNL     1      24.181   2.836  50.248  1.00  0.00     0.236 A 
HETATM    4  N3  UNL     1      22.910   2.398  50.482  1.00  0.00    -0.241 NA
HETATM    5  C8  UNL     1      22.673   1.526  51.453  1.00  0.00     0.075 A 
HETATM    6  C9  UNL     1      21.435   1.013  51.792  1.00  0.00     0.072 A 
HETATM    7  C10 UNL     1      21.283   0.102  52.839  1.00  0.00     0.103 A 
HETATM    8  C12 UNL     1      22.364  -0.330  53.587  1.00  0.00     0.102 A 
HETATM    9  C14 UNL     1      23.603   0.175  53.258  1.00  0.00     0.057 A 
HETATM   10  C15 UNL     1      23.711   1.060  52.230  1.00  0.00     0.042 A 
ENDROOT
BRANCH   1  11
HETATM   11  N1  UNL     1      26.233   1.149  52.634  1.00  0.00    -0.330 N 
HETATM   12  C5  UNL     1      27.007   2.356  52.804  1.00  0.00     0.093 A 
HETATM   13  C4  UNL     1      28.210   2.367  53.365  1.00  0.00     0.020 A 
HETATM   14  C3  UNL     1      28.840   1.146  53.852  1.00  0.00     0.036 A 
HETATM   15  C2  UNL     1      28.108   0.057  53.681  1.00  0.00     0.068 A 
HETATM   16  C16 UNL     1      26.779  -0.116  53.084  1.00  0.00     0.143 A 
HETATM   17  C17 UNL     1      26.821  -1.007  51.853  1.00  0.00     0.040 C 
BRANCH  15  18
HETATM   18  O1  UNL     1      28.583  -1.179  54.098  1.00  0.00    -0.358 OA
HETATM   19  C1  UNL     1      29.873  -1.631  53.745  1.00  0.00     0.209 C 
ENDBRANCH  15  18
ENDBRANCH   1  11
BRANCH   8  20
HETATM   20  O3  UNL     1      22.099  -1.229  54.598  1.00  0.00    -0.353 OA
HETATM   21  C13 UNL     1      23.077  -1.552  55.583  1.00  0.00     0.210 C 
ENDBRANCH   8  20
BRANCH   7  22
HETATM   22  O2  UNL     1      20.003  -0.368  53.117  1.00  0.00    -0.353 OA
HETATM   23  C11 UNL     1      18.944  -0.086  52.233  1.00  0.00     0.210 C 
ENDBRANCH   7  22
TORSDOF 4
ENDMDL
MODEL 4
REMARK VINA RESULT:      -7.2      2.985      5.912
REMARK  4 active torsions:
REMARK  status: ('A' for Active; 'I' for Inactive)
REMARK    1  A    between atoms: O1_2  and  C2_3 
REMARK    2  A    between atoms: N1_7  and  C6_8 
REMARK    3  A    between atoms: C10_14  and  O2_15 
REMARK    4  A    between atoms: C12_17  and  O3_18 
ROOT
HETATM    1  C6  UNL     1      23.247   1.788  52.375  1.00  0.00     0.144 A 
HETATM    2  N2  UNL     1      22.172   0.982  52.121  1.00  0.00    -0.223 NA
HETATM    3  C7  UNL     1      22.153  -0.308  52.518  1.00  0.00     0.236 A 
HETATM    4  N3  UNL     1      23.218  -0.837  53.187  1.00  0.00    -0.241 NA
HETATM    5  C8  UNL     1      24.279  -0.086  53.453  1.00  0.00     0.075 A 
HETATM    6  C9  UNL     1      25.412  -0.501  54.127  1.00  0.00     0.072 A 
HETATM    7  C10 UNL     1      26.479   0.368  54.366  1.00  0.00     0.103 A 
HETATM    8  C12 UNL     1      26.453   1.684  53.940  1.00  0.00     0.102 A 
HETATM    9  C14 UNL     1      25.327   2.107  53.267  1.00  0.00     0.057 A 
HETATM   10  C15 UNL     1      24.309   1.232  53.052  1.00  0.00     0.042 A 
ENDROOT
BRANCH   1  11
HETATM   11  N1  UNL     1      23.037   3.083  51.832  1.00  0.00    -0.330 N 
HETATM   12  C5  UNL     1      21.696   3.506  52.160  1.00  0.00     0.093 A 
HETATM   13  C4  UNL     1      21.202   4.682  51.795  1.00  0.00     0.020 A 
HETATM   14  C3  UNL     1      21.990   5.639  51.027  1.00  0.00     0.036 A 
HETATM   15  C2  UNL     1      23.212   5.223  50.740  1.00  0.00     0.068 A 
HETATM   16  C16 UNL     1      23.895   3.966  51.067  1.00  0.00     0.143 A 
HETATM   17  C17 UNL     1      24.277   3.187  49.818  1.00  0.00     0.040 C 
BRANCH  15  18
HETATM   18  O1  UNL     1      24.075   6.032  50.013  1.00  0.00    -0.358 OA
HETATM   19  C1  UNL     1      24.921   6.966  50.647  1.00  0.00     0.209 C 
ENDBRANCH  15  18
ENDBRANCH   1  11
BRANCH   8  20
HETATM   20  O3  UNL     1      27.559   2.453  54.231  1.00  0.00    -0.353 OA
HETATM   21  C13 UNL     1      28.640   2.580  53.312  1.00  0.00     0.210 C 
ENDBRANCH   8  20
BRANCH   7  22
HETATM   22  O2  UNL     1      27.585  -0.127  55.052  1.00  0.00    -0.353 OA
HETATM   23  C11 UNL     1      28.663  -0.683  54.337  1.00  0.00     0.210 C 
ENDBRANCH   7  22
TORSDOF 4
ENDMDL
MODEL 5
REMARK VINA RESULT:      -7.0      2.174      5.601
REMARK  4 active torsions:
REMARK  status: ('A' for Active; 'I' for Inactive)
REMARK    1  A    between atoms: O1_2  and  C2_3 
REMARK    2  A    between atoms: N1_7  and  C6_8 
REMARK    3  A    between atoms: C10_14  and  O2_15 
REMARK    4  A    between atoms: C12_17  and  O3_18 
ROOT
HETATM    1  C6  UNL     1      22.234   0.542  53.007  1.00  0.00     0.144 A 
HETATM    2  N2  UNL     1      21.260  -0.001  53.798  1.00  0.00    -0.223 NA
HETATM    3  C7  UNL     1      21.565  -0.834  54.815  1.00  0.00     0.236 A 
HETATM    4  N3  UNL     1      22.867  -1.152  55.077  1.00  0.00    -0.241 NA
HETATM    5  C8  UNL     1      23.840  -0.643  54.332  1.00  0.00     0.075 A 
HETATM    6  C9  UNL     1      25.191  -0.881  54.499  1.00  0.00     0.072 A 
HETATM    7  C10 UNL     1      26.145  -0.292  53.666  1.00  0.00     0.103 A 
HETATM    8  C12 UNL     1      25.783   0.557  52.636  1.00  0.00     0.102 A 
HETATM    9  C14 UNL     1      24.438   0.801  52.461  1.00  0.00     0.057 A 
HETATM   10  C15 UNL     1      23.539   0.208  53.291  1.00  0.00     0.042 A 
ENDROOT
BRANCH   1  11
HETATM   11  N1  UNL     1      21.657   1.354  51.995  1.00  0.00    -0.330 N 
HETATM   12  C5  UNL     1      21.489   0.553  50.806  1.00  0.00     0.093 A 
HETATM   13  C4  UNL     1      20.965   1.031  49.684  1.00  0.00     0.020 A 
HETATM   14  C3  UNL     1      20.519   2.415  49.575  1.00  0.00     0.036 A 
HETATM   15  C2  UNL     1      20.687   3.124  50.679  1.00  0.00     0.068 A 
HETATM   16  C16 UNL     1      21.245   2.744  51.982  1.00  0.00     0.143 A 
HETATM   17  C17 UNL     1      22.493   3.545  52.320  1.00  0.00     0.040 C 
BRANCH  15  18
HETATM   18  O1  UNL     1      20.306   4.458  50.720  1.00  0.00    -0.358 OA
HETATM   19  C1  UNL     1      19.390   4.993  49.789  1.00  0.00     0.209 C 
ENDBRANCH  15  18
ENDBRANCH   1  11
BRANCH   8  20
HETATM   20  O3  UNL     1      26.807   1.083  51.877  1.00  0.00    -0.353 OA
HETATM   21  C13 UNL     1      26.743   2.409  51.358  1.00  0.00     0.210 C 
ENDBRANCH   8  20
BRANCH   7  22
HETATM   22  O2  UNL     1      27.486  -0.582  53.900  1.00  0.00    -0.353 OA
HETATM   23  C11 UNL     1      28.217   0.177  54.834  1.00  0.00     0.210 C 
ENDBRANCH   7  22
TORSDOF 4
ENDMDL
MODEL 6
REMARK VINA RESULT:      -6.7      3.608      6.014
REMARK  4 active torsions:
REMARK  status: ('A' for Active; 'I' for Inactive)
REMARK    1  A    between atoms: O1_2  and  C2_3 
REMARK    2  A    between atoms: N1_7  and  C6_8 
REMARK    3  A    between atoms: C10_14  and  O2_15 
REMARK    4  A    between atoms: C12_17  and  O3_18 
ROOT
HETATM    1  C6  UNL     1      24.562   3.248  50.214  1.00  0.00     0.144 A 
HETATM    2  N2  UNL     1      23.454   2.990  49.455  1.00  0.00    -0.223 NA
HETATM    3  C7  UNL     1      22.604   1.991  49.771  1.00  0.00     0.236 A 
HETATM    4  N3  UNL     1      22.837   1.210  50.867  1.00  0.00    -0.241 NA
HETATM    5  C8  UNL     1      23.902   1.430  51.628  1.00  0.00     0.075 A 
HETATM    6  C9  UNL     1      24.242   0.718  52.761  1.00  0.00     0.072 A 
HETATM    7  C10 UNL     1      25.383   1.029  53.505  1.00  0.00     0.103 A 
HETATM    8  C12 UNL     1      26.225   2.065  53.142  1.00  0.00     0.102 A 
HETATM    9  C14 UNL     1      25.894   2.782  52.012  1.00  0.00     0.057 A 
HETATM   10  C15 UNL     1      24.776   2.448  51.314  1.00  0.00     0.042 A 
ENDROOT
BRANCH   1  11
HETATM   11  N1  UNL     1      25.306   4.322  49.659  1.00  0.00    -0.330 N 
HETATM   12  C5  UNL     1      26.625   3.841  49.323  1.00  0.00     0.093 A 
HETATM   13  C4  UNL     1      27.556   4.613  48.776  1.00  0.00     0.020 A 
HETATM   14  C3  UNL     1      27.307   6.018  48.475  1.00  0.00     0.036 A 
HETATM   15  C2  UNL     1      26.091   6.430  48.795  1.00  0.00     0.068 A 
HETATM   16  C16 UNL     1      24.966   5.707  49.399  1.00  0.00     0.143 A 
HETATM   17  C17 UNL     1      24.573   6.293  50.746  1.00  0.00     0.040 C 
BRANCH  15  18
HETATM   18  O1  UNL     1      25.714   7.746  48.564  1.00  0.00    -0.358 OA
HETATM   19  C1  UNL     1      25.831   8.333  47.286  1.00  0.00     0.209 C 
ENDBRANCH  15  18
ENDBRANCH   1  11
BRANCH   8  20
HETATM   20  O3  UNL     1      27.321   2.285  53.948  1.00  0.00    -0.353 OA
HETATM   21  C13 UNL     1      28.646   2.026  53.491  1.00  0.00     0.210 C 
ENDBRANCH   8  20
BRANCH   7  22
HETATM   22  O2  UNL     1      25.657   0.263  54.635  1.00  0.00    -0.353 OA
HETATM   23  C11 UNL     1      24.920  -0.910  54.883  1.00  0.00     0.210 C 
ENDBRANCH   7  22
TORSDOF 4
ENDMDL
MODEL 7
REMARK VINA RESULT:      -6.7      3.352      5.053
REMARK  4 active torsions:
REMARK  status: ('A' for Active; 'I' for Inactive)
REMARK    1  A    between atoms: O1_2  and  C2_3 
REMARK    2  A    between atoms: N1_7  and  C6_8 
REMARK    3  A    between atoms: C10_14  and  O2_15 
REMARK    4  A    between atoms: C12_17  and  O3_18 
ROOT
HETATM    1  C6  UNL     1      22.337   3.769  51.485  1.00  0.00     0.144 A 
HETATM    2  N2  UNL     1      21.112   4.320  51.234  1.00  0.00    -0.223 NA
HETATM    3  C7  UNL     1      19.974   3.719  51.642  1.00  0.00     0.236 A 
HETATM    4  N3  UNL     1      20.028   2.536  52.321  1.00  0.00    -0.241 NA
HETATM    5  C8  UNL     1      21.199   1.970  52.584  1.00  0.00     0.075 A 
HETATM    6  C9  UNL     1      21.385   0.783  53.267  1.00  0.00     0.072 A 
HETATM    7  C10 UNL     1      22.662   0.269  53.503  1.00  0.00     0.103 A 
HETATM    8  C12 UNL     1      23.800   0.922  53.066  1.00  0.00     0.102 A 
HETATM    9  C14 UNL     1      23.625   2.107  52.384  1.00  0.00     0.057 A 
HETATM   10  C15 UNL     1      22.366   2.576  52.172  1.00  0.00     0.042 A 
ENDROOT
BRANCH   1  11
HETATM   11  N1  UNL     1      23.367   4.572  50.930  1.00  0.00    -0.330 N 
HETATM   12  C5  UNL     1      23.375   5.844  51.613  1.00  0.00     0.093 A 
HETATM   13  C4  UNL     1      24.234   6.813  51.322  1.00  0.00     0.020 A 
HETATM   14  C3  UNL     1      25.241   6.657  50.278  1.00  0.00     0.036 A 
HETATM   15  C2  UNL     1      25.208   5.483  49.669  1.00  0.00     0.068 A 
HETATM   16  C16 UNL     1      24.330   4.325  49.874  1.00  0.00     0.143 A 
HETATM   17  C17 UNL     1      23.507   4.011  48.634  1.00  0.00     0.040 C 
BRANCH  15  18
HETATM   18  O1  UNL     1      26.110   5.194  48.654  1.00  0.00    -0.358 OA
HETATM   19  C1  UNL     1      27.333   4.541  48.917  1.00  0.00     0.209 C 
ENDBRANCH  15  18
ENDBRANCH   1  11
BRANCH   8  20
HETATM   20  O3  UNL     1      25.008   0.326  53.355  1.00  0.00    -0.353 OA
HETATM   21  C13 UNL     1      26.062   1.046  53.989  1.00  0.00     0.210 C 
ENDBRANCH   8  20
BRANCH   7  22
HETATM   22  O2  UNL     1      22.765  -0.933  54.198  1.00  0.00    -0.353 OA
HETATM   23  C11 UNL     1      21.631  -1.754  54.354  1.00  0.00     0.210 C 
ENDBRANCH   7  22
TORSDOF 4
ENDMDL
MODEL 8
REMARK VINA RESULT:      -6.6      1.206      1.309
REMARK  4 active torsions:
REMARK  status: ('A' for Active; 'I' for Inactive)
REMARK    1  A    between atoms: O1_2  and  C2_3 
REMARK    2  A    between atoms: N1_7  and  C6_8 
REMARK    3  A    between atoms: C10_14  and  O2_15 
REMARK    4  A    between atoms: C12_17  and  O3_18 
ROOT
HETATM    1  C6  UNL     1      23.010   0.125  52.995  1.00  0.00     0.144 A 
HETATM    2  N2  UNL     1      23.501  -0.433  54.142  1.00  0.00    -0.223 NA
HETATM    3  C7  UNL     1      22.705  -1.129  54.981  1.00  0.00     0.236 A 
HETATM    4  N3  UNL     1      21.380  -1.290  54.696  1.00  0.00    -0.241 NA
HETATM    5  C8  UNL     1      20.867  -0.764  53.591  1.00  0.00     0.075 A 
HETATM    6  C9  UNL     1      19.549  -0.863  53.189  1.00  0.00     0.072 A 
HETATM    7  C10 UNL     1      19.102  -0.279  52.001  1.00  0.00     0.103 A 
HETATM    8  C12 UNL     1      19.956   0.424  51.172  1.00  0.00     0.102 A 
HETATM    9  C14 UNL     1      21.273   0.529  51.564  1.00  0.00     0.057 A 
HETATM   10  C15 UNL     1      21.671  -0.052  52.728  1.00  0.00     0.042 A 
ENDROOT
BRANCH   1  11
HETATM   11  N1  UNL     1      24.034   0.826  52.305  1.00  0.00    -0.330 N 
HETATM   12  C5  UNL     1      25.285   0.138  52.518  1.00  0.00     0.093 A 
HETATM   13  C4  UNL     1      26.431   0.549  51.992  1.00  0.00     0.020 A 
HETATM   14  C3  UNL     1      26.507   1.741  51.155  1.00  0.00     0.036 A 
HETATM   15  C2  UNL     1      25.347   2.351  50.979  1.00  0.00     0.068 A 
HETATM   16  C16 UNL     1      24.010   2.024  51.489  1.00  0.00     0.143 A 
HETATM   17  C17 UNL     1      23.460   3.122  52.386  1.00  0.00     0.040 C 
BRANCH  15  18
HETATM   18  O1  UNL     1      25.269   3.499  50.204  1.00  0.00    -0.358 OA
HETATM   19  C1  UNL     1      26.413   4.274  49.916  1.00  0.00     0.209 C 
ENDBRANCH  15  18
ENDBRANCH   1  11
BRANCH   8  20
HETATM   20  O3  UNL     1      19.409   0.957  50.025  1.00  0.00    -0.353 OA
HETATM   21  C13 UNL     1      19.535   2.342  49.713  1.00  0.00     0.210 C 
ENDBRANCH   8  20
BRANCH   7  22
HETATM   22  O2  UNL     1      17.758  -0.424  51.667  1.00  0.00    -0.353 OA
HETATM   23  C11 UNL     1      16.788  -0.525  52.682  1.00  0.00     0.210 C 
ENDBRANCH   7  22
TORSDOF 4
ENDMDL
MODEL 9
REMARK VINA RESULT:      -6.6      2.616      4.565
REMARK  4 active torsions:
REMARK  status: ('A' for Active; 'I' for Inactive)
REMARK    1  A    between atoms: O1_2  and  C2_3 
REMARK    2  A    between atoms: N1_7  and  C6_8 
REMARK    3  A    between atoms: C10_14  and  O2_15 
REMARK    4  A    between atoms: C12_17  and  O3_18 
ROOT
HETATM    1  C6  UNL     1      25.740   2.460  51.566  1.00  0.00     0.144 A 
HETATM    2  N2  UNL     1      27.060   2.442  51.922  1.00  0.00    -0.223 NA
HETATM    3  C7  UNL     1      27.548   1.503  52.761  1.00  0.00     0.236 A 
HETATM    4  N3  UNL     1      26.723   0.544  53.273  1.00  0.00    -0.241 NA
HETATM    5  C8  UNL     1      25.436   0.528  52.950  1.00  0.00     0.075 A 
HETATM    6  C9  UNL     1      24.505  -0.390  53.395  1.00  0.00     0.072 A 
HETATM    7  C10 UNL     1      23.169  -0.329  52.992  1.00  0.00     0.103 A 
HETATM    8  C12 UNL     1      22.715   0.652  52.129  1.00  0.00     0.102 A 
HETATM    9  C14 UNL     1      23.637   1.573  51.679  1.00  0.00     0.057 A 
HETATM   10  C15 UNL     1      24.928   1.482  52.095  1.00  0.00     0.042 A 
ENDROOT
BRANCH   1  11
HETATM   11  N1  UNL     1      25.473   3.557  50.705  1.00  0.00    -0.330 N 
HETATM   12  C5  UNL     1      26.646   3.807  49.902  1.00  0.00     0.093 A 
HETATM   13  C4  UNL     1      26.704   4.770  48.991  1.00  0.00     0.020 A 
HETATM   14  C3  UNL     1      25.573   5.654  48.738  1.00  0.00     0.036 A 
HETATM   15  C2  UNL     1      24.513   5.403  49.490  1.00  0.00     0.068 A 
HETATM   16  C16 UNL     1      24.298   4.387  50.527  1.00  0.00     0.143 A 
HETATM   17  C17 UNL     1      24.028   5.013  51.886  1.00  0.00     0.040 C 
BRANCH  15  18
HETATM   18  O1  UNL     1      23.362   6.167  49.356  1.00  0.00    -0.358 OA
HETATM   19  C1  UNL     1      22.273   5.729  48.571  1.00  0.00     0.209 C 
ENDBRANCH  15  18
ENDBRANCH   1  11
BRANCH   8  20
HETATM   20  O3  UNL     1      21.378   0.616  51.797  1.00  0.00    -0.353 OA
HETATM   21  C13 UNL     1      20.765   1.672  51.063  1.00  0.00     0.210 C 
ENDBRANCH   8  20
BRANCH   7  22
HETATM   22  O2  UNL     1      22.293  -1.292  53.485  1.00  0.00    -0.353 OA
HETATM   23  C11 UNL     1      21.951  -1.297  54.851  1.00  0.00     0.210 C 
ENDBRANCH   7  22
TORSDOF 4
ENDMDL
