MODEL 1
REMARK VINA RESULT:      -9.0      0.000      0.000
REMARK  0 active torsions:
REMARK  status: ('A' for Active; 'I' for Inactive)
ROOT
HETATM    1 CL1  UNL     1      19.597   1.548  52.333  1.00  0.00    -0.082 Cl
HETATM    2  C1  UNL     1      20.662   0.374  53.034  1.00  0.00     0.061 A 
HETATM    3  C2  UNL     1      20.004  -0.593  53.615  1.00  0.00     0.027 A 
HETATM    4  C3  UNL     1      20.813  -1.611  54.207  1.00  0.00     0.019 A 
HETATM    5  C4  UNL     1      22.094  -1.729  54.273  1.00  0.00     0.097 A 
HETATM    6  N1  UNL     1      22.804  -0.699  53.661  1.00  0.00    -0.325 N 
HETATM    7  C5  UNL     1      24.154  -0.305  53.626  1.00  0.00     0.036 A 
HETATM    8  C6  UNL     1      24.446  -0.524  54.911  1.00  0.00     0.130 A 
HETATM    9  N2  UNL     1      25.584  -0.860  55.441  1.00  0.00    -0.298 NA
HETATM   10  C7  UNL     1      26.721  -0.230  54.832  1.00  0.00     0.154 C 
HETATM   11  C8  UNL     1      27.909   0.286  54.547  1.00  0.00     0.004 C 
HETATM   12  C9  UNL     1      28.078   0.910  53.198  1.00  0.00     0.023 C 
HETATM   13  C10 UNL     1      27.126   0.968  52.352  1.00  0.00     0.006 C 
HETATM   14  C11 UNL     1      25.657   0.525  52.316  1.00  0.00     0.034 C 
HETATM   15  C12 UNL     1      25.438   0.065  53.606  1.00  0.00     0.114 A 
HETATM   16  N3  UNL     1      26.793   1.695  51.208  1.00  0.00    -0.388 N 
HETATM   17  C13 UNL     1      25.984   2.858  50.924  1.00  0.00     0.166 C 
HETATM   18  C14 UNL     1      24.531   2.896  51.100  1.00  0.00     0.006 C 
HETATM   19 BR1  UNL     1      24.201   4.640  50.210  1.00  0.00    -0.054 Br
HETATM   20  C15 UNL     1      23.476   2.282  51.616  1.00  0.00     0.019 C 
HETATM   21  C16 UNL     1      22.684   1.333  52.319  1.00  0.00     0.033 C 
HETATM   22  C17 UNL     1      22.108   0.402  53.006  1.00  0.00     0.060 A 
HETATM   23  H9  UNL     1      27.325   1.110  50.512  1.00  0.00     0.159 HD
ENDROOT
TORSDOF 0
ENDMDL
MODEL 2
REMARK VINA RESULT:      -8.9      2.647      4.893
REMARK  0 active torsions:
REMARK  status: ('A' for Active; 'I' for Inactive)
ROOT
HETATM    1 CL1  UNL     1      25.979   4.677  49.493  1.00  0.00    -0.082 Cl
HETATM    2  C1  UNL     1      24.631   3.610  49.713  1.00  0.00     0.061 A 
HETATM    3  C2  UNL     1      23.699   3.815  48.822  1.00  0.00     0.027 A 
HETATM    4  C3  UNL     1      22.556   2.963  48.927  1.00  0.00     0.019 A 
HETATM    5  C4  UNL     1      22.286   2.026  49.769  1.00  0.00     0.097 A 
HETATM    6  N1  UNL     1      23.272   1.805  50.728  1.00  0.00    -0.325 N 
HETATM    7  C5  UNL     1      23.357   1.051  51.913  1.00  0.00     0.036 A 
HETATM    8  C6  UNL     1      22.137   1.314  52.388  1.00  0.00     0.130 A 
HETATM    9  N2  UNL     1      21.379   0.572  53.140  1.00  0.00    -0.298 NA
HETATM   10  C7  UNL     1      22.094  -0.166  54.143  1.00  0.00     0.154 C 
HETATM   11  C8  UNL     1      22.472  -0.854  55.211  1.00  0.00     0.004 C 
HETATM   12  C9  UNL     1      23.912  -1.251  55.296  1.00  0.00     0.023 C 
HETATM   13  C10 UNL     1      24.758  -0.935  54.395  1.00  0.00     0.006 C 
HETATM   14  C11 UNL     1      24.719  -0.158  53.074  1.00  0.00     0.034 C 
HETATM   15  C12 UNL     1      23.423   0.337  53.040  1.00  0.00     0.114 A 
HETATM   16  N3  UNL     1      26.143  -0.830  54.260  1.00  0.00    -0.388 N 
HETATM   17  C13 UNL     1      27.108   0.241  54.346  1.00  0.00     0.166 C 
HETATM   18  C14 UNL     1      27.155   1.366  53.410  1.00  0.00     0.006 C 
HETATM   19 BR1  UNL     1      28.885   2.138  54.007  1.00  0.00    -0.054 Br
HETATM   20  C15 UNL     1      26.516   2.013  52.445  1.00  0.00     0.019 C 
HETATM   21  C16 UNL     1      25.508   2.378  51.511  1.00  0.00     0.033 C 
HETATM   22  C17 UNL     1      24.499   2.593  50.734  1.00  0.00     0.060 A 
HETATM   23  H9  UNL     1      26.337  -1.841  54.035  1.00  0.00     0.159 HD
ENDROOT
TORSDOF 0
ENDMDL
MODEL 3
REMARK VINA RESULT:      -8.5      2.503      4.239
REMARK  0 active torsions:
REMARK  status: ('A' for Active; 'I' for Inactive)
ROOT
HETATM    1 CL1  UNL     1      22.982  -2.130  55.329  1.00  0.00    -0.082 Cl
HETATM    2  C1  UNL     1      22.243  -0.873  54.391  1.00  0.00     0.061 A 
HETATM    3  C2  UNL     1      20.946  -0.862  54.529  1.00  0.00     0.027 A 
HETATM    4  C3  UNL     1      20.263   0.157  53.796  1.00  0.00     0.019 A 
HETATM    5  C4  UNL     1      20.718   1.068  53.009  1.00  0.00     0.097 A 
HETATM    6  N1  UNL     1      22.102   1.060  52.850  1.00  0.00    -0.325 N 
HETATM    7  C5  UNL     1      23.009   1.711  51.994  1.00  0.00     0.036 A 
HETATM    8  C6  UNL     1      22.298   1.622  50.867  1.00  0.00     0.130 A 
HETATM    9  N2  UNL     1      22.286   2.427  49.847  1.00  0.00    -0.298 NA
HETATM   10  C7  UNL     1      23.573   2.970  49.515  1.00  0.00     0.154 C 
HETATM   11  C8  UNL     1      24.629   3.514  48.926  1.00  0.00     0.004 C 
HETATM   12  C9  UNL     1      25.871   3.663  49.745  1.00  0.00     0.023 C 
HETATM   13  C10 UNL     1      25.936   3.272  50.958  1.00  0.00     0.006 C 
HETATM   14  C11 UNL     1      24.977   2.600  51.949  1.00  0.00     0.034 C 
HETATM   15  C12 UNL     1      23.862   2.328  51.170  1.00  0.00     0.114 A 
HETATM   16  N3  UNL     1      26.917   2.948  51.896  1.00  0.00    -0.388 N 
HETATM   17  C13 UNL     1      27.539   1.730  52.358  1.00  0.00     0.166 C 
HETATM   18  C14 UNL     1      26.821   0.676  53.078  1.00  0.00     0.006 C 
HETATM   19 BR1  UNL     1      28.398  -0.408  53.608  1.00  0.00    -0.054 Br
HETATM   20  C15 UNL     1      25.631   0.209  53.430  1.00  0.00     0.019 C 
HETATM   21  C16 UNL     1      24.220   0.077  53.548  1.00  0.00     0.033 C 
HETATM   22  C17 UNL     1      22.929   0.083  53.548  1.00  0.00     0.060 A 
HETATM   23  H9  UNL     1      27.106   3.926  52.240  1.00  0.00     0.159 HD
ENDROOT
TORSDOF 0
ENDMDL
MODEL 4
REMARK VINA RESULT:      -8.2      2.686      5.282
REMARK  0 active torsions:
REMARK  status: ('A' for Active; 'I' for Inactive)
ROOT
HETATM    1 CL1  UNL     1      22.291   3.313  47.842  1.00  0.00    -0.082 Cl
HETATM    2  C1  UNL     1      23.368   3.130  49.188  1.00  0.00     0.061 A 
HETATM    3  C2  UNL     1      24.488   3.775  49.004  1.00  0.00     0.027 A 
HETATM    4  C3  UNL     1      25.427   3.685  50.078  1.00  0.00     0.019 A 
HETATM    5  C4  UNL     1      25.354   3.060  51.202  1.00  0.00     0.097 A 
HETATM    6  N1  UNL     1      24.165   2.364  51.403  1.00  0.00    -0.325 N 
HETATM    7  C5  UNL     1      23.709   1.426  52.348  1.00  0.00     0.036 A 
HETATM    8  C6  UNL     1      24.826   0.702  52.447  1.00  0.00     0.130 A 
HETATM    9  N2  UNL     1      25.275   0.033  53.467  1.00  0.00    -0.298 NA
HETATM   10  C7  UNL     1      24.252  -0.627  54.229  1.00  0.00     0.154 C 
HETATM   11  C8  UNL     1      23.548  -1.419  55.026  1.00  0.00     0.004 C 
HETATM   12  C9  UNL     1      22.078  -1.161  55.124  1.00  0.00     0.023 C 
HETATM   13  C10 UNL     1      21.506  -0.232  54.462  1.00  0.00     0.006 C 
HETATM   14  C11 UNL     1      21.952   0.837  53.458  1.00  0.00     0.034 C 
HETATM   15  C12 UNL     1      23.288   0.531  53.247  1.00  0.00     0.114 A 
HETATM   16  N3  UNL     1      20.217   0.107  54.046  1.00  0.00    -0.388 N 
HETATM   17  C13 UNL     1      19.446  -0.069  52.838  1.00  0.00     0.166 C 
HETATM   18  C14 UNL     1      19.783   0.563  51.561  1.00  0.00     0.006 C 
HETATM   19 BR1  UNL     1      18.118   0.100  50.585  1.00  0.00    -0.054 Br
HETATM   20  C15 UNL     1      20.710   1.222  50.879  1.00  0.00     0.019 C 
HETATM   21  C16 UNL     1      21.939   1.856  50.550  1.00  0.00     0.033 C 
HETATM   22  C17 UNL     1      23.111   2.376  50.396  1.00  0.00     0.060 A 
HETATM   23  H9  UNL     1      19.912   0.597  54.927  1.00  0.00     0.159 HD
ENDROOT
TORSDOF 0
ENDMDL
MODEL 5
REMARK VINA RESULT:      -8.2      3.097      5.602
REMARK  0 active torsions:
REMARK  status: ('A' for Active; 'I' for Inactive)
ROOT
HETATM    1 CL1  UNL     1      22.661  -1.378  55.072  1.00  0.00    -0.082 Cl
HETATM    2  C1  UNL     1      23.751  -0.522  54.030  1.00  0.00     0.061 A 
HETATM    3  C2  UNL     1      24.989  -0.631  54.429  1.00  0.00     0.027 A 
HETATM    4  C3  UNL     1      25.954   0.037  53.612  1.00  0.00     0.019 A 
HETATM    5  C4  UNL     1      25.801   0.742  52.546  1.00  0.00     0.097 A 
HETATM    6  N1  UNL     1      24.482   0.869  52.117  1.00  0.00    -0.325 N 
HETATM    7  C5  UNL     1      23.820   1.652  51.153  1.00  0.00     0.036 A 
HETATM    8  C6  UNL     1      24.471   2.798  51.366  1.00  0.00     0.130 A 
HETATM    9  N2  UNL     1      24.732   3.754  50.524  1.00  0.00    -0.298 NA
HETATM   10  C7  UNL     1      23.675   4.013  49.588  1.00  0.00     0.154 C 
HETATM   11  C8  UNL     1      22.838   4.535  48.701  1.00  0.00     0.004 C 
HETATM   12  C9  UNL     1      21.700   3.679  48.245  1.00  0.00     0.023 C 
HETATM   13  C10 UNL     1      21.516   2.498  48.694  1.00  0.00     0.006 C 
HETATM   14  C11 UNL     1      22.220   1.584  49.704  1.00  0.00     0.034 C 
HETATM   15  C12 UNL     1      23.200   2.406  50.241  1.00  0.00     0.114 A 
HETATM   16  N3  UNL     1      20.481   1.565  48.775  1.00  0.00    -0.388 N 
HETATM   17  C13 UNL     1      19.515   1.184  49.777  1.00  0.00     0.166 C 
HETATM   18  C14 UNL     1      19.873   0.564  51.054  1.00  0.00     0.006 C 
HETATM   19 BR1  UNL     1      18.039   0.082  51.641  1.00  0.00    -0.054 Br
HETATM   20  C15 UNL     1      20.861   0.275  51.890  1.00  0.00     0.019 C 
HETATM   21  C16 UNL     1      22.163   0.200  52.456  1.00  0.00     0.033 C 
HETATM   22  C17 UNL     1      23.394   0.230  52.846  1.00  0.00     0.060 A 
HETATM   23  H9  UNL     1      20.601   1.143  47.817  1.00  0.00     0.159 HD
ENDROOT
TORSDOF 0
ENDMDL
MODEL 6
REMARK VINA RESULT:      -8.0      2.573      4.831
REMARK  0 active torsions:
REMARK  status: ('A' for Active; 'I' for Inactive)
ROOT
HETATM    1 CL1  UNL     1      19.648   4.403  51.200  1.00  0.00    -0.082 Cl
HETATM    2  C1  UNL     1      21.374   4.551  51.267  1.00  0.00     0.061 A 
HETATM    3  C2  UNL     1      21.779   5.718  50.845  1.00  0.00     0.027 A 
HETATM    4  C3  UNL     1      23.193   5.924  50.883  1.00  0.00     0.019 A 
HETATM    5  C4  UNL     1      24.142   5.139  51.257  1.00  0.00     0.097 A 
HETATM    6  N1  UNL     1      23.720   3.889  51.703  1.00  0.00    -0.325 N 
HETATM    7  C5  UNL     1      24.363   2.680  52.029  1.00  0.00     0.036 A 
HETATM    8  C6  UNL     1      25.254   2.669  51.034  1.00  0.00     0.130 A 
HETATM    9  N2  UNL     1      26.445   2.149  51.016  1.00  0.00    -0.298 NA
HETATM   10  C7  UNL     1      26.550   0.901  51.717  1.00  0.00     0.154 C 
HETATM   11  C8  UNL     1      26.900  -0.291  52.179  1.00  0.00     0.004 C 
HETATM   12  C9  UNL     1      26.042  -0.892  53.247  1.00  0.00     0.023 C 
HETATM   13  C10 UNL     1      25.002  -0.302  53.694  1.00  0.00     0.006 C 
HETATM   14  C11 UNL     1      24.281   1.022  53.411  1.00  0.00     0.034 C 
HETATM   15  C12 UNL     1      24.982   1.534  52.328  1.00  0.00     0.114 A 
HETATM   16  N3  UNL     1      23.838  -0.631  54.390  1.00  0.00    -0.388 N 
HETATM   17  C13 UNL     1      22.473  -0.936  54.030  1.00  0.00     0.166 C 
HETATM   18  C14 UNL     1      21.563   0.029  53.411  1.00  0.00     0.006 C 
HETATM   19 BR1  UNL     1      19.897  -1.040  53.561  1.00  0.00    -0.054 Br
HETATM   20  C15 UNL     1      21.462   1.209  52.814  1.00  0.00     0.019 C 
HETATM   21  C16 UNL     1      21.821   2.457  52.234  1.00  0.00     0.033 C 
HETATM   22  C17 UNL     1      22.304   3.544  51.732  1.00  0.00     0.060 A 
HETATM   23  H9  UNL     1      24.240  -0.579  55.363  1.00  0.00     0.159 HD
ENDROOT
TORSDOF 0
ENDMDL
MODEL 7
REMARK VINA RESULT:      -8.0      1.956      3.113
REMARK  0 active torsions:
REMARK  status: ('A' for Active; 'I' for Inactive)
ROOT
HETATM    1 CL1  UNL     1      17.985   3.240  51.138  1.00  0.00    -0.082 Cl
HETATM    2  C1  UNL     1      18.372   1.650  51.711  1.00  0.00     0.061 A 
HETATM    3  C2  UNL     1      17.332   0.862  51.699  1.00  0.00     0.027 A 
HETATM    4  C3  UNL     1      17.573  -0.474  52.145  1.00  0.00     0.019 A 
HETATM    5  C4  UNL     1      18.653  -1.031  52.570  1.00  0.00     0.097 A 
HETATM    6  N1  UNL     1      19.767  -0.196  52.593  1.00  0.00    -0.325 N 
HETATM    7  C5  UNL     1      21.069  -0.287  53.121  1.00  0.00     0.036 A 
HETATM    8  C6  UNL     1      20.758  -0.868  54.282  1.00  0.00     0.130 A 
HETATM    9  N2  UNL     1      21.475  -1.678  55.004  1.00  0.00    -0.298 NA
HETATM   10  C7  UNL     1      22.873  -1.355  55.032  1.00  0.00     0.154 C 
HETATM   11  C8  UNL     1      24.160  -1.224  55.325  1.00  0.00     0.004 C 
HETATM   12  C9  UNL     1      24.998  -0.415  54.387  1.00  0.00     0.023 C 
HETATM   13  C10 UNL     1      24.508   0.147  53.352  1.00  0.00     0.006 C 
HETATM   14  C11 UNL     1      23.120   0.248  52.708  1.00  0.00     0.034 C 
HETATM   15  C12 UNL     1      22.300  -0.381  53.633  1.00  0.00     0.114 A 
HETATM   16  N3  UNL     1      24.843   1.176  52.470  1.00  0.00    -0.388 N 
HETATM   17  C13 UNL     1      24.512   2.576  52.346  1.00  0.00     0.166 C 
HETATM   18  C14 UNL     1      23.163   3.067  52.054  1.00  0.00     0.006 C 
HETATM   19 BR1  UNL     1      23.635   4.969  51.735  1.00  0.00    -0.054 Br
HETATM   20  C15 UNL     1      21.878   2.750  51.974  1.00  0.00     0.019 C 
HETATM   21  C16 UNL     1      20.674   1.997  52.035  1.00  0.00     0.033 C 
HETATM   22  C17 UNL     1      19.672   1.191  52.154  1.00  0.00     0.060 A 
HETATM   23  H9  UNL     1      25.459   0.612  51.827  1.00  0.00     0.159 HD
ENDROOT
TORSDOF 0
ENDMDL
MODEL 8
REMARK VINA RESULT:      -7.9      3.112      5.339
REMARK  0 active torsions:
REMARK  status: ('A' for Active; 'I' for Inactive)
ROOT
HETATM    1 CL1  UNL     1      25.324  -0.851  53.247  1.00  0.00    -0.082 Cl
HETATM    2  C1  UNL     1      23.718  -0.286  53.575  1.00  0.00     0.061 A 
HETATM    3  C2  UNL     1      23.097  -1.053  54.429  1.00  0.00     0.027 A 
HETATM    4  C3  UNL     1      21.769  -0.645  54.763  1.00  0.00     0.019 A 
HETATM    5  C4  UNL     1      21.073   0.356  54.349  1.00  0.00     0.097 A 
HETATM    6  N1  UNL     1      21.725   1.177  53.432  1.00  0.00    -0.325 N 
HETATM    7  C5  UNL     1      21.335   2.240  52.596  1.00  0.00     0.036 A 
HETATM    8  C6  UNL     1      20.163   1.741  52.195  1.00  0.00     0.130 A 
HETATM    9  N2  UNL     1      19.085   2.378  51.847  1.00  0.00    -0.298 NA
HETATM   10  C7  UNL     1      19.329   3.582  51.106  1.00  0.00     0.154 C 
HETATM   11  C8  UNL     1      19.260   4.649  50.321  1.00  0.00     0.004 C 
HETATM   12  C9  UNL     1      20.477   5.512  50.227  1.00  0.00     0.023 C 
HETATM   13  C10 UNL     1      21.554   5.239  50.855  1.00  0.00     0.006 C 
HETATM   14  C11 UNL     1      22.021   4.129  51.805  1.00  0.00     0.034 C 
HETATM   15  C12 UNL     1      20.954   3.243  51.800  1.00  0.00     0.114 A 
HETATM   16  N3  UNL     1      22.909   5.568  50.791  1.00  0.00    -0.388 N 
HETATM   17  C13 UNL     1      24.089   4.964  50.220  1.00  0.00     0.166 C 
HETATM   18  C14 UNL     1      24.650   3.691  50.678  1.00  0.00     0.006 C 
HETATM   19 BR1  UNL     1      26.352   3.767  49.657  1.00  0.00    -0.054 Br
HETATM   20  C15 UNL     1      24.442   2.606  51.410  1.00  0.00     0.019 C 
HETATM   21  C16 UNL     1      23.804   1.657  52.255  1.00  0.00     0.033 C 
HETATM   22  C17 UNL     1      23.090   0.889  53.009  1.00  0.00     0.060 A 
HETATM   23  H9  UNL     1      22.859   6.466  51.341  1.00  0.00     0.159 HD
ENDROOT
TORSDOF 0
ENDMDL
MODEL 9
REMARK VINA RESULT:      -7.9      2.650      5.599
REMARK  0 active torsions:
REMARK  status: ('A' for Active; 'I' for Inactive)
ROOT
HETATM    1 CL1  UNL     1      26.318   0.201  52.553  1.00  0.00    -0.082 Cl
HETATM    2  C1  UNL     1      24.952  -0.236  53.527  1.00  0.00     0.061 A 
HETATM    3  C2  UNL     1      25.312  -0.851  54.620  1.00  0.00     0.027 A 
HETATM    4  C3  UNL     1      24.241  -1.233  55.487  1.00  0.00     0.019 A 
HETATM    5  C4  UNL     1      22.969  -1.078  55.362  1.00  0.00     0.097 A 
HETATM    6  N1  UNL     1      22.575  -0.427  54.195  1.00  0.00    -0.325 N 
HETATM    7  C5  UNL     1      21.345  -0.196  53.551  1.00  0.00     0.036 A 
HETATM    8  C6  UNL     1      20.799  -1.397  53.756  1.00  0.00     0.130 A 
HETATM    9  N2  UNL     1      19.544  -1.709  53.887  1.00  0.00    -0.298 NA
HETATM   10  C7  UNL     1      18.664  -0.963  53.033  1.00  0.00     0.154 C 
HETATM   11  C8  UNL     1      17.658  -0.520  52.291  1.00  0.00     0.004 C 
HETATM   12  C9  UNL     1      17.842   0.793  51.600  1.00  0.00     0.023 C 
HETATM   13  C10 UNL     1      18.923   1.465  51.695  1.00  0.00     0.006 C 
HETATM   14  C11 UNL     1      20.269   1.287  52.407  1.00  0.00     0.034 C 
HETATM   15  C12 UNL     1      20.173   0.011  52.944  1.00  0.00     0.114 A 
HETATM   16  N3  UNL     1      19.576   2.488  51.006  1.00  0.00    -0.388 N 
HETATM   17  C13 UNL     1      20.618   2.556  50.009  1.00  0.00     0.166 C 
HETATM   18  C14 UNL     1      22.001   2.140  50.252  1.00  0.00     0.006 C 
HETATM   19 BR1  UNL     1      22.792   2.846  48.573  1.00  0.00    -0.054 Br
HETATM   20  C15 UNL     1      22.821   1.499  51.073  1.00  0.00     0.019 C 
HETATM   21  C16 UNL     1      23.293   0.739  52.178  1.00  0.00     0.033 C 
HETATM   22  C17 UNL     1      23.562   0.030  53.224  1.00  0.00     0.060 A 
HETATM   23  H9  UNL     1      19.076   3.299  51.456  1.00  0.00     0.159 HD
ENDROOT
TORSDOF 0
ENDMDL
