MODEL 1
REMARK VINA RESULT:      -8.4      0.000      0.000
REMARK  7 active torsions:
REMARK  status: ('A' for Active; 'I' for Inactive)
REMARK    1  A    between atoms: O1_2  and  C2_3 
REMARK    2  A    between atoms: C2_3  and  C3_4 
REMARK    3  A    between atoms: C3_4  and  C4_5 
REMARK    4  A    between atoms: C3_4  and  N1_7 
REMARK    5  A    between atoms: N1_7  and  C5_8 
REMARK    6  A    between atoms: C12_17  and  N4_18 
REMARK    7  A    between atoms: N4_18  and  C13_19 
ROOT
HETATM    1  C5  UNL     1      26.336  -0.010  52.701  1.00  0.00     0.029 A 
HETATM    2  C6  UNL     1      25.634  -0.717  53.655  1.00  0.00     0.030 A 
HETATM    3  C7  UNL     1      24.284  -0.476  53.792  1.00  0.00     0.016 A 
HETATM    4  C8  UNL     1      23.652   0.459  52.984  1.00  0.00     0.000 A 
HETATM    5  C9  UNL     1      22.301   0.625  53.201  1.00  0.00     0.073 A 
HETATM    6  C10 UNL     1      21.580  -0.106  54.187  1.00  0.00     0.102 C 
HETATM    7  N2  UNL     1      20.995  -0.690  55.007  1.00  0.00    -0.191 NA
HETATM    8  C11 UNL     1      21.653   1.535  52.426  1.00  0.00     0.142 A 
HETATM    9  N3  UNL     1      22.333   2.209  51.510  1.00  0.00    -0.241 NA
HETATM   10  C12 UNL     1      23.639   2.101  51.246  1.00  0.00     0.139 A 
HETATM   11  C19 UNL     1      24.316   1.187  52.019  1.00  0.00     0.024 A 
HETATM   12  C20 UNL     1      25.642   0.902  51.936  1.00  0.00     0.045 A 
ENDROOT
BRANCH  10  13
HETATM   13  N4  UNL     1      24.354   2.827  50.268  1.00  0.00    -0.340 N 
HETATM   14  H12 UNL     1      24.702   2.388  49.414  1.00  0.00     0.167 HD
BRANCH  13  15
HETATM   15  C13 UNL     1      24.710   4.192  50.254  1.00  0.00     0.035 A 
HETATM   16  C14 UNL     1      24.086   5.196  50.986  1.00  0.00     0.029 A 
HETATM   17  C15 UNL     1      24.446   6.516  50.961  1.00  0.00     0.004 A 
HETATM   18  C16 UNL     1      25.477   6.932  50.184  1.00  0.00     0.019 A 
HETATM   19  C17 UNL     1      26.144   5.985  49.428  1.00  0.00     0.013 A 
HETATM   20 BR1  UNL     1      27.583   6.624  48.357  1.00  0.00    -0.051 Br
HETATM   21  C18 UNL     1      25.746   4.678  49.488  1.00  0.00     0.048 A 
ENDBRANCH  13  15
ENDBRANCH  10  13
BRANCH   1  22
HETATM   22  N1  UNL     1      27.727  -0.235  52.533  1.00  0.00    -0.377 N 
HETATM   23  H8  UNL     1      28.138  -0.106  51.564  1.00  0.00     0.160 HD
BRANCH  22  24
HETATM   24  C3  UNL     1      28.541  -0.629  53.670  1.00  0.00     0.167 C 
BRANCH  24  25
HETATM   25  C2  UNL     1      29.617   0.410  53.837  1.00  0.00     0.199 C 
BRANCH  25  26
HETATM   26  O1  UNL     1      29.235   1.536  54.535  1.00  0.00    -0.394 OA
HETATM   27  C1  UNL     1      28.809   2.580  53.729  1.00  0.00     0.201 C 
ENDBRANCH  25  26
ENDBRANCH  24  25
BRANCH  24  28
HETATM   28  C4  UNL     1      29.237  -1.928  53.463  1.00  0.00     0.258 C 
HETATM   29  O2  UNL     1      29.004  -3.128  53.509  1.00  0.00    -0.305 OA
ENDBRANCH  24  28
ENDBRANCH  22  24
ENDBRANCH   1  22
TORSDOF 7
ENDMDL
MODEL 2
REMARK VINA RESULT:      -8.2      1.885      2.886
REMARK  7 active torsions:
REMARK  status: ('A' for Active; 'I' for Inactive)
REMARK    1  A    between atoms: O1_2  and  C2_3 
REMARK    2  A    between atoms: C2_3  and  C3_4 
REMARK    3  A    between atoms: C3_4  and  C4_5 
REMARK    4  A    between atoms: C3_4  and  N1_7 
REMARK    5  A    between atoms: N1_7  and  C5_8 
REMARK    6  A    between atoms: C12_17  and  N4_18 
REMARK    7  A    between atoms: N4_18  and  C13_19 
ROOT
HETATM    1  C5  UNL     1      23.539  -0.510  53.642  1.00  0.00     0.029 A 
HETATM    2  C6  UNL     1      22.499  -1.099  54.330  1.00  0.00     0.030 A 
HETATM    3  C7  UNL     1      21.216  -0.932  53.852  1.00  0.00     0.016 A 
HETATM    4  C8  UNL     1      20.985  -0.188  52.705  1.00  0.00     0.000 A 
HETATM    5  C9  UNL     1      19.668  -0.082  52.312  1.00  0.00     0.073 A 
HETATM    6  C10 UNL     1      18.597  -0.691  53.025  1.00  0.00     0.102 C 
HETATM    7  N2  UNL     1      17.720  -1.173  53.620  1.00  0.00    -0.191 NA
HETATM    8  C11 UNL     1      19.408   0.642  51.191  1.00  0.00     0.142 A 
HETATM    9  N3  UNL     1      20.412   1.205  50.534  1.00  0.00    -0.241 NA
HETATM   10  C12 UNL     1      21.708   1.145  50.856  1.00  0.00     0.139 A 
HETATM   11  C19 UNL     1      21.995   0.419  51.988  1.00  0.00     0.024 A 
HETATM   12  C20 UNL     1      23.233   0.216  52.511  1.00  0.00     0.045 A 
ENDROOT
BRANCH  10  13
HETATM   13  N4  UNL     1      22.771   1.750  50.148  1.00  0.00    -0.340 N 
HETATM   14  H12 UNL     1      23.248   1.277  49.379  1.00  0.00     0.167 HD
BRANCH  13  15
HETATM   15  C13 UNL     1      23.352   3.022  50.329  1.00  0.00     0.035 A 
HETATM   16  C14 UNL     1      22.847   4.032  51.141  1.00  0.00     0.029 A 
HETATM   17  C15 UNL     1      23.425   5.262  51.305  1.00  0.00     0.004 A 
HETATM   18  C16 UNL     1      24.573   5.573  50.653  1.00  0.00     0.019 A 
HETATM   19  C17 UNL     1      25.131   4.614  49.827  1.00  0.00     0.013 A 
HETATM   20 BR1  UNL     1      26.742   5.105  48.937  1.00  0.00    -0.051 Br
HETATM   21  C18 UNL     1      24.515   3.401  49.696  1.00  0.00     0.048 A 
ENDBRANCH  13  15
ENDBRANCH  10  13
BRANCH   1  22
HETATM   22  N1  UNL     1      24.871  -0.662  54.104  1.00  0.00    -0.377 N 
HETATM   23  H8  UNL     1      25.039  -1.290  54.942  1.00  0.00     0.160 HD
BRANCH  22  24
HETATM   24  C3  UNL     1      25.957   0.033  53.433  1.00  0.00     0.167 C 
BRANCH  24  25
HETATM   25  C2  UNL     1      27.041  -0.975  53.165  1.00  0.00     0.199 C 
BRANCH  25  26
HETATM   26  O1  UNL     1      28.085  -0.958  54.066  1.00  0.00    -0.394 OA
HETATM   27  C1  UNL     1      29.317  -1.259  53.506  1.00  0.00     0.201 C 
ENDBRANCH  25  26
ENDBRANCH  24  25
BRANCH  24  28
HETATM   28  C4  UNL     1      26.569   1.099  54.271  1.00  0.00     0.258 C 
HETATM   29  O2  UNL     1      26.848   2.289  54.208  1.00  0.00    -0.305 OA
ENDBRANCH  24  28
ENDBRANCH  22  24
ENDBRANCH   1  22
TORSDOF 7
ENDMDL
MODEL 3
REMARK VINA RESULT:      -8.2      3.545      5.997
REMARK  7 active torsions:
REMARK  status: ('A' for Active; 'I' for Inactive)
REMARK    1  A    between atoms: O1_2  and  C2_3 
REMARK    2  A    between atoms: C2_3  and  C3_4 
REMARK    3  A    between atoms: C3_4  and  C4_5 
REMARK    4  A    between atoms: C3_4  and  N1_7 
REMARK    5  A    between atoms: N1_7  and  C5_8 
REMARK    6  A    between atoms: C12_17  and  N4_18 
REMARK    7  A    between atoms: N4_18  and  C13_19 
ROOT
HETATM    1  C5  UNL     1      22.708   1.228  51.656  1.00  0.00     0.029 A 
HETATM    2  C6  UNL     1      22.958   0.491  52.794  1.00  0.00     0.030 A 
HETATM    3  C7  UNL     1      24.244   0.466  53.292  1.00  0.00     0.016 A 
HETATM    4  C8  UNL     1      25.256   1.169  52.657  1.00  0.00     0.000 A 
HETATM    5  C9  UNL     1      26.505   1.079  53.234  1.00  0.00     0.073 A 
HETATM    6  C10 UNL     1      26.760   0.317  54.409  1.00  0.00     0.102 C 
HETATM    7  N2  UNL     1      26.972  -0.323  55.358  1.00  0.00    -0.191 NA
HETATM    8  C11 UNL     1      27.519   1.757  52.635  1.00  0.00     0.142 A 
HETATM    9  N3  UNL     1      27.271   2.465  51.542  1.00  0.00    -0.241 NA
HETATM   10  C12 UNL     1      26.091   2.597  50.929  1.00  0.00     0.139 A 
HETATM   11  C19 UNL     1      25.049   1.918  51.517  1.00  0.00     0.024 A 
HETATM   12  C20 UNL     1      23.763   1.901  51.079  1.00  0.00     0.045 A 
ENDROOT
BRANCH  10  13
HETATM   13  N4  UNL     1      25.838   3.353  49.763  1.00  0.00    -0.340 N 
HETATM   14  H12 UNL     1      25.199   3.030  49.035  1.00  0.00     0.167 HD
BRANCH  13  15
HETATM   15  C13 UNL     1      26.362   4.606  49.383  1.00  0.00     0.035 A 
HETATM   16  C14 UNL     1      27.544   4.807  48.677  1.00  0.00     0.029 A 
HETATM   17  C15 UNL     1      28.037   6.032  48.317  1.00  0.00     0.004 A 
HETATM   18  C16 UNL     1      27.368   7.165  48.645  1.00  0.00     0.019 A 
HETATM   19  C17 UNL     1      26.184   7.040  49.348  1.00  0.00     0.013 A 
HETATM   20 BR1  UNL     1      25.287   8.662  49.782  1.00  0.00    -0.051 Br
HETATM   21  C18 UNL     1      25.733   5.794  49.686  1.00  0.00     0.048 A 
ENDBRANCH  13  15
ENDBRANCH  10  13
BRANCH   1  22
HETATM   22  N1  UNL     1      21.396   1.276  51.117  1.00  0.00    -0.377 N 
HETATM   23  H8  UNL     1      21.289   1.237  50.062  1.00  0.00     0.160 HD
BRANCH  22  24
HETATM   24  C3  UNL     1      20.250   1.376  52.005  1.00  0.00     0.167 C 
BRANCH  24  25
HETATM   25  C2  UNL     1      19.117   0.617  51.369  1.00  0.00     0.199 C 
BRANCH  25  26
HETATM   26  O1  UNL     1      18.529  -0.333  52.177  1.00  0.00    -0.394 OA
HETATM   27  C1  UNL     1      19.282  -0.671  53.290  1.00  0.00     0.201 C 
ENDBRANCH  25  26
ENDBRANCH  24  25
BRANCH  24  28
HETATM   28  C4  UNL     1      19.773   2.775  52.182  1.00  0.00     0.258 C 
HETATM   29  O2  UNL     1      18.782   3.457  51.960  1.00  0.00    -0.305 OA
ENDBRANCH  24  28
ENDBRANCH  22  24
ENDBRANCH   1  22
TORSDOF 7
ENDMDL
MODEL 4
REMARK VINA RESULT:      -8.2      1.656      2.702
REMARK  7 active torsions:
REMARK  status: ('A' for Active; 'I' for Inactive)
REMARK    1  A    between atoms: O1_2  and  C2_3 
REMARK    2  A    between atoms: C2_3  and  C3_4 
REMARK    3  A    between atoms: C3_4  and  C4_5 
REMARK    4  A    between atoms: C3_4  and  N1_7 
REMARK    5  A    between atoms: N1_7  and  C5_8 
REMARK    6  A    between atoms: C12_17  and  N4_18 
REMARK    7  A    between atoms: N4_18  and  C13_19 
ROOT
HETATM    1  C5  UNL     1      24.220  -0.070  53.448  1.00  0.00     0.029 A 
HETATM    2  C6  UNL     1      23.100  -0.875  53.418  1.00  0.00     0.030 A 
HETATM    3  C7  UNL     1      21.930  -0.356  52.908  1.00  0.00     0.016 A 
HETATM    4  C8  UNL     1      21.886   0.948  52.437  1.00  0.00     0.000 A 
HETATM    5  C9  UNL     1      20.669   1.371  51.947  1.00  0.00     0.073 A 
HETATM    6  C10 UNL     1      19.516   0.537  51.918  1.00  0.00     0.102 C 
HETATM    7  N2  UNL     1      18.568  -0.140  51.913  1.00  0.00    -0.191 NA
HETATM    8  C11 UNL     1      20.594   2.645  51.478  1.00  0.00     0.142 A 
HETATM    9  N3  UNL     1      21.673   3.413  51.509  1.00  0.00    -0.241 NA
HETATM   10  C12 UNL     1      22.882   3.072  51.968  1.00  0.00     0.139 A 
HETATM   11  C19 UNL     1      22.981   1.787  52.449  1.00  0.00     0.024 A 
HETATM   12  C20 UNL     1      24.101   1.215  52.964  1.00  0.00     0.045 A 
ENDROOT
BRANCH  10  13
HETATM   13  N4  UNL     1      24.026   3.900  51.997  1.00  0.00    -0.340 N 
HETATM   14  H12 UNL     1      24.313   4.398  52.841  1.00  0.00     0.167 HD
BRANCH  13  15
HETATM   15  C13 UNL     1      24.940   4.193  50.963  1.00  0.00     0.035 A 
HETATM   16  C14 UNL     1      25.927   3.335  50.492  1.00  0.00     0.029 A 
HETATM   17  C15 UNL     1      26.806   3.637  49.487  1.00  0.00     0.004 A 
HETATM   18  C16 UNL     1      26.757   4.844  48.871  1.00  0.00     0.019 A 
HETATM   19  C17 UNL     1      25.797   5.748  49.290  1.00  0.00     0.013 A 
HETATM   20 BR1  UNL     1      25.773   7.426  48.391  1.00  0.00    -0.051 Br
HETATM   21  C18 UNL     1      24.942   5.399  50.299  1.00  0.00     0.048 A 
ENDBRANCH  13  15
ENDBRANCH  10  13
BRANCH   1  22
HETATM   22  N1  UNL     1      25.441  -0.573  53.966  1.00  0.00    -0.377 N 
HETATM   23  H8  UNL     1      25.404  -1.439  54.576  1.00  0.00     0.160 HD
BRANCH  22  24
HETATM   24  C3  UNL     1      26.692   0.097  53.653  1.00  0.00     0.167 C 
BRANCH  24  25
HETATM   25  C2  UNL     1      27.483  -0.817  52.757  1.00  0.00     0.199 C 
BRANCH  25  26
HETATM   26  O1  UNL     1      27.654  -2.097  53.239  1.00  0.00    -0.394 OA
HETATM   27  C1  UNL     1      28.966  -2.545  53.194  1.00  0.00     0.201 C 
ENDBRANCH  25  26
ENDBRANCH  24  25
BRANCH  24  28
HETATM   28  C4  UNL     1      27.535   0.342  54.855  1.00  0.00     0.258 C 
HETATM   29  O2  UNL     1      28.640   0.781  55.145  1.00  0.00    -0.305 OA
ENDBRANCH  24  28
ENDBRANCH  22  24
ENDBRANCH   1  22
TORSDOF 7
ENDMDL
MODEL 5
REMARK VINA RESULT:      -8.0      1.840      2.865
REMARK  7 active torsions:
REMARK  status: ('A' for Active; 'I' for Inactive)
REMARK    1  A    between atoms: O1_2  and  C2_3 
REMARK    2  A    between atoms: C2_3  and  C3_4 
REMARK    3  A    between atoms: C3_4  and  C4_5 
REMARK    4  A    between atoms: C3_4  and  N1_7 
REMARK    5  A    between atoms: N1_7  and  C5_8 
REMARK    6  A    between atoms: C12_17  and  N4_18 
REMARK    7  A    between atoms: N4_18  and  C13_19 
ROOT
HETATM    1  C5  UNL     1      25.785   1.863  53.168  1.00  0.00     0.029 A 
HETATM    2  C6  UNL     1      24.588   1.298  53.555  1.00  0.00     0.030 A 
HETATM    3  C7  UNL     1      23.532   1.327  52.669  1.00  0.00     0.016 A 
HETATM    4  C8  UNL     1      23.677   1.911  51.420  1.00  0.00     0.000 A 
HETATM    5  C9  UNL     1      22.562   1.887  50.611  1.00  0.00     0.073 A 
HETATM    6  C10 UNL     1      21.327   1.304  51.013  1.00  0.00     0.102 C 
HETATM    7  N2  UNL     1      20.312   0.844  51.351  1.00  0.00    -0.191 NA
HETATM    8  C11 UNL     1      22.672   2.453  49.380  1.00  0.00     0.142 A 
HETATM    9  N3  UNL     1      23.826   2.993  49.015  1.00  0.00    -0.241 NA
HETATM   10  C12 UNL     1      24.945   3.053  49.744  1.00  0.00     0.139 A 
HETATM   11  C19 UNL     1      24.856   2.487  50.994  1.00  0.00     0.024 A 
HETATM   12  C20 UNL     1      25.856   2.426  51.913  1.00  0.00     0.045 A 
ENDROOT
BRANCH  10  13
HETATM   13  N4  UNL     1      26.169   3.632  49.344  1.00  0.00    -0.340 N 
HETATM   14  H12 UNL     1      26.984   3.065  49.103  1.00  0.00     0.167 HD
BRANCH  13  15
HETATM   15  C13 UNL     1      26.506   4.994  49.201  1.00  0.00     0.035 A 
HETATM   16  C14 UNL     1      25.790   6.062  49.730  1.00  0.00     0.029 A 
HETATM   17  C15 UNL     1      26.133   7.379  49.581  1.00  0.00     0.004 A 
HETATM   18  C16 UNL     1      27.240   7.725  48.877  1.00  0.00     0.019 A 
HETATM   19  C17 UNL     1      28.000   6.712  48.323  1.00  0.00     0.013 A 
HETATM   20 BR1  UNL     1      29.542   7.255  47.347  1.00  0.00    -0.051 Br
HETATM   21  C18 UNL     1      27.616   5.412  48.500  1.00  0.00     0.048 A 
ENDBRANCH  13  15
ENDBRANCH  10  13
BRANCH   1  22
HETATM   22  N1  UNL     1      26.894   1.850  54.054  1.00  0.00    -0.377 N 
HETATM   23  H8  UNL     1      26.867   2.497  54.894  1.00  0.00     0.160 HD
BRANCH  22  24
HETATM   24  C3  UNL     1      28.019   0.967  53.796  1.00  0.00     0.167 C 
BRANCH  24  25
HETATM   25  C2  UNL     1      27.697  -0.367  54.414  1.00  0.00     0.199 C 
BRANCH  25  26
HETATM   26  O1  UNL     1      27.869  -1.451  53.579  1.00  0.00    -0.394 OA
HETATM   27  C1  UNL     1      26.911  -1.552  52.583  1.00  0.00     0.201 C 
ENDBRANCH  25  26
ENDBRANCH  24  25
BRANCH  24  28
HETATM   28  C4  UNL     1      29.280   1.434  54.432  1.00  0.00     0.258 C 
HETATM   29  O2  UNL     1      29.724   2.416  55.013  1.00  0.00    -0.305 OA
ENDBRANCH  24  28
ENDBRANCH  22  24
ENDBRANCH   1  22
TORSDOF 7
ENDMDL
MODEL 6
REMARK VINA RESULT:      -7.9      3.255      5.601
REMARK  7 active torsions:
REMARK  status: ('A' for Active; 'I' for Inactive)
REMARK    1  A    between atoms: O1_2  and  C2_3 
REMARK    2  A    between atoms: C2_3  and  C3_4 
REMARK    3  A    between atoms: C3_4  and  C4_5 
REMARK    4  A    between atoms: C3_4  and  N1_7 
REMARK    5  A    between atoms: N1_7  and  C5_8 
REMARK    6  A    between atoms: C12_17  and  N4_18 
REMARK    7  A    between atoms: N4_18  and  C13_19 
ROOT
HETATM    1  C5  UNL     1      22.339   0.766  53.179  1.00  0.00     0.029 A 
HETATM    2  C6  UNL     1      22.873  -0.481  53.430  1.00  0.00     0.030 A 
HETATM    3  C7  UNL     1      24.223  -0.672  53.226  1.00  0.00     0.016 A 
HETATM    4  C8  UNL     1      25.020   0.372  52.779  1.00  0.00     0.000 A 
HETATM    5  C9  UNL     1      26.356   0.078  52.607  1.00  0.00     0.073 A 
HETATM    6  C10 UNL     1      26.903  -1.211  52.866  1.00  0.00     0.102 C 
HETATM    7  N2  UNL     1      27.346  -2.270  53.059  1.00  0.00    -0.191 NA
HETATM    8  C11 UNL     1      27.164   1.080  52.170  1.00  0.00     0.142 A 
HETATM    9  N3  UNL     1      26.644   2.275  51.932  1.00  0.00    -0.241 NA
HETATM   10  C12 UNL     1      25.364   2.632  52.076  1.00  0.00     0.139 A 
HETATM   11  C19 UNL     1      24.528   1.633  52.516  1.00  0.00     0.024 A 
HETATM   12  C20 UNL     1      23.192   1.754  52.737  1.00  0.00     0.045 A 
ENDROOT
BRANCH  10  13
HETATM   13  N4  UNL     1      24.822   3.910  51.818  1.00  0.00    -0.340 N 
HETATM   14  H12 UNL     1      24.643   4.583  52.565  1.00  0.00     0.167 HD
BRANCH  13  15
HETATM   15  C13 UNL     1      24.443   4.486  50.588  1.00  0.00     0.035 A 
HETATM   16  C14 UNL     1      23.351   4.101  49.818  1.00  0.00     0.029 A 
HETATM   17  C15 UNL     1      22.999   4.673  48.625  1.00  0.00     0.004 A 
HETATM   18  C16 UNL     1      23.732   5.691  48.109  1.00  0.00     0.019 A 
HETATM   19  C17 UNL     1      24.834   6.125  48.823  1.00  0.00     0.013 A 
HETATM   20 BR1  UNL     1      25.826   7.556  48.051  1.00  0.00    -0.051 Br
HETATM   21  C18 UNL     1      25.145   5.521  50.010  1.00  0.00     0.048 A 
ENDBRANCH  13  15
ENDBRANCH  10  13
BRANCH   1  22
HETATM   22  N1  UNL     1      20.954   0.997  53.380  1.00  0.00    -0.377 N 
HETATM   23  H8  UNL     1      20.649   1.428  54.300  1.00  0.00     0.160 HD
BRANCH  22  24
HETATM   24  C3  UNL     1      20.002   0.645  52.340  1.00  0.00     0.167 C 
BRANCH  24  25
HETATM   25  C2  UNL     1      19.233   1.891  51.992  1.00  0.00     0.199 C 
BRANCH  25  26
HETATM   26  O1  UNL     1      19.746   3.057  52.518  1.00  0.00    -0.394 OA
HETATM   27  C1  UNL     1      20.102   3.998  51.564  1.00  0.00     0.201 C 
ENDBRANCH  25  26
ENDBRANCH  24  25
BRANCH  24  28
HETATM   28  C4  UNL     1      18.998  -0.358  52.788  1.00  0.00     0.258 C 
HETATM   29  O2  UNL     1      18.921  -1.337  53.519  1.00  0.00    -0.305 OA
ENDBRANCH  24  28
ENDBRANCH  22  24
ENDBRANCH   1  22
TORSDOF 7
ENDMDL
MODEL 7
REMARK VINA RESULT:      -7.8      3.835      6.729
REMARK  7 active torsions:
REMARK  status: ('A' for Active; 'I' for Inactive)
REMARK    1  A    between atoms: O1_2  and  C2_3 
REMARK    2  A    between atoms: C2_3  and  C3_4 
REMARK    3  A    between atoms: C3_4  and  C4_5 
REMARK    4  A    between atoms: C3_4  and  N1_7 
REMARK    5  A    between atoms: N1_7  and  C5_8 
REMARK    6  A    between atoms: C12_17  and  N4_18 
REMARK    7  A    between atoms: N4_18  and  C13_19 
ROOT
HETATM    1  C5  UNL     1      25.235   2.952  50.611  1.00  0.00     0.029 A 
HETATM    2  C6  UNL     1      26.451   2.334  50.814  1.00  0.00     0.030 A 
HETATM    3  C7  UNL     1      26.509   1.263  51.680  1.00  0.00     0.016 A 
HETATM    4  C8  UNL     1      25.365   0.822  52.328  1.00  0.00     0.000 A 
HETATM    5  C9  UNL     1      25.529  -0.256  53.172  1.00  0.00     0.073 A 
HETATM    6  C10 UNL     1      26.786  -0.891  53.379  1.00  0.00     0.102 C 
HETATM    7  N2  UNL     1      27.819  -1.396  53.563  1.00  0.00    -0.191 NA
HETATM    8  C11 UNL     1      24.426  -0.712  53.823  1.00  0.00     0.142 A 
HETATM    9  N3  UNL     1      23.261  -0.115  53.622  1.00  0.00    -0.241 NA
HETATM   10  C12 UNL     1      23.027   0.931  52.822  1.00  0.00     0.139 A 
HETATM   11  C19 UNL     1      24.129   1.410  52.154  1.00  0.00     0.024 A 
HETATM   12  C20 UNL     1      24.142   2.459  51.290  1.00  0.00     0.045 A 
ENDROOT
BRANCH  10  13
HETATM   13  N4  UNL     1      21.780   1.560  52.617  1.00  0.00    -0.340 N 
HETATM   14  H12 UNL     1      21.626   2.544  52.843  1.00  0.00     0.167 HD
BRANCH  13  15
HETATM   15  C13 UNL     1      20.583   1.020  52.101  1.00  0.00     0.035 A 
HETATM   16  C14 UNL     1      20.018   1.338  50.871  1.00  0.00     0.029 A 
HETATM   17  C15 UNL     1      18.855   0.803  50.387  1.00  0.00     0.004 A 
HETATM   18  C16 UNL     1      18.162  -0.108  51.116  1.00  0.00     0.019 A 
HETATM   19  C17 UNL     1      18.668  -0.471  52.350  1.00  0.00     0.013 A 
HETATM   20 BR1  UNL     1      17.655  -1.752  53.329  1.00  0.00    -0.051 Br
HETATM   21  C18 UNL     1      19.833   0.092  52.791  1.00  0.00     0.048 A 
ENDBRANCH  13  15
ENDBRANCH  10  13
BRANCH   1  22
HETATM   22  N1  UNL     1      25.140   4.056  49.726  1.00  0.00    -0.377 N 
HETATM   23  H8  UNL     1      24.337   4.071  49.033  1.00  0.00     0.160 HD
BRANCH  22  24
HETATM   24  C3  UNL     1      26.125   5.123  49.787  1.00  0.00     0.167 C 
BRANCH  24  25
HETATM   25  C2  UNL     1      25.391   6.426  49.627  1.00  0.00     0.199 C 
BRANCH  25  26
HETATM   26  O1  UNL     1      25.763   7.415  50.514  1.00  0.00    -0.394 OA
HETATM   27  C1  UNL     1      26.487   8.447  49.937  1.00  0.00     0.201 C 
ENDBRANCH  25  26
ENDBRANCH  24  25
BRANCH  24  28
HETATM   28  C4  UNL     1      27.118   5.059  48.680  1.00  0.00     0.258 C 
HETATM   29  O2  UNL     1      28.302   4.805  48.503  1.00  0.00    -0.305 OA
ENDBRANCH  24  28
ENDBRANCH  22  24
ENDBRANCH   1  22
TORSDOF 7
ENDMDL
MODEL 8
REMARK VINA RESULT:      -7.7      2.092      2.723
REMARK  7 active torsions:
REMARK  status: ('A' for Active; 'I' for Inactive)
REMARK    1  A    between atoms: O1_2  and  C2_3 
REMARK    2  A    between atoms: C2_3  and  C3_4 
REMARK    3  A    between atoms: C3_4  and  C4_5 
REMARK    4  A    between atoms: C3_4  and  N1_7 
REMARK    5  A    between atoms: N1_7  and  C5_8 
REMARK    6  A    between atoms: C12_17  and  N4_18 
REMARK    7  A    between atoms: N4_18  and  C13_19 
ROOT
HETATM    1  C5  UNL     1      23.876   0.825  52.782  1.00  0.00     0.029 A 
HETATM    2  C6  UNL     1      22.833   0.205  53.437  1.00  0.00     0.030 A 
HETATM    3  C7  UNL     1      21.604   0.154  52.815  1.00  0.00     0.016 A 
HETATM    4  C8  UNL     1      21.427   0.715  51.560  1.00  0.00     0.000 A 
HETATM    5  C9  UNL     1      20.161   0.611  51.026  1.00  0.00     0.073 A 
HETATM    6  C10 UNL     1      19.086  -0.030  51.706  1.00  0.00     0.102 C 
HETATM    7  N2  UNL     1      18.203  -0.537  52.271  1.00  0.00    -0.191 NA
HETATM    8  C11 UNL     1      19.956   1.152  49.796  1.00  0.00     0.142 A 
HETATM    9  N3  UNL     1      20.962   1.745  49.172  1.00  0.00    -0.241 NA
HETATM   10  C12 UNL     1      22.212   1.884  49.626  1.00  0.00     0.139 A 
HETATM   11  C19 UNL     1      22.443   1.345  50.870  1.00  0.00     0.024 A 
HETATM   12  C20 UNL     1      23.627   1.361  51.537  1.00  0.00     0.045 A 
ENDROOT
BRANCH  10  13
HETATM   13  N4  UNL     1      23.277   2.520  48.952  1.00  0.00    -0.340 N 
HETATM   14  H12 UNL     1      23.676   2.142  48.091  1.00  0.00     0.167 HD
BRANCH  13  15
HETATM   15  C13 UNL     1      23.961   3.708  49.286  1.00  0.00     0.035 A 
HETATM   16  C14 UNL     1      25.343   3.859  49.328  1.00  0.00     0.029 A 
HETATM   17  C15 UNL     1      25.989   5.021  49.655  1.00  0.00     0.004 A 
HETATM   18  C16 UNL     1      25.282   6.135  49.969  1.00  0.00     0.019 A 
HETATM   19  C17 UNL     1      23.902   6.056  49.946  1.00  0.00     0.013 A 
HETATM   20 BR1  UNL     1      22.960   7.650  50.394  1.00  0.00    -0.051 Br
HETATM   21  C18 UNL     1      23.303   4.872  49.614  1.00  0.00     0.048 A 
ENDBRANCH  13  15
ENDBRANCH  10  13
BRANCH   1  22
HETATM   22  N1  UNL     1      25.155   0.895  53.391  1.00  0.00    -0.377 N 
HETATM   23  H8  UNL     1      25.671   1.821  53.364  1.00  0.00     0.160 HD
BRANCH  22  24
HETATM   24  C3  UNL     1      25.720  -0.283  54.029  1.00  0.00     0.167 C 
BRANCH  24  25
HETATM   25  C2  UNL     1      26.847   0.179  54.913  1.00  0.00     0.199 C 
BRANCH  25  26
HETATM   26  O1  UNL     1      27.470   1.338  54.502  1.00  0.00    -0.394 OA
HETATM   27  C1  UNL     1      28.811   1.176  54.187  1.00  0.00     0.201 C 
ENDBRANCH  25  26
ENDBRANCH  24  25
BRANCH  24  28
HETATM   28  C4  UNL     1      26.313  -1.241  53.056  1.00  0.00     0.258 C 
HETATM   29  O2  UNL     1      27.203  -2.078  52.998  1.00  0.00    -0.305 OA
ENDBRANCH  24  28
ENDBRANCH  22  24
ENDBRANCH   1  22
TORSDOF 7
ENDMDL
MODEL 9
REMARK VINA RESULT:      -7.6      3.411      5.614
REMARK  7 active torsions:
REMARK  status: ('A' for Active; 'I' for Inactive)
REMARK    1  A    between atoms: O1_2  and  C2_3 
REMARK    2  A    between atoms: C2_3  and  C3_4 
REMARK    3  A    between atoms: C3_4  and  C4_5 
REMARK    4  A    between atoms: C3_4  and  N1_7 
REMARK    5  A    between atoms: N1_7  and  C5_8 
REMARK    6  A    between atoms: C12_17  and  N4_18 
REMARK    7  A    between atoms: N4_18  and  C13_19 
ROOT
HETATM    1  C5  UNL     1      22.614   1.247  51.600  1.00  0.00     0.029 A 
HETATM    2  C6  UNL     1      22.855   0.475  52.717  1.00  0.00     0.030 A 
HETATM    3  C7  UNL     1      24.137   0.431  53.223  1.00  0.00     0.016 A 
HETATM    4  C8  UNL     1      25.156   1.150  52.616  1.00  0.00     0.000 A 
HETATM    5  C9  UNL     1      26.400   1.039  53.198  1.00  0.00     0.073 A 
HETATM    6  C10 UNL     1      26.646   0.241  54.352  1.00  0.00     0.102 C 
HETATM    7  N2  UNL     1      26.849  -0.428  55.283  1.00  0.00    -0.191 NA
HETATM    8  C11 UNL     1      27.421   1.731  52.627  1.00  0.00     0.142 A 
HETATM    9  N3  UNL     1      27.182   2.472  51.554  1.00  0.00    -0.241 NA
HETATM   10  C12 UNL     1      26.007   2.626  50.937  1.00  0.00     0.139 A 
HETATM   11  C19 UNL     1      24.959   1.933  51.498  1.00  0.00     0.024 A 
HETATM   12  C20 UNL     1      23.676   1.933  51.051  1.00  0.00     0.045 A 
ENDROOT
BRANCH  10  13
HETATM   13  N4  UNL     1      25.764   3.418  49.793  1.00  0.00    -0.340 N 
HETATM   14  H12 UNL     1      25.290   3.047  48.968  1.00  0.00     0.167 HD
BRANCH  13  15
HETATM   15  C13 UNL     1      26.091   4.770  49.560  1.00  0.00     0.035 A 
HETATM   16  C14 UNL     1      25.399   5.866  50.062  1.00  0.00     0.029 A 
HETATM   17  C15 UNL     1      25.731   7.173  49.825  1.00  0.00     0.004 A 
HETATM   18  C16 UNL     1      26.803   7.479  49.051  1.00  0.00     0.019 A 
HETATM   19  C17 UNL     1      27.538   6.436  48.518  1.00  0.00     0.013 A 
HETATM   20 BR1  UNL     1      29.030   6.924  47.441  1.00  0.00    -0.051 Br
HETATM   21  C18 UNL     1      27.165   5.148  48.784  1.00  0.00     0.048 A 
ENDBRANCH  13  15
ENDBRANCH  10  13
BRANCH   1  22
HETATM   22  N1  UNL     1      21.307   1.316  51.055  1.00  0.00    -0.377 N 
HETATM   23  H8  UNL     1      20.573   0.651  51.435  1.00  0.00     0.160 HD
BRANCH  22  24
HETATM   24  C3  UNL     1      21.007   2.277  50.006  1.00  0.00     0.167 C 
BRANCH  24  25
HETATM   25  C2  UNL     1      19.597   2.756  50.222  1.00  0.00     0.199 C 
BRANCH  25  26
HETATM   26  O1  UNL     1      19.449   4.127  50.257  1.00  0.00    -0.394 OA
HETATM   27  C1  UNL     1      20.536   4.797  50.797  1.00  0.00     0.201 C 
ENDBRANCH  25  26
ENDBRANCH  24  25
BRANCH  24  28
HETATM   28  C4  UNL     1      21.046   1.679  48.644  1.00  0.00     0.258 C 
HETATM   29  O2  UNL     1      21.772   0.975  47.955  1.00  0.00    -0.305 OA
ENDBRANCH  24  28
ENDBRANCH  22  24
ENDBRANCH   1  22
TORSDOF 7
ENDMDL
