MODEL 1
REMARK VINA RESULT:      -7.2      0.000      0.000
REMARK  4 active torsions:
REMARK  status: ('A' for Active; 'I' for Inactive)
REMARK    1  A    between atoms: C1_2  and  C2_3 
REMARK    2  A    between atoms: C2_3  and  C3_4 
REMARK    3  A    between atoms: C11_12  and  C12_13 
REMARK    4  A    between atoms: C12_13  and  O1_14 
ROOT
HETATM    1  C3  UNL     1      22.715   3.161  52.157  1.00  0.00    -0.061 C 
HETATM    2  C4  UNL     1      21.519   3.623  52.409  1.00  0.00    -0.009 C 
HETATM    3  C5  UNL     1      20.182   3.070  52.180  1.00  0.00     0.073 C 
HETATM    4  C6  UNL     1      20.125   1.647  51.849  1.00  0.00    -0.017 C 
HETATM    5  C7  UNL     1      21.095   0.742  51.906  1.00  0.00    -0.028 C 
HETATM    6  C8  UNL     1      22.566   0.786  52.114  1.00  0.00     0.049 C 
HETATM    7  C9  UNL     1      23.082   1.983  51.328  1.00  0.00     0.053 C 
HETATM    8  C10 UNL     1      22.483   1.910  49.982  1.00  0.00     0.060 C 
HETATM    9  C11 UNL     1      23.232   2.579  48.857  1.00  0.00     0.248 C 
HETATM   10  N2  UNL     1      23.172   3.987  49.086  1.00  0.00     0.100 N 
HETATM   11  C13 UNL     1      24.477   4.601  49.209  1.00  0.00     0.300 C 
HETATM   12  C14 UNL     1      25.562   3.651  49.567  1.00  0.00     0.007 C 
HETATM   13  C15 UNL     1      25.594   2.782  50.598  1.00  0.00     0.049 C 
HETATM   14  C16 UNL     1      24.568   1.979  51.265  1.00  0.00     0.162 C 
HETATM   15  O2  UNL     1      25.045   1.047  51.967  1.00  0.00    -0.292 OA
HETATM   16  C17 UNL     1      22.318   4.750  48.252  1.00  0.00     0.294 C 
HETATM   17  C18 UNL     1      21.690   5.943  48.942  1.00  0.00     0.171 C 
HETATM   18  N3  UNL     1      20.866   5.626  50.059  1.00  0.00    -0.313 N 
HETATM   19  N4  UNL     1      19.718   4.909  50.309  1.00  0.00    -0.195 NA
HETATM   20  C19 UNL     1      19.548   3.953  51.133  1.00  0.00     0.123 C 
HETATM   21  H25 UNL     1      21.149   6.013  50.984  1.00  0.00     0.182 HD
ENDROOT
BRANCH   1  22
HETATM   22  C2  UNL     1      23.767   3.966  52.838  1.00  0.00     0.081 C 
BRANCH  22  23
HETATM   23  C1  UNL     1      23.670   5.405  52.495  1.00  0.00     0.084 C 
HETATM   24  N1  UNL     1      24.132   6.560  52.231  1.00  0.00    -0.316 NA
HETATM   25  H1  UNL     1      25.180   6.649  52.235  1.00  0.00     0.185 HD
ENDBRANCH  22  23
ENDBRANCH   1  22
BRANCH   9  26
HETATM   26  C12 UNL     1      22.472   2.123  47.598  1.00  0.00     0.200 C 
BRANCH  26  27
HETATM   27  O1  UNL     1      21.678   1.052  48.082  1.00  0.00    -0.399 OA
HETATM   28  H16 UNL     1      20.941   1.469  48.611  1.00  0.00     0.209 HD
ENDBRANCH  26  27
ENDBRANCH   9  26
TORSDOF 4
ENDMDL
MODEL 2
REMARK VINA RESULT:      -6.8      2.514      5.089
REMARK  4 active torsions:
REMARK  status: ('A' for Active; 'I' for Inactive)
REMARK    1  A    between atoms: C1_2  and  C2_3 
REMARK    2  A    between atoms: C2_3  and  C3_4 
REMARK    3  A    between atoms: C11_12  and  C12_13 
REMARK    4  A    between atoms: C12_13  and  O1_14 
ROOT
HETATM    1  C3  UNL     1      23.125   3.347  49.559  1.00  0.00    -0.061 C 
HETATM    2  C4  UNL     1      24.057   2.526  49.962  1.00  0.00    -0.009 C 
HETATM    3  C5  UNL     1      24.628   2.257  51.284  1.00  0.00     0.073 C 
HETATM    4  C6  UNL     1      23.882   2.789  52.424  1.00  0.00    -0.017 C 
HETATM    5  C7  UNL     1      22.666   3.322  52.445  1.00  0.00    -0.028 C 
HETATM    6  C8  UNL     1      21.691   3.761  51.413  1.00  0.00     0.049 C 
HETATM    7  C9  UNL     1      22.493   4.456  50.322  1.00  0.00     0.053 C 
HETATM    8  C10 UNL     1      23.407   5.402  50.990  1.00  0.00     0.060 C 
HETATM    9  C11 UNL     1      23.869   6.595  50.191  1.00  0.00     0.248 C 
HETATM   10  N2  UNL     1      24.722   6.106  49.155  1.00  0.00     0.100 N 
HETATM   11  C13 UNL     1      24.257   6.444  47.826  1.00  0.00     0.300 C 
HETATM   12  C14 UNL     1      22.809   6.769  47.755  1.00  0.00     0.007 C 
HETATM   13  C15 UNL     1      21.773   6.032  48.206  1.00  0.00     0.049 C 
HETATM   14  C16 UNL     1      21.596   5.150  49.360  1.00  0.00     0.162 C 
HETATM   15  O2  UNL     1      20.387   4.907  49.618  1.00  0.00    -0.292 OA
HETATM   16  C17 UNL     1      26.114   6.336  49.291  1.00  0.00     0.294 C 
HETATM   17  C18 UNL     1      26.978   5.235  48.710  1.00  0.00     0.171 C 
HETATM   18  N3  UNL     1      26.793   3.953  49.301  1.00  0.00    -0.313 N 
HETATM   19  N4  UNL     1      26.931   3.372  50.541  1.00  0.00    -0.195 NA
HETATM   20  C19 UNL     1      26.054   2.748  51.221  1.00  0.00     0.123 C 
HETATM   21  H25 UNL     1      26.466   3.185  48.678  1.00  0.00     0.182 HD
ENDROOT
BRANCH   1  22
HETATM   22  C2  UNL     1      22.697   3.048  48.163  1.00  0.00     0.081 C 
BRANCH  22  23
HETATM   23  C1  UNL     1      21.871   1.819  48.091  1.00  0.00     0.084 C 
HETATM   24  N1  UNL     1      21.087   0.930  48.551  1.00  0.00    -0.316 NA
HETATM   25  H1  UNL     1      20.802   1.042  49.557  1.00  0.00     0.185 HD
ENDBRANCH  22  23
ENDBRANCH   1  22
BRANCH   9  26
HETATM   26  C12 UNL     1      24.595   7.466  51.231  1.00  0.00     0.200 C 
BRANCH  26  27
HETATM   27  O1  UNL     1      24.423   6.729  52.431  1.00  0.00    -0.399 OA
HETATM   28  H16 UNL     1      23.957   7.340  53.068  1.00  0.00     0.209 HD
ENDBRANCH  26  27
ENDBRANCH   9  26
TORSDOF 4
ENDMDL
MODEL 3
REMARK VINA RESULT:      -6.6      1.698      3.771
REMARK  4 active torsions:
REMARK  status: ('A' for Active; 'I' for Inactive)
REMARK    1  A    between atoms: C1_2  and  C2_3 
REMARK    2  A    between atoms: C2_3  and  C3_4 
REMARK    3  A    between atoms: C11_12  and  C12_13 
REMARK    4  A    between atoms: C12_13  and  O1_14 
ROOT
HETATM    1  C3  UNL     1      21.340   3.395  50.360  1.00  0.00    -0.061 C 
HETATM    2  C4  UNL     1      20.795   4.218  49.505  1.00  0.00    -0.009 C 
HETATM    3  C5  UNL     1      20.989   4.414  48.066  1.00  0.00     0.073 C 
HETATM    4  C6  UNL     1      21.721   3.357  47.369  1.00  0.00    -0.017 C 
HETATM    5  C7  UNL     1      22.076   2.158  47.817  1.00  0.00    -0.028 C 
HETATM    6  C8  UNL     1      22.073   1.486  49.143  1.00  0.00     0.049 C 
HETATM    7  C9  UNL     1      22.527   2.524  50.159  1.00  0.00     0.053 C 
HETATM    8  C10 UNL     1      23.735   3.171  49.610  1.00  0.00     0.060 C 
HETATM    9  C11 UNL     1      24.701   3.777  50.597  1.00  0.00     0.248 C 
HETATM   10  N2  UNL     1      24.053   4.906  51.185  1.00  0.00     0.100 N 
HETATM   11  C13 UNL     1      23.936   4.811  52.625  1.00  0.00     0.300 C 
HETATM   12  C14 UNL     1      24.037   3.425  53.150  1.00  0.00     0.007 C 
HETATM   13  C15 UNL     1      23.330   2.342  52.767  1.00  0.00     0.049 C 
HETATM   14  C16 UNL     1      22.797   1.895  51.480  1.00  0.00     0.162 C 
HETATM   15  O2  UNL     1      22.483   0.675  51.469  1.00  0.00    -0.292 OA
HETATM   16  C17 UNL     1      24.490   6.193  50.784  1.00  0.00     0.294 C 
HETATM   17  C18 UNL     1      23.392   7.237  50.763  1.00  0.00     0.171 C 
HETATM   18  N3  UNL     1      22.318   6.958  49.871  1.00  0.00    -0.313 N 
HETATM   19  N4  UNL     1      22.136   6.775  48.518  1.00  0.00    -0.195 NA
HETATM   20  C19 UNL     1      21.623   5.776  47.920  1.00  0.00     0.123 C 
HETATM   21  H25 UNL     1      21.369   6.853  50.287  1.00  0.00     0.182 HD
ENDROOT
BRANCH   1  22
HETATM   22  C2  UNL     1      20.603   3.385  51.655  1.00  0.00     0.081 C 
BRANCH  22  23
HETATM   23  C1  UNL     1      19.136   3.468  51.457  1.00  0.00     0.084 C 
HETATM   24  N1  UNL     1      17.937   3.691  51.815  1.00  0.00    -0.316 NA
HETATM   25  H1  UNL     1      17.803   4.000  52.812  1.00  0.00     0.185 HD
ENDBRANCH  22  23
ENDBRANCH   1  22
BRANCH   9  26
HETATM   26  C12 UNL     1      25.918   4.144  49.729  1.00  0.00     0.200 C 
BRANCH  26  27
HETATM   27  O1  UNL     1      27.012   3.731  50.534  1.00  0.00    -0.399 OA
HETATM   28  H16 UNL     1      27.750   3.502  49.903  1.00  0.00     0.209 HD
ENDBRANCH  26  27
ENDBRANCH   9  26
TORSDOF 4
ENDMDL
MODEL 4
REMARK VINA RESULT:      -6.5      2.170      4.283
REMARK  4 active torsions:
REMARK  status: ('A' for Active; 'I' for Inactive)
REMARK    1  A    between atoms: C1_2  and  C2_3 
REMARK    2  A    between atoms: C2_3  and  C3_4 
REMARK    3  A    between atoms: C11_12  and  C12_13 
REMARK    4  A    between atoms: C12_13  and  O1_14 
ROOT
HETATM    1  C3  UNL     1      24.168   4.229  50.169  1.00  0.00    -0.061 C 
HETATM    2  C4  UNL     1      24.183   4.797  48.993  1.00  0.00    -0.009 C 
HETATM    3  C5  UNL     1      23.560   6.020  48.482  1.00  0.00     0.073 C 
HETATM    4  C6  UNL     1      23.028   6.937  49.490  1.00  0.00    -0.017 C 
HETATM    5  C7  UNL     1      23.192   6.908  50.808  1.00  0.00    -0.028 C 
HETATM    6  C8  UNL     1      23.755   5.934  51.778  1.00  0.00     0.049 C 
HETATM    7  C9  UNL     1      23.295   4.555  51.328  1.00  0.00     0.053 C 
HETATM    8  C10 UNL     1      21.848   4.645  51.060  1.00  0.00     0.060 C 
HETATM    9  C11 UNL     1      21.044   3.374  51.176  1.00  0.00     0.248 C 
HETATM   10  N2  UNL     1      21.447   2.519  50.105  1.00  0.00     0.100 N 
HETATM   11  C13 UNL     1      21.970   1.246  50.557  1.00  0.00     0.300 C 
HETATM   12  C14 UNL     1      22.443   1.252  51.965  1.00  0.00     0.007 C 
HETATM   13  C15 UNL     1      23.318   2.103  52.541  1.00  0.00     0.049 C 
HETATM   14  C16 UNL     1      23.596   3.528  52.362  1.00  0.00     0.162 C 
HETATM   15  O2  UNL     1      24.254   4.029  53.313  1.00  0.00    -0.292 OA
HETATM   16  C17 UNL     1      20.547   2.354  49.024  1.00  0.00     0.294 C 
HETATM   17  C18 UNL     1      21.224   2.157  47.683  1.00  0.00     0.171 C 
HETATM   18  N3  UNL     1      22.051   3.238  47.265  1.00  0.00    -0.313 N 
HETATM   19  N4  UNL     1      21.910   4.576  46.970  1.00  0.00    -0.195 NA
HETATM   20  C19 UNL     1      22.525   5.566  47.483  1.00  0.00     0.123 C 
HETATM   21  H25 UNL     1      23.062   3.035  47.117  1.00  0.00     0.182 HD
ENDROOT
BRANCH   1  22
HETATM   22  C2  UNL     1      25.190   3.150  50.270  1.00  0.00     0.081 C 
BRANCH  22  23
HETATM   23  C1  UNL     1      26.508   3.589  49.751  1.00  0.00     0.084 C 
HETATM   24  N1  UNL     1      27.546   4.322  49.718  1.00  0.00    -0.316 NA
HETATM   25  H1  UNL     1      27.590   5.093  50.433  1.00  0.00     0.185 HD
ENDBRANCH  22  23
ENDBRANCH   1  22
BRANCH   9  26
HETATM   26  C12 UNL     1      19.587   3.858  51.066  1.00  0.00     0.200 C 
BRANCH  26  27
HETATM   27  O1  UNL     1      18.980   3.285  52.214  1.00  0.00    -0.399 OA
HETATM   28  H16 UNL     1      19.069   2.296  52.111  1.00  0.00     0.209 HD
ENDBRANCH  26  27
ENDBRANCH   9  26
TORSDOF 4
ENDMDL
MODEL 5
REMARK VINA RESULT:      -6.4      8.940     11.921
REMARK  4 active torsions:
REMARK  status: ('A' for Active; 'I' for Inactive)
REMARK    1  A    between atoms: C1_2  and  C2_3 
REMARK    2  A    between atoms: C2_3  and  C3_4 
REMARK    3  A    between atoms: C11_12  and  C12_13 
REMARK    4  A    between atoms: C12_13  and  O1_14 
ROOT
HETATM    1  C3  UNL     1      32.846   6.812  46.536  1.00  0.00    -0.061 C 
HETATM    2  C4  UNL     1      33.606   7.637  45.866  1.00  0.00    -0.009 C 
HETATM    3  C5  UNL     1      34.585   8.640  46.293  1.00  0.00     0.073 C 
HETATM    4  C6  UNL     1      35.009   8.566  47.691  1.00  0.00    -0.017 C 
HETATM    5  C7  UNL     1      34.775   7.609  48.581  1.00  0.00    -0.028 C 
HETATM    6  C8  UNL     1      33.906   6.405  48.628  1.00  0.00     0.049 C 
HETATM    7  C9  UNL     1      32.578   6.801  47.998  1.00  0.00     0.053 C 
HETATM    8  C10 UNL     1      32.173   8.083  48.605  1.00  0.00     0.060 C 
HETATM    9  C11 UNL     1      30.699   8.402  48.624  1.00  0.00     0.248 C 
HETATM   10  N2  UNL     1      30.295   8.623  47.273  1.00  0.00     0.100 N 
HETATM   11  C13 UNL     1      29.247   7.725  46.836  1.00  0.00     0.300 C 
HETATM   12  C14 UNL     1      29.142   6.481  47.642  1.00  0.00     0.007 C 
HETATM   13  C15 UNL     1      30.120   5.601  47.939  1.00  0.00     0.049 C 
HETATM   14  C16 UNL     1      31.550   5.747  48.213  1.00  0.00     0.162 C 
HETATM   15  O2  UNL     1      32.055   4.735  48.770  1.00  0.00    -0.292 OA
HETATM   16  C17 UNL     1      30.031   9.957  46.878  1.00  0.00     0.294 C 
HETATM   17  C18 UNL     1      30.381  10.253  45.434  1.00  0.00     0.171 C 
HETATM   18  N3  UNL     1      31.753  10.073  45.100  1.00  0.00    -0.313 N 
HETATM   19  N4  UNL     1      32.971  10.595  45.475  1.00  0.00    -0.195 NA
HETATM   20  C19 UNL     1      33.991   9.976  45.919  1.00  0.00     0.123 C 
HETATM   21  H25 UNL     1      31.977   9.365  44.370  1.00  0.00     0.182 HD
ENDROOT
BRANCH   1  22
HETATM   22  C2  UNL     1      32.232   5.788  45.644  1.00  0.00     0.081 C 
BRANCH  22  23
HETATM   23  C1  UNL     1      33.219   4.770  45.211  1.00  0.00     0.084 C 
HETATM   24  N1  UNL     1      34.382   4.268  45.100  1.00  0.00    -0.316 NA
HETATM   25  H1  UNL     1      35.166   4.819  45.534  1.00  0.00     0.185 HD
ENDBRANCH  22  23
ENDBRANCH   1  22
BRANCH   9  26
HETATM   26  C12 UNL     1      30.615   9.659  49.509  1.00  0.00     0.200 C 
BRANCH  26  27
HETATM   27  O1  UNL     1      29.395   9.468  50.208  1.00  0.00    -0.399 OA
HETATM   28  H16 UNL     1      29.207  10.329  50.678  1.00  0.00     0.209 HD
ENDBRANCH  26  27
ENDBRANCH   9  26
TORSDOF 4
ENDMDL
MODEL 6
REMARK VINA RESULT:      -6.4      9.855     12.680
REMARK  4 active torsions:
REMARK  status: ('A' for Active; 'I' for Inactive)
REMARK    1  A    between atoms: C1_2  and  C2_3 
REMARK    2  A    between atoms: C2_3  and  C3_4 
REMARK    3  A    between atoms: C11_12  and  C12_13 
REMARK    4  A    between atoms: C12_13  and  O1_14 
ROOT
HETATM    1  C3  UNL     1      32.201   6.636  47.154  1.00  0.00    -0.061 C 
HETATM    2  C4  UNL     1      32.674   5.422  47.058  1.00  0.00    -0.009 C 
HETATM    3  C5  UNL     1      34.013   4.868  47.274  1.00  0.00     0.073 C 
HETATM    4  C6  UNL     1      34.962   5.738  47.969  1.00  0.00    -0.017 C 
HETATM    5  C7  UNL     1      34.731   6.886  48.594  1.00  0.00    -0.028 C 
HETATM    6  C8  UNL     1      33.577   7.817  48.696  1.00  0.00     0.049 C 
HETATM    7  C9  UNL     1      32.963   7.903  47.306  1.00  0.00     0.053 C 
HETATM    8  C10 UNL     1      34.069   8.127  46.355  1.00  0.00     0.060 C 
HETATM    9  C11 UNL     1      33.733   8.816  45.056  1.00  0.00     0.248 C 
HETATM   10  N2  UNL     1      32.923   7.918  44.297  1.00  0.00     0.100 N 
HETATM   11  C13 UNL     1      31.625   8.465  43.960  1.00  0.00     0.300 C 
HETATM   12  C14 UNL     1      31.194   9.583  44.839  1.00  0.00     0.007 C 
HETATM   13  C15 UNL     1      31.134   9.600  46.186  1.00  0.00     0.049 C 
HETATM   14  C16 UNL     1      31.954   8.994  47.235  1.00  0.00     0.162 C 
HETATM   15  O2  UNL     1      31.773   9.512  48.369  1.00  0.00    -0.292 OA
HETATM   16  C17 UNL     1      33.521   7.280  43.182  1.00  0.00     0.294 C 
HETATM   17  C18 UNL     1      33.000   5.882  42.920  1.00  0.00     0.171 C 
HETATM   18  N3  UNL     1      33.207   4.956  43.982  1.00  0.00    -0.313 N 
HETATM   19  N4  UNL     1      34.269   4.406  44.663  1.00  0.00    -0.195 NA
HETATM   20  C19 UNL     1      34.496   4.421  45.916  1.00  0.00     0.123 C 
HETATM   21  H25 UNL     1      32.360   4.530  44.414  1.00  0.00     0.182 HD
ENDROOT
BRANCH   1  22
HETATM   22  C2  UNL     1      30.712   6.648  47.114  1.00  0.00     0.081 C 
BRANCH  22  23
HETATM   23  C1  UNL     1      30.123   5.853  48.218  1.00  0.00     0.084 C 
HETATM   24  N1  UNL     1      29.177   5.421  48.949  1.00  0.00    -0.316 NA
HETATM   25  H1  UNL     1      28.214   5.776  48.714  1.00  0.00     0.185 HD
ENDBRANCH  22  23
ENDBRANCH   1  22
BRANCH   9  26
HETATM   26  C12 UNL     1      35.111   9.089  44.426  1.00  0.00     0.200 C 
BRANCH  26  27
HETATM   27  O1  UNL     1      35.946   9.257  45.562  1.00  0.00    -0.399 OA
HETATM   28  H16 UNL     1      36.109   8.340  45.923  1.00  0.00     0.209 HD
ENDBRANCH  26  27
ENDBRANCH   9  26
TORSDOF 4
ENDMDL
MODEL 7
REMARK VINA RESULT:      -6.4      7.673     10.239
REMARK  4 active torsions:
REMARK  status: ('A' for Active; 'I' for Inactive)
REMARK    1  A    between atoms: C1_2  and  C2_3 
REMARK    2  A    between atoms: C2_3  and  C3_4 
REMARK    3  A    between atoms: C11_12  and  C12_13 
REMARK    4  A    between atoms: C12_13  and  O1_14 
ROOT
HETATM    1  C3  UNL     1      30.228   9.973  47.121  1.00  0.00    -0.061 C 
HETATM    2  C4  UNL     1      29.719  10.993  46.483  1.00  0.00    -0.009 C 
HETATM    3  C5  UNL     1      29.180  12.274  46.947  1.00  0.00     0.073 C 
HETATM    4  C6  UNL     1      29.475  12.629  48.335  1.00  0.00    -0.017 C 
HETATM    5  C7  UNL     1      30.315  12.044  49.180  1.00  0.00    -0.028 C 
HETATM    6  C8  UNL     1      31.104  10.785  49.180  1.00  0.00     0.049 C 
HETATM    7  C9  UNL     1      30.208   9.709  48.584  1.00  0.00     0.053 C 
HETATM    8  C10 UNL     1      28.898   9.812  49.255  1.00  0.00     0.060 C 
HETATM    9  C11 UNL     1      28.049   8.567  49.306  1.00  0.00     0.248 C 
HETATM   10  N2  UNL     1      27.627   8.287  47.970  1.00  0.00     0.100 N 
HETATM   11  C13 UNL     1      28.042   6.981  47.503  1.00  0.00     0.300 C 
HETATM   12  C14 UNL     1      29.192   6.408  48.250  1.00  0.00     0.007 C 
HETATM   13  C15 UNL     1      30.389   6.981  48.494  1.00  0.00     0.049 C 
HETATM   14  C16 UNL     1      30.806   8.358  48.759  1.00  0.00     0.162 C 
HETATM   15  O2  UNL     1      31.958   8.440  49.263  1.00  0.00    -0.292 OA
HETATM   16  C17 UNL     1      26.274   8.548  47.643  1.00  0.00     0.294 C 
HETATM   17  C18 UNL     1      26.063   8.994  46.210  1.00  0.00     0.171 C 
HETATM   18  N3  UNL     1      26.730  10.201  45.854  1.00  0.00    -0.313 N 
HETATM   19  N4  UNL     1      26.724  11.522  46.240  1.00  0.00    -0.195 NA
HETATM   20  C19 UNL     1      27.703  12.231  46.642  1.00  0.00     0.123 C 
HETATM   21  H25 UNL     1      27.434  10.147  45.088  1.00  0.00     0.182 HD
ENDROOT
BRANCH   1  22
HETATM   22  C2  UNL     1      30.901   9.026  46.189  1.00  0.00     0.081 C 
BRANCH  22  23
HETATM   23  C1  UNL     1      30.074   8.750  44.989  1.00  0.00     0.084 C 
HETATM   24  N1  UNL     1      29.015   8.406  44.375  1.00  0.00    -0.316 NA
HETATM   25  H1  UNL     1      28.194   8.149  44.980  1.00  0.00     0.185 HD
ENDBRANCH  22  23
ENDBRANCH   1  22
BRANCH   9  26
HETATM   26  C12 UNL     1      26.896   8.955  50.250  1.00  0.00     0.200 C 
BRANCH  26  27
HETATM   27  O1  UNL     1      27.542   9.774  51.212  1.00  0.00    -0.399 OA
HETATM   28  H16 UNL     1      28.503   9.501  51.208  1.00  0.00     0.209 HD
ENDBRANCH  26  27
ENDBRANCH   9  26
TORSDOF 4
ENDMDL
MODEL 8
REMARK VINA RESULT:      -6.3      7.204      9.082
REMARK  4 active torsions:
REMARK  status: ('A' for Active; 'I' for Inactive)
REMARK    1  A    between atoms: C1_2  and  C2_3 
REMARK    2  A    between atoms: C2_3  and  C3_4 
REMARK    3  A    between atoms: C11_12  and  C12_13 
REMARK    4  A    between atoms: C12_13  and  O1_14 
ROOT
HETATM    1  C3  UNL     1      29.254   8.394  48.741  1.00  0.00    -0.061 C 
HETATM    2  C4  UNL     1      28.335   8.844  49.553  1.00  0.00    -0.009 C 
HETATM    3  C5  UNL     1      26.915   8.519  49.710  1.00  0.00     0.073 C 
HETATM    4  C6  UNL     1      26.459   7.302  49.039  1.00  0.00    -0.017 C 
HETATM    5  C7  UNL     1      27.183   6.352  48.459  1.00  0.00    -0.028 C 
HETATM    6  C8  UNL     1      28.613   6.197  48.087  1.00  0.00     0.049 C 
HETATM    7  C9  UNL     1      29.069   7.541  47.538  1.00  0.00     0.053 C 
HETATM    8  C10 UNL     1      28.051   7.981  46.565  1.00  0.00     0.060 C 
HETATM    9  C11 UNL     1      28.498   8.925  45.478  1.00  0.00     0.248 C 
HETATM   10  N2  UNL     1      28.810  10.172  46.101  1.00  0.00     0.100 N 
HETATM   11  C13 UNL     1      30.177  10.594  45.880  1.00  0.00     0.300 C 
HETATM   12  C14 UNL     1      31.099   9.489  45.507  1.00  0.00     0.007 C 
HETATM   13  C15 UNL     1      31.296   8.322  46.155  1.00  0.00     0.049 C 
HETATM   14  C16 UNL     1      30.413   7.432  46.909  1.00  0.00     0.162 C 
HETATM   15  O2  UNL     1      30.895   6.280  47.077  1.00  0.00    -0.292 OA
HETATM   16  C17 UNL     1      27.901  11.243  45.913  1.00  0.00     0.294 C 
HETATM   17  C18 UNL     1      27.803  12.180  47.099  1.00  0.00     0.171 C 
HETATM   18  N3  UNL     1      27.357  11.574  48.308  1.00  0.00    -0.313 N 
HETATM   19  N4  UNL     1      26.238  10.915  48.766  1.00  0.00    -0.195 NA
HETATM   20  C19 UNL     1      26.162   9.755  49.285  1.00  0.00     0.123 C 
HETATM   21  H25 UNL     1      28.007  11.598  49.121  1.00  0.00     0.182 HD
ENDROOT
BRANCH   1  22
HETATM   22  C2  UNL     1      30.616   8.827  49.161  1.00  0.00     0.081 C 
BRANCH  22  23
HETATM   23  C1  UNL     1      30.645  10.258  49.548  1.00  0.00     0.084 C 
HETATM   24  N1  UNL     1      30.384  11.495  49.407  1.00  0.00    -0.316 NA
HETATM   25  H1  UNL     1      29.832  11.754  48.550  1.00  0.00     0.185 HD
ENDBRANCH  22  23
ENDBRANCH   1  22
BRANCH   9  26
HETATM   26  C12 UNL     1      27.282   8.991  44.536  1.00  0.00     0.200 C 
BRANCH  26  27
HETATM   27  O1  UNL     1      27.884   9.109  43.256  1.00  0.00    -0.399 OA
HETATM   28  H16 UNL     1      27.971  10.088  43.079  1.00  0.00     0.209 HD
ENDBRANCH  26  27
ENDBRANCH   9  26
TORSDOF 4
ENDMDL
MODEL 9
REMARK VINA RESULT:      -6.2      2.468      4.799
REMARK  4 active torsions:
REMARK  status: ('A' for Active; 'I' for Inactive)
REMARK    1  A    between atoms: C1_2  and  C2_3 
REMARK    2  A    between atoms: C2_3  and  C3_4 
REMARK    3  A    between atoms: C11_12  and  C12_13 
REMARK    4  A    between atoms: C12_13  and  O1_14 
ROOT
HETATM    1  C3  UNL     1      21.838   1.960  50.334  1.00  0.00    -0.061 C 
HETATM    2  C4  UNL     1      21.707   0.796  50.914  1.00  0.00    -0.009 C 
HETATM    3  C5  UNL     1      21.108   0.393  52.188  1.00  0.00     0.073 C 
HETATM    4  C6  UNL     1      20.267   1.394  52.845  1.00  0.00    -0.017 C 
HETATM    5  C7  UNL     1      19.821   2.548  52.365  1.00  0.00    -0.028 C 
HETATM    6  C8  UNL     1      20.099   3.363  51.154  1.00  0.00     0.049 C 
HETATM    7  C9  UNL     1      21.602   3.304  50.924  1.00  0.00     0.053 C 
HETATM    8  C10 UNL     1      22.251   3.580  52.219  1.00  0.00     0.060 C 
HETATM    9  C11 UNL     1      23.646   4.154  52.184  1.00  0.00     0.248 C 
HETATM   10  N2  UNL     1      24.510   3.135  51.679  1.00  0.00     0.100 N 
HETATM   11  C13 UNL     1      25.214   3.528  50.477  1.00  0.00     0.300 C 
HETATM   12  C14 UNL     1      24.573   4.647  49.738  1.00  0.00     0.007 C 
HETATM   13  C15 UNL     1      23.293   4.739  49.323  1.00  0.00     0.049 C 
HETATM   14  C16 UNL     1      22.021   4.282  49.884  1.00  0.00     0.162 C 
HETATM   15  O2  UNL     1      21.019   4.846  49.368  1.00  0.00    -0.292 OA
HETATM   16  C17 UNL     1      25.376   2.496  52.600  1.00  0.00     0.294 C 
HETATM   17  C18 UNL     1      25.645   1.039  52.283  1.00  0.00     0.171 C 
HETATM   18  N3  UNL     1      24.492   0.204  52.276  1.00  0.00    -0.313 N 
HETATM   19  N4  UNL     1      23.516  -0.195  53.162  1.00  0.00    -0.195 NA
HETATM   20  C19 UNL     1      22.253  -0.083  53.047  1.00  0.00     0.123 C 
HETATM   21  H25 UNL     1      24.258  -0.278  51.383  1.00  0.00     0.182 HD
ENDROOT
BRANCH   1  22
HETATM   22  C2  UNL     1      22.262   1.819  48.913  1.00  0.00     0.081 C 
BRANCH  22  23
HETATM   23  C1  UNL     1      21.108   1.884  47.984  1.00  0.00     0.084 C 
HETATM   24  N1  UNL     1      20.075   2.415  47.467  1.00  0.00    -0.316 NA
HETATM   25  H1  UNL     1      19.794   3.352  47.855  1.00  0.00     0.185 HD
ENDBRANCH  22  23
ENDBRANCH   1  22
BRANCH   9  26
HETATM   26  C12 UNL     1      23.920   4.527  53.652  1.00  0.00     0.200 C 
BRANCH  26  27
HETATM   27  O1  UNL     1      24.196   5.916  53.576  1.00  0.00    -0.399 OA
HETATM   28  H16 UNL     1      24.679   6.056  52.713  1.00  0.00     0.209 HD
ENDBRANCH  26  27
ENDBRANCH   9  26
TORSDOF 4
ENDMDL
