MODEL 1
REMARK VINA RESULT:      -6.3      0.000      0.000
REMARK  8 active torsions:
REMARK  status: ('A' for Active; 'I' for Inactive)
REMARK    1  A    between atoms: O1_2  and  C2_3 
REMARK    2  A    between atoms: C3_4  and  N1_5 
REMARK    3  A    between atoms: C11_14  and  C12_15 
REMARK    4  A    between atoms: C12_15  and  C13_17 
REMARK    5  A    between atoms: C13_17  and  C14_18 
REMARK    6  A    between atoms: C14_18  and  N3_19 
REMARK    7  A    between atoms: C14_18  and  C15_20 
REMARK    8  A    between atoms: C16_21  and  C17_22 
ROOT
HETATM    1  C2  UNL     1      21.866   3.148  51.861  1.00  0.00     0.082 C 
HETATM    2  C3  UNL     1      22.909   3.753  52.414  1.00  0.00     0.037 C 
HETATM    3  C4  UNL     1      24.174   3.088  52.818  1.00  0.00     0.035 C 
HETATM    4  C5  UNL     1      24.486   1.809  53.045  1.00  0.00    -0.026 C 
HETATM    5  C6  UNL     1      25.503   0.822  53.421  1.00  0.00     0.159 C 
HETATM    6  N2  UNL     1      24.780  -0.305  54.028  1.00  0.00    -0.385 N 
HETATM    7  C7  UNL     1      23.479  -0.532  53.410  1.00  0.00     0.040 A 
HETATM    8  C8  UNL     1      22.280  -0.647  52.803  1.00  0.00     0.039 A 
HETATM    9  C9  UNL     1      22.216   0.701  52.240  1.00  0.00    -0.025 A 
HETATM   10  C10 UNL     1      23.395   0.811  52.840  1.00  0.00     0.006 A 
HETATM   11  C11 UNL     1      21.589   1.751  51.481  1.00  0.00     0.148 C 
HETATM   12  H9  UNL     1      25.000  -0.979  54.808  1.00  0.00     0.160 HD
ENDROOT
BRANCH  11  13
HETATM   13  C12 UNL     1      21.911   1.689  50.015  1.00  0.00     0.144 C 
HETATM   14  O2  UNL     1      20.934   1.002  49.728  1.00  0.00    -0.297 OA
BRANCH  13  15
HETATM   15  C13 UNL     1      22.920   2.173  49.082  1.00  0.00     0.118 C 
BRANCH  15  16
HETATM   16  C14 UNL     1      22.514   3.420  48.301  1.00  0.00     0.247 C 
BRANCH  16  17
HETATM   17  N3  UNL     1      21.153   3.794  48.492  1.00  0.00     0.086 N 
HETATM   18  H15 UNL     1      21.011   4.521  49.216  1.00  0.00     0.313 HD
HETATM   19  H16 UNL     1      20.678   4.078  47.605  1.00  0.00     0.313 HD
ENDBRANCH  16  17
BRANCH  16  20
HETATM   20  C15 UNL     1      23.392   4.569  48.740  1.00  0.00     0.005 C 
HETATM   21  C16 UNL     1      24.595   4.174  49.176  1.00  0.00    -0.014 C 
BRANCH  21  22
HETATM   22  C17 UNL     1      25.731   5.012  49.689  1.00  0.00     0.141 C 
HETATM   23 CL1  UNL     1      27.259   4.503  48.944  1.00  0.00    -0.126 Cl
ENDBRANCH  21  22
ENDBRANCH  16  20
ENDBRANCH  15  16
ENDBRANCH  13  15
ENDBRANCH  11  13
BRANCH   1  24
HETATM   24  O1  UNL     1      20.872   4.093  51.618  1.00  0.00    -0.357 OA
HETATM   25  C1  UNL     1      19.529   3.660  51.742  1.00  0.00     0.209 C 
ENDBRANCH   1  24
BRANCH   2  26
HETATM   26  N1  UNL     1      23.013   5.133  52.716  1.00  0.00    -0.301 NA
HETATM   27  H4  UNL     1      22.883   5.708  51.877  1.00  0.00     0.124 HD
HETATM   28  H5  UNL     1      23.005   6.144  52.472  1.00  0.00     0.124 HD
ENDBRANCH   2  26
TORSDOF 8
ENDMDL
MODEL 2
REMARK VINA RESULT:      -6.2      3.015      5.288
REMARK  8 active torsions:
REMARK  status: ('A' for Active; 'I' for Inactive)
REMARK    1  A    between atoms: O1_2  and  C2_3 
REMARK    2  A    between atoms: C3_4  and  N1_5 
REMARK    3  A    between atoms: C11_14  and  C12_15 
REMARK    4  A    between atoms: C12_15  and  C13_17 
REMARK    5  A    between atoms: C13_17  and  C14_18 
REMARK    6  A    between atoms: C14_18  and  N3_19 
REMARK    7  A    between atoms: C14_18  and  C15_20 
REMARK    8  A    between atoms: C16_21  and  C17_22 
ROOT
HETATM    1  C2  UNL     1      24.801   5.107  50.427  1.00  0.00     0.082 C 
HETATM    2  C3  UNL     1      24.087   5.658  51.398  1.00  0.00     0.037 C 
HETATM    3  C4  UNL     1      22.965   5.003  52.118  1.00  0.00     0.035 C 
HETATM    4  C5  UNL     1      22.204   3.944  51.826  1.00  0.00    -0.026 C 
HETATM    5  C6  UNL     1      21.106   3.054  52.215  1.00  0.00     0.159 C 
HETATM    6  N2  UNL     1      20.540   2.527  50.965  1.00  0.00    -0.385 N 
HETATM    7  C7  UNL     1      21.552   2.324  49.934  1.00  0.00     0.040 A 
HETATM    8  C8  UNL     1      22.547   2.202  49.032  1.00  0.00     0.039 A 
HETATM    9  C9  UNL     1      23.501   3.110  49.669  1.00  0.00    -0.025 A 
HETATM   10  C10 UNL     1      22.518   3.229  50.555  1.00  0.00     0.006 A 
HETATM   11  C11 UNL     1      24.765   3.791  49.762  1.00  0.00     0.148 C 
HETATM   12  H9  UNL     1      19.566   2.264  50.656  1.00  0.00     0.160 HD
ENDROOT
BRANCH  11  13
HETATM   13  C12 UNL     1      25.817   2.984  50.467  1.00  0.00     0.144 C 
HETATM   14  O2  UNL     1      26.576   2.946  49.502  1.00  0.00    -0.297 OA
BRANCH  13  15
HETATM   15  C13 UNL     1      26.060   2.379  51.770  1.00  0.00     0.118 C 
BRANCH  15  16
HETATM   16  C14 UNL     1      25.421   1.006  51.960  1.00  0.00     0.247 C 
BRANCH  16  17
HETATM   17  N3  UNL     1      26.351  -0.011  52.319  1.00  0.00     0.086 N 
HETATM   18  H15 UNL     1      26.644  -0.616  51.530  1.00  0.00     0.313 HD
HETATM   19  H16 UNL     1      27.194   0.361  52.814  1.00  0.00     0.313 HD
ENDBRANCH  16  17
BRANCH  16  20
HETATM   20  C15 UNL     1      24.378   1.107  53.049  1.00  0.00     0.005 C 
HETATM   21  C16 UNL     1      23.409   0.190  52.934  1.00  0.00    -0.014 C 
BRANCH  21  22
HETATM   22  C17 UNL     1      22.211  -0.027  53.813  1.00  0.00     0.141 C 
HETATM   23 CL1  UNL     1      22.593  -1.185  55.103  1.00  0.00    -0.126 Cl
ENDBRANCH  21  22
ENDBRANCH  16  20
ENDBRANCH  15  16
ENDBRANCH  13  15
ENDBRANCH  11  13
BRANCH   1  24
HETATM   24  O1  UNL     1      25.764   6.018  50.001  1.00  0.00    -0.357 OA
HETATM   25  C1  UNL     1      25.747   6.381  48.631  1.00  0.00     0.209 C 
ENDBRANCH   1  24
BRANCH   2  26
HETATM   26  N1  UNL     1      24.259   6.960  51.929  1.00  0.00    -0.301 NA
HETATM   27  H4  UNL     1      23.551   7.606  51.566  1.00  0.00     0.124 HD
HETATM   28  H5  UNL     1      24.009   7.963  52.036  1.00  0.00     0.124 HD
ENDBRANCH   2  26
TORSDOF 8
ENDMDL
MODEL 3
REMARK VINA RESULT:      -6.1      1.939      2.494
REMARK  8 active torsions:
REMARK  status: ('A' for Active; 'I' for Inactive)
REMARK    1  A    between atoms: O1_2  and  C2_3 
REMARK    2  A    between atoms: C3_4  and  N1_5 
REMARK    3  A    between atoms: C11_14  and  C12_15 
REMARK    4  A    between atoms: C12_15  and  C13_17 
REMARK    5  A    between atoms: C13_17  and  C14_18 
REMARK    6  A    between atoms: C14_18  and  N3_19 
REMARK    7  A    between atoms: C14_18  and  C15_20 
REMARK    8  A    between atoms: C16_21  and  C17_22 
ROOT
HETATM    1  C2  UNL     1      24.395   2.936  51.762  1.00  0.00     0.082 C 
HETATM    2  C3  UNL     1      25.637   2.821  51.312  1.00  0.00     0.037 C 
HETATM    3  C4  UNL     1      26.435   1.569  51.303  1.00  0.00     0.035 C 
HETATM    4  C5  UNL     1      26.307   0.414  51.963  1.00  0.00    -0.026 C 
HETATM    5  C6  UNL     1      26.816  -0.936  52.223  1.00  0.00     0.159 C 
HETATM    6  N2  UNL     1      26.393  -1.281  53.587  1.00  0.00    -0.385 N 
HETATM    7  C7  UNL     1      25.089  -0.721  53.926  1.00  0.00     0.040 A 
HETATM    8  C8  UNL     1      23.897  -0.137  54.164  1.00  0.00     0.039 A 
HETATM    9  C9  UNL     1      23.962   0.875  53.111  1.00  0.00    -0.025 A 
HETATM   10  C10 UNL     1      25.136   0.298  52.880  1.00  0.00     0.006 A 
HETATM   11  C11 UNL     1      23.439   1.983  52.356  1.00  0.00     0.148 C 
HETATM   12  H9  UNL     1      26.826  -1.843  54.367  1.00  0.00     0.160 HD
ENDROOT
BRANCH  11  13
HETATM   13  C12 UNL     1      22.572   1.555  51.207  1.00  0.00     0.144 C 
HETATM   14  O2  UNL     1      21.696   1.070  51.920  1.00  0.00    -0.297 OA
BRANCH  13  15
HETATM   15  C13 UNL     1      22.564   1.593  49.751  1.00  0.00     0.118 C 
BRANCH  15  16
HETATM   16  C14 UNL     1      21.779   2.758  49.152  1.00  0.00     0.247 C 
BRANCH  16  17
HETATM   17  N3  UNL     1      21.170   3.597  50.128  1.00  0.00     0.086 N 
HETATM   18  H15 UNL     1      20.803   4.489  49.750  1.00  0.00     0.313 HD
HETATM   19  H16 UNL     1      20.428   3.111  50.680  1.00  0.00     0.313 HD
ENDBRANCH  16  17
BRANCH  16  20
HETATM   20  C15 UNL     1      22.722   3.596  48.321  1.00  0.00     0.005 C 
HETATM   21  C16 UNL     1      22.558   4.912  48.509  1.00  0.00    -0.014 C 
BRANCH  21  22
HETATM   22  C17 UNL     1      23.299   6.052  47.870  1.00  0.00     0.141 C 
HETATM   23 CL1  UNL     1      24.927   6.196  48.563  1.00  0.00    -0.126 Cl
ENDBRANCH  21  22
ENDBRANCH  16  20
ENDBRANCH  15  16
ENDBRANCH  13  15
ENDBRANCH  11  13
BRANCH   1  24
HETATM   24  O1  UNL     1      23.977   4.255  51.605  1.00  0.00    -0.357 OA
HETATM   25  C1  UNL     1      23.358   4.872  52.720  1.00  0.00     0.209 C 
ENDBRANCH   1  24
BRANCH   2  26
HETATM   26  N1  UNL     1      26.426   3.859  50.760  1.00  0.00    -0.301 NA
HETATM   27  H4  UNL     1      27.325   3.941  51.246  1.00  0.00     0.124 HD
HETATM   28  H5  UNL     1      27.279   4.451  50.700  1.00  0.00     0.124 HD
ENDBRANCH   2  26
TORSDOF 8
ENDMDL
MODEL 4
REMARK VINA RESULT:      -6.0      2.485      5.207
REMARK  8 active torsions:
REMARK  status: ('A' for Active; 'I' for Inactive)
REMARK    1  A    between atoms: O1_2  and  C2_3 
REMARK    2  A    between atoms: C3_4  and  N1_5 
REMARK    3  A    between atoms: C11_14  and  C12_15 
REMARK    4  A    between atoms: C12_15  and  C13_17 
REMARK    5  A    between atoms: C13_17  and  C14_18 
REMARK    6  A    between atoms: C14_18  and  N3_19 
REMARK    7  A    between atoms: C14_18  and  C15_20 
REMARK    8  A    between atoms: C16_21  and  C17_22 
ROOT
HETATM    1  C2  UNL     1      22.069   1.394  50.787  1.00  0.00     0.082 C 
HETATM    2  C3  UNL     1      22.198   1.637  49.490  1.00  0.00     0.037 C 
HETATM    3  C4  UNL     1      22.970   2.759  48.898  1.00  0.00     0.035 C 
HETATM    4  C5  UNL     1      23.420   3.909  49.407  1.00  0.00    -0.026 C 
HETATM    5  C6  UNL     1      24.147   5.165  49.197  1.00  0.00     0.159 C 
HETATM    6  N2  UNL     1      23.605   6.124  50.170  1.00  0.00    -0.385 N 
HETATM    7  C7  UNL     1      23.231   5.490  51.430  1.00  0.00     0.040 A 
HETATM    8  C8  UNL     1      22.883   4.816  52.545  1.00  0.00     0.039 A 
HETATM    9  C9  UNL     1      22.804   3.483  51.950  1.00  0.00    -0.025 A 
HETATM   10  C10 UNL     1      23.146   4.149  50.854  1.00  0.00     0.006 A 
HETATM   11  C11 UNL     1      22.577   2.062  51.999  1.00  0.00     0.148 C 
HETATM   12  H9  UNL     1      23.431   7.163  50.153  1.00  0.00     0.160 HD
ENDROOT
BRANCH  11  13
HETATM   13  C12 UNL     1      23.807   1.284  52.370  1.00  0.00     0.144 C 
HETATM   14  O2  UNL     1      23.302   0.769  53.365  1.00  0.00    -0.297 OA
BRANCH  13  15
HETATM   15  C13 UNL     1      25.166   1.067  51.892  1.00  0.00     0.118 C 
BRANCH  15  16
HETATM   16  C14 UNL     1      26.198   2.040  52.455  1.00  0.00     0.247 C 
BRANCH  16  17
HETATM   17  N3  UNL     1      25.807   2.635  53.689  1.00  0.00     0.086 N 
HETATM   18  H15 UNL     1      24.956   3.223  53.625  1.00  0.00     0.313 HD
HETATM   19  H16 UNL     1      25.704   1.942  54.464  1.00  0.00     0.313 HD
ENDBRANCH  16  17
BRANCH  16  20
HETATM   20  C15 UNL     1      27.494   1.294  52.674  1.00  0.00     0.005 C 
HETATM   21  C16 UNL     1      27.313  -0.009  52.925  1.00  0.00    -0.014 C 
BRANCH  21  22
HETATM   22  C17 UNL     1      28.345  -1.067  53.192  1.00  0.00     0.141 C 
HETATM   23 CL1  UNL     1      29.930  -0.324  53.484  1.00  0.00    -0.126 Cl
ENDBRANCH  21  22
ENDBRANCH  16  20
ENDBRANCH  15  16
ENDBRANCH  13  15
ENDBRANCH  11  13
BRANCH   1  24
HETATM   24  O1  UNL     1      21.280   0.259  50.958  1.00  0.00    -0.357 OA
HETATM   25  C1  UNL     1      20.118   0.398  51.757  1.00  0.00     0.209 C 
ENDBRANCH   1  24
BRANCH   2  26
HETATM   26  N1  UNL     1      21.633   0.878  48.436  1.00  0.00    -0.301 NA
HETATM   27  H4  UNL     1      21.477   1.456  47.604  1.00  0.00     0.124 HD
HETATM   28  H5  UNL     1      21.257   0.753  47.474  1.00  0.00     0.124 HD
ENDBRANCH   2  26
TORSDOF 8
ENDMDL
MODEL 5
REMARK VINA RESULT:      -6.0      1.897      3.297
REMARK  8 active torsions:
REMARK  status: ('A' for Active; 'I' for Inactive)
REMARK    1  A    between atoms: O1_2  and  C2_3 
REMARK    2  A    between atoms: C3_4  and  N1_5 
REMARK    3  A    between atoms: C11_14  and  C12_15 
REMARK    4  A    between atoms: C12_15  and  C13_17 
REMARK    5  A    between atoms: C13_17  and  C14_18 
REMARK    6  A    between atoms: C14_18  and  N3_19 
REMARK    7  A    between atoms: C14_18  and  C15_20 
REMARK    8  A    between atoms: C16_21  and  C17_22 
ROOT
HETATM    1  C2  UNL     1      22.406   1.281  51.684  1.00  0.00     0.082 C 
HETATM    2  C3  UNL     1      21.981   0.354  52.532  1.00  0.00     0.037 C 
HETATM    3  C4  UNL     1      22.788  -0.247  53.624  1.00  0.00     0.035 C 
HETATM    4  C5  UNL     1      24.104  -0.297  53.849  1.00  0.00    -0.026 C 
HETATM    5  C6  UNL     1      25.205  -0.739  54.710  1.00  0.00     0.159 C 
HETATM    6  N2  UNL     1      26.378  -0.889  53.836  1.00  0.00    -0.385 N 
HETATM    7  C7  UNL     1      26.404   0.098  52.761  1.00  0.00     0.040 A 
HETATM    8  C8  UNL     1      26.329   1.023  51.783  1.00  0.00     0.039 A 
HETATM    9  C9  UNL     1      24.898   1.306  51.892  1.00  0.00    -0.025 A 
HETATM   10  C10 UNL     1      24.976   0.394  52.854  1.00  0.00     0.006 A 
HETATM   11  C11 UNL     1      23.689   1.989  51.515  1.00  0.00     0.148 C 
HETATM   12  H9  UNL     1      27.198  -1.551  53.819  1.00  0.00     0.160 HD
ENDROOT
BRANCH  11  13
HETATM   13  C12 UNL     1      23.498   3.291  52.240  1.00  0.00     0.144 C 
HETATM   14  O2  UNL     1      24.414   3.096  53.035  1.00  0.00    -0.297 OA
BRANCH  13  15
HETATM   15  C13 UNL     1      22.641   4.468  52.194  1.00  0.00     0.118 C 
BRANCH  15  16
HETATM   16  C14 UNL     1      23.285   5.696  51.556  1.00  0.00     0.247 C 
BRANCH  16  17
HETATM   17  N3  UNL     1      24.281   6.306  52.371  1.00  0.00     0.086 N 
HETATM   18  H15 UNL     1      24.433   5.833  53.280  1.00  0.00     0.313 HD
HETATM   19  H16 UNL     1      25.195   6.430  51.878  1.00  0.00     0.313 HD
ENDBRANCH  16  17
BRANCH  16  20
HETATM   20  C15 UNL     1      23.923   5.281  50.251  1.00  0.00     0.005 C 
HETATM   21  C16 UNL     1      25.229   5.570  50.189  1.00  0.00    -0.014 C 
BRANCH  21  22
HETATM   22  C17 UNL     1      26.197   5.316  49.069  1.00  0.00     0.141 C 
HETATM   23 CL1  UNL     1      26.901   3.693  49.217  1.00  0.00    -0.126 Cl
ENDBRANCH  21  22
ENDBRANCH  16  20
ENDBRANCH  15  16
ENDBRANCH  13  15
ENDBRANCH  11  13
BRANCH   1  24
HETATM   24  O1  UNL     1      21.372   1.600  50.807  1.00  0.00    -0.357 OA
HETATM   25  C1  UNL     1      21.690   1.649  49.427  1.00  0.00     0.209 C 
ENDBRANCH   1  24
BRANCH   2  26
HETATM   26  N1  UNL     1      20.691  -0.229  52.556  1.00  0.00    -0.301 NA
HETATM   27  H4  UNL     1      20.574  -0.906  51.796  1.00  0.00     0.124 HD
HETATM   28  H5  UNL     1      19.948  -0.865  52.203  1.00  0.00     0.124 HD
ENDBRANCH   2  26
TORSDOF 8
ENDMDL
MODEL 6
REMARK VINA RESULT:      -5.9     10.225     12.361
REMARK  8 active torsions:
REMARK  status: ('A' for Active; 'I' for Inactive)
REMARK    1  A    between atoms: O1_2  and  C2_3 
REMARK    2  A    between atoms: C3_4  and  N1_5 
REMARK    3  A    between atoms: C11_14  and  C12_15 
REMARK    4  A    between atoms: C12_15  and  C13_17 
REMARK    5  A    between atoms: C13_17  and  C14_18 
REMARK    6  A    between atoms: C14_18  and  N3_19 
REMARK    7  A    between atoms: C14_18  and  C15_20 
REMARK    8  A    between atoms: C16_21  and  C17_22 
ROOT
HETATM    1  C2  UNL     1      33.156   6.786  48.355  1.00  0.00     0.082 C 
HETATM    2  C3  UNL     1      32.025   6.587  49.019  1.00  0.00     0.037 C 
HETATM    3  C4  UNL     1      30.802   7.422  48.903  1.00  0.00     0.035 C 
HETATM    4  C5  UNL     1      30.595   8.655  48.433  1.00  0.00    -0.026 C 
HETATM    5  C6  UNL     1      29.650   9.742  48.160  1.00  0.00     0.159 C 
HETATM    6  N2  UNL     1      30.429  10.987  48.203  1.00  0.00    -0.385 N 
HETATM    7  C7  UNL     1      31.787  10.815  47.696  1.00  0.00     0.040 A 
HETATM    8  C8  UNL     1      33.031  10.556  47.245  1.00  0.00     0.039 A 
HETATM    9  C9  UNL     1      33.009   9.106  47.433  1.00  0.00    -0.025 A 
HETATM   10  C10 UNL     1      31.785   9.364  47.878  1.00  0.00     0.006 A 
HETATM   11  C11 UNL     1      33.587   7.789  47.365  1.00  0.00     0.148 C 
HETATM   12  H9  UNL     1      30.219  11.971  48.517  1.00  0.00     0.160 HD
ENDROOT
BRANCH  11  13
HETATM   13  C12 UNL     1      33.376   7.123  46.036  1.00  0.00     0.144 C 
HETATM   14  O2  UNL     1      34.230   7.788  45.455  1.00  0.00    -0.297 OA
BRANCH  13  15
HETATM   15  C13 UNL     1      32.551   6.082  45.439  1.00  0.00     0.118 C 
BRANCH  15  16
HETATM   16  C14 UNL     1      33.253   4.737  45.268  1.00  0.00     0.247 C 
BRANCH  16  17
HETATM   17  N3  UNL     1      34.617   4.749  45.678  1.00  0.00     0.086 N 
HETATM   18  H15 UNL     1      34.798   4.242  46.563  1.00  0.00     0.313 HD
HETATM   19  H16 UNL     1      35.271   4.414  44.935  1.00  0.00     0.313 HD
ENDBRANCH  16  17
BRANCH  16  20
HETATM   20  C15 UNL     1      32.517   3.703  46.087  1.00  0.00     0.005 C 
HETATM   21  C16 UNL     1      33.336   2.897  46.775  1.00  0.00    -0.014 C 
BRANCH  21  22
HETATM   22  C17 UNL     1      32.986   1.760  47.692  1.00  0.00     0.141 C 
HETATM   23 CL1  UNL     1      32.124   0.491  46.800  1.00  0.00    -0.126 Cl
ENDBRANCH  21  22
ENDBRANCH  16  20
ENDBRANCH  15  16
ENDBRANCH  13  15
ENDBRANCH  11  13
BRANCH   1  24
HETATM   24  O1  UNL     1      34.073   5.803  48.719  1.00  0.00    -0.357 OA
HETATM   25  C1  UNL     1      35.419   6.210  48.890  1.00  0.00     0.209 C 
ENDBRANCH   1  24
BRANCH   2  26
HETATM   26  N1  UNL     1      31.773   5.551  49.951  1.00  0.00    -0.301 NA
HETATM   27  H4  UNL     1      32.626   5.290  50.456  1.00  0.00     0.124 HD
HETATM   28  H5  UNL     1      32.050   4.874  50.690  1.00  0.00     0.124 HD
ENDBRANCH   2  26
TORSDOF 8
ENDMDL
MODEL 7
REMARK VINA RESULT:      -5.7      8.888     11.771
REMARK  8 active torsions:
REMARK  status: ('A' for Active; 'I' for Inactive)
REMARK    1  A    between atoms: O1_2  and  C2_3 
REMARK    2  A    between atoms: C3_4  and  N1_5 
REMARK    3  A    between atoms: C11_14  and  C12_15 
REMARK    4  A    between atoms: C12_15  and  C13_17 
REMARK    5  A    between atoms: C13_17  and  C14_18 
REMARK    6  A    between atoms: C14_18  and  N3_19 
REMARK    7  A    between atoms: C14_18  and  C15_20 
REMARK    8  A    between atoms: C16_21  and  C17_22 
ROOT
HETATM    1  C2  UNL     1      33.152   6.461  45.083  1.00  0.00     0.082 C 
HETATM    2  C3  UNL     1      33.084   5.193  44.700  1.00  0.00     0.037 C 
HETATM    3  C4  UNL     1      33.183   4.017  45.602  1.00  0.00     0.035 C 
HETATM    4  C5  UNL     1      33.651   3.871  46.845  1.00  0.00    -0.026 C 
HETATM    5  C6  UNL     1      33.909   2.985  47.983  1.00  0.00     0.159 C 
HETATM    6  N2  UNL     1      35.040   3.571  48.715  1.00  0.00    -0.385 N 
HETATM    7  C7  UNL     1      35.031   5.030  48.684  1.00  0.00     0.040 A 
HETATM    8  C8  UNL     1      34.961   6.372  48.573  1.00  0.00     0.039 A 
HETATM    9  C9  UNL     1      34.087   6.426  47.402  1.00  0.00    -0.025 A 
HETATM   10  C10 UNL     1      34.158   5.105  47.513  1.00  0.00     0.006 A 
HETATM   11  C11 UNL     1      33.330   7.117  46.391  1.00  0.00     0.148 C 
HETATM   12  H9  UNL     1      35.851   3.167  49.255  1.00  0.00     0.160 HD
ENDROOT
BRANCH  11  13
HETATM   13  C12 UNL     1      31.936   7.461  46.832  1.00  0.00     0.144 C 
HETATM   14  O2  UNL     1      32.213   8.617  47.142  1.00  0.00    -0.297 OA
BRANCH  13  15
HETATM   15  C13 UNL     1      30.624   6.838  46.939  1.00  0.00     0.118 C 
BRANCH  15  16
HETATM   16  C14 UNL     1      30.496   5.819  48.069  1.00  0.00     0.247 C 
BRANCH  16  17
HETATM   17  N3  UNL     1      31.073   6.254  49.297  1.00  0.00     0.086 N 
HETATM   18  H15 UNL     1      31.832   6.950  49.186  1.00  0.00     0.313 HD
HETATM   19  H16 UNL     1      30.364   6.605  49.980  1.00  0.00     0.313 HD
ENDBRANCH  16  17
BRANCH  16  20
HETATM   20  C15 UNL     1      29.030   5.540  48.301  1.00  0.00     0.005 C 
HETATM   21  C16 UNL     1      28.255   6.617  48.123  1.00  0.00    -0.014 C 
BRANCH  21  22
HETATM   22  C17 UNL     1      26.764   6.736  48.260  1.00  0.00     0.141 C 
HETATM   23 CL1  UNL     1      26.088   5.254  48.964  1.00  0.00    -0.126 Cl
ENDBRANCH  21  22
ENDBRANCH  16  20
ENDBRANCH  15  16
ENDBRANCH  13  15
ENDBRANCH  11  13
BRANCH   1  24
HETATM   24  O1  UNL     1      33.015   7.278  43.964  1.00  0.00    -0.357 OA
HETATM   25  C1  UNL     1      34.078   8.173  43.687  1.00  0.00     0.209 C 
ENDBRANCH   1  24
BRANCH   2  26
HETATM   26  N1  UNL     1      32.905   4.727  43.375  1.00  0.00    -0.301 NA
HETATM   27  H4  UNL     1      32.946   3.703  43.332  1.00  0.00     0.124 HD
HETATM   28  H5  UNL     1      32.829   3.986  42.649  1.00  0.00     0.124 HD
ENDBRANCH   2  26
TORSDOF 8
ENDMDL
MODEL 8
REMARK VINA RESULT:      -5.5      2.889      4.585
REMARK  8 active torsions:
REMARK  status: ('A' for Active; 'I' for Inactive)
REMARK    1  A    between atoms: O1_2  and  C2_3 
REMARK    2  A    between atoms: C3_4  and  N1_5 
REMARK    3  A    between atoms: C11_14  and  C12_15 
REMARK    4  A    between atoms: C12_15  and  C13_17 
REMARK    5  A    between atoms: C13_17  and  C14_18 
REMARK    6  A    between atoms: C14_18  and  N3_19 
REMARK    7  A    between atoms: C14_18  and  C15_20 
REMARK    8  A    between atoms: C16_21  and  C17_22 
ROOT
HETATM    1  C2  UNL     1      26.184   1.674  53.783  1.00  0.00     0.082 C 
HETATM    2  C3  UNL     1      26.148   0.447  54.282  1.00  0.00     0.037 C 
HETATM    3  C4  UNL     1      25.110  -0.573  53.983  1.00  0.00     0.035 C 
HETATM    4  C5  UNL     1      23.880  -0.482  53.471  1.00  0.00    -0.026 C 
HETATM    5  C6  UNL     1      22.651  -1.163  53.051  1.00  0.00     0.159 C 
HETATM    6  N2  UNL     1      21.567  -0.179  53.187  1.00  0.00    -0.385 N 
HETATM    7  C7  UNL     1      22.003   1.179  52.881  1.00  0.00     0.040 A 
HETATM    8  C8  UNL     1      22.501   2.403  52.614  1.00  0.00     0.039 A 
HETATM    9  C9  UNL     1      23.914   2.088  52.818  1.00  0.00    -0.025 A 
HETATM   10  C10 UNL     1      23.421   0.884  53.081  1.00  0.00     0.006 A 
HETATM   11  C11 UNL     1      25.316   2.416  52.850  1.00  0.00     0.148 C 
HETATM   12  H9  UNL     1      20.550  -0.245  53.456  1.00  0.00     0.160 HD
ENDROOT
BRANCH  11  13
HETATM   13  C12 UNL     1      25.985   2.269  51.514  1.00  0.00     0.144 C 
HETATM   14  O2  UNL     1      26.049   1.043  51.570  1.00  0.00    -0.297 OA
BRANCH  13  15
HETATM   15  C13 UNL     1      26.461   3.100  50.417  1.00  0.00     0.118 C 
BRANCH  15  16
HETATM   16  C14 UNL     1      25.654   4.377  50.193  1.00  0.00     0.247 C 
BRANCH  16  17
HETATM   17  N3  UNL     1      26.459   5.526  49.950  1.00  0.00     0.086 N 
HETATM   18  H15 UNL     1      27.465   5.317  49.812  1.00  0.00     0.313 HD
HETATM   19  H16 UNL     1      26.106   6.114  49.161  1.00  0.00     0.313 HD
ENDBRANCH  16  17
BRANCH  16  20
HETATM   20  C15 UNL     1      24.746   4.168  49.003  1.00  0.00     0.005 C 
HETATM   21  C16 UNL     1      23.541   3.689  49.339  1.00  0.00    -0.014 C 
BRANCH  21  22
HETATM   22  C17 UNL     1      22.380   3.355  48.447  1.00  0.00     0.141 C 
HETATM   23 CL1  UNL     1      22.043   1.614  48.497  1.00  0.00    -0.126 Cl
ENDBRANCH  21  22
ENDBRANCH  16  20
ENDBRANCH  15  16
ENDBRANCH  13  15
ENDBRANCH  11  13
BRANCH   1  24
HETATM   24  O1  UNL     1      27.302   2.335  54.287  1.00  0.00    -0.357 OA
HETATM   25  C1  UNL     1      28.482   2.293  53.503  1.00  0.00     0.209 C 
ENDBRANCH   1  24
BRANCH   2  26
HETATM   26  N1  UNL     1      27.083  -0.118  55.183  1.00  0.00    -0.301 NA
HETATM   27  H4  UNL     1      27.118  -1.139  55.092  1.00  0.00     0.124 HD
HETATM   28  H5  UNL     1      27.597  -0.910  55.619  1.00  0.00     0.124 HD
ENDBRANCH   2  26
TORSDOF 8
ENDMDL
MODEL 9
REMARK VINA RESULT:      -5.4      9.306     12.132
REMARK  8 active torsions:
REMARK  status: ('A' for Active; 'I' for Inactive)
REMARK    1  A    between atoms: O1_2  and  C2_3 
REMARK    2  A    between atoms: C3_4  and  N1_5 
REMARK    3  A    between atoms: C11_14  and  C12_15 
REMARK    4  A    between atoms: C12_15  and  C13_17 
REMARK    5  A    between atoms: C13_17  and  C14_18 
REMARK    6  A    between atoms: C14_18  and  N3_19 
REMARK    7  A    between atoms: C14_18  and  C15_20 
REMARK    8  A    between atoms: C16_21  and  C17_22 
ROOT
HETATM    1  C2  UNL     1      33.353   5.747  47.942  1.00  0.00     0.082 C 
HETATM    2  C3  UNL     1      32.452   4.779  48.027  1.00  0.00     0.037 C 
HETATM    3  C4  UNL     1      30.981   4.962  47.926  1.00  0.00     0.035 C 
HETATM    4  C5  UNL     1      30.197   6.036  48.049  1.00  0.00    -0.026 C 
HETATM    5  C6  UNL     1      28.844   6.600  48.026  1.00  0.00     0.159 C 
HETATM    6  N2  UNL     1      28.875   7.783  48.898  1.00  0.00    -0.385 N 
HETATM    7  C7  UNL     1      30.153   8.485  48.842  1.00  0.00     0.040 A 
HETATM    8  C8  UNL     1      31.375   9.048  48.754  1.00  0.00     0.039 A 
HETATM    9  C9  UNL     1      32.088   7.886  48.223  1.00  0.00    -0.025 A 
HETATM   10  C10 UNL     1      30.883   7.335  48.312  1.00  0.00     0.006 A 
HETATM   11  C11 UNL     1      33.260   7.205  47.739  1.00  0.00     0.148 C 
HETATM   12  H9  UNL     1      28.177   8.231  49.549  1.00  0.00     0.160 HD
ENDROOT
BRANCH  11  13
HETATM   13  C12 UNL     1      33.483   7.395  46.266  1.00  0.00     0.144 C 
HETATM   14  O2  UNL     1      34.396   8.204  46.408  1.00  0.00    -0.297 OA
BRANCH  13  15
HETATM   15  C13 UNL     1      32.954   6.917  44.995  1.00  0.00     0.118 C 
BRANCH  15  16
HETATM   16  C14 UNL     1      33.953   6.134  44.147  1.00  0.00     0.247 C 
BRANCH  16  17
HETATM   17  N3  UNL     1      34.865   5.355  44.914  1.00  0.00     0.086 N 
HETATM   18  H15 UNL     1      35.593   4.878  44.352  1.00  0.00     0.313 HD
HETATM   19  H16 UNL     1      35.313   5.895  45.690  1.00  0.00     0.313 HD
ENDBRANCH  16  17
BRANCH  16  20
HETATM   20  C15 UNL     1      33.186   5.209  43.232  1.00  0.00     0.005 C 
HETATM   21  C16 UNL     1      33.068   5.683  41.985  1.00  0.00    -0.014 C 
BRANCH  21  22
HETATM   22  C17 UNL     1      32.382   5.059  40.803  1.00  0.00     0.141 C 
HETATM   23 CL1  UNL     1      32.720   3.318  40.741  1.00  0.00    -0.126 Cl
ENDBRANCH  21  22
ENDBRANCH  16  20
ENDBRANCH  15  16
ENDBRANCH  13  15
ENDBRANCH  11  13
BRANCH   1  24
HETATM   24  O1  UNL     1      34.624   5.195  48.079  1.00  0.00    -0.357 OA
HETATM   25  C1  UNL     1      35.486   5.793  49.032  1.00  0.00     0.209 C 
ENDBRANCH   1  24
BRANCH   2  26
HETATM   26  N1  UNL     1      32.718   3.402  48.227  1.00  0.00    -0.301 NA
HETATM   27  H4  UNL     1      33.283   3.251  49.069  1.00  0.00     0.124 HD
HETATM   28  H5  UNL     1      33.132   2.597  48.738  1.00  0.00     0.124 HD
ENDBRANCH   2  26
TORSDOF 8
ENDMDL
