MODEL 1
REMARK VINA RESULT:      -7.8      0.000      0.000
REMARK  3 active torsions:
REMARK  status: ('A' for Active; 'I' for Inactive)
REMARK       I    between atoms: C1_2  and  N1_3 
REMARK    1  A    between atoms: C1_2  and  C8_14 
REMARK    2  A    between atoms: N1_3  and  S1_4 
REMARK    3  A    between atoms: S1_4  and  C2_7 
ROOT
HETATM    1  O1  UNL     1      26.272   2.628  49.688  1.00  0.00    -0.267 OA
HETATM    2  C1  UNL     1      26.086   3.827  50.022  1.00  0.00     0.266 C 
HETATM    3  N1  UNL     1      25.397   4.018  51.247  1.00  0.00    -0.246 N 
HETATM    4  H1  UNL     1      25.227   4.998  51.551  1.00  0.00     0.182 HD
ENDROOT
BRANCH   3   5
HETATM    5  S1  UNL     1      24.942   2.543  52.052  1.00  0.00     0.265 S 
HETATM    6  O2  UNL     1      24.080   1.726  51.110  1.00  0.00    -0.200 OA
HETATM    7  O3  UNL     1      24.150   2.883  53.282  1.00  0.00    -0.200 OA
BRANCH   5   8
HETATM    8  C2  UNL     1      26.372   1.676  52.530  1.00  0.00     0.080 A 
HETATM    9  C3  UNL     1      27.477   2.309  53.039  1.00  0.00     0.027 A 
HETATM   10  C4  UNL     1      28.581   1.547  53.398  1.00  0.00     0.025 A 
HETATM   11  C5  UNL     1      28.523   0.171  53.226  1.00  0.00     0.034 A 
HETATM   12 CL1  UNL     1      29.925  -0.787  53.682  1.00  0.00    -0.084 Cl
HETATM   13  C6  UNL     1      27.404  -0.472  52.710  1.00  0.00     0.025 A 
HETATM   14  C7  UNL     1      26.307   0.311  52.356  1.00  0.00     0.027 A 
ENDBRANCH   5   8
ENDBRANCH   3   5
BRANCH   2  15
HETATM   15  C8  UNL     1      26.583   4.880  49.143  1.00  0.00     0.051 C 
HETATM   16  C9  UNL     1      25.687   5.850  48.971  1.00  0.00     0.133 C 
HETATM   17  N2  UNL     1      25.832   7.043  48.172  1.00  0.00    -0.272 NA
HETATM   18  C10 UNL     1      26.961   7.494  47.719  1.00  0.00     0.117 C 
HETATM   19  C11 UNL     1      28.297   6.903  47.917  1.00  0.00     0.031 C 
HETATM   20  C12 UNL     1      28.681   5.730  48.274  1.00  0.00    -0.024 C 
HETATM   21  C13 UNL     1      27.917   4.751  48.592  1.00  0.00     0.030 C 
ENDBRANCH   2  15
TORSDOF 3
ENDMDL
MODEL 2
REMARK VINA RESULT:      -7.8      5.377      7.310
REMARK  3 active torsions:
REMARK  status: ('A' for Active; 'I' for Inactive)
REMARK       I    between atoms: C1_2  and  N1_3 
REMARK    1  A    between atoms: C1_2  and  C8_14 
REMARK    2  A    between atoms: N1_3  and  S1_4 
REMARK    3  A    between atoms: S1_4  and  C2_7 
ROOT
HETATM    1  O1  UNL     1      26.132   1.786  52.292  1.00  0.00    -0.267 OA
HETATM    2  C1  UNL     1      25.976   0.619  52.736  1.00  0.00     0.266 C 
HETATM    3  N1  UNL     1      24.632   0.173  52.819  1.00  0.00    -0.246 N 
HETATM    4  H1  UNL     1      24.470  -0.788  53.182  1.00  0.00     0.182 HD
ENDROOT
BRANCH   3   5
HETATM    5  S1  UNL     1      23.455   1.339  52.284  1.00  0.00     0.265 S 
HETATM    6  O2  UNL     1      23.745   1.687  50.838  1.00  0.00    -0.200 OA
HETATM    7  O3  UNL     1      23.576   2.575  53.128  1.00  0.00    -0.200 OA
BRANCH   5   8
HETATM    8  C2  UNL     1      21.856   0.682  52.479  1.00  0.00     0.080 A 
HETATM    9  C3  UNL     1      20.896   0.790  51.504  1.00  0.00     0.027 A 
HETATM   10  C4  UNL     1      19.642   0.240  51.734  1.00  0.00     0.025 A 
HETATM   11  C5  UNL     1      19.408  -0.400  52.943  1.00  0.00     0.034 A 
HETATM   12 CL1  UNL     1      17.818  -1.094  53.226  1.00  0.00    -0.084 Cl
HETATM   13  C6  UNL     1      20.380  -0.510  53.932  1.00  0.00     0.025 A 
HETATM   14  C7  UNL     1      21.631   0.049  53.681  1.00  0.00     0.027 A 
ENDBRANCH   5   8
ENDBRANCH   3   5
BRANCH   2  15
HETATM   15  C8  UNL     1      27.160  -0.146  53.114  1.00  0.00     0.051 C 
HETATM   16  C9  UNL     1      27.034  -1.439  52.818  1.00  0.00     0.133 C 
HETATM   17  N2  UNL     1      28.000  -2.487  53.047  1.00  0.00    -0.272 NA
HETATM   18  C10 UNL     1      29.251  -2.288  53.323  1.00  0.00     0.117 C 
HETATM   19  C11 UNL     1      29.936  -0.989  53.458  1.00  0.00     0.031 C 
HETATM   20  C12 UNL     1      29.500   0.205  53.645  1.00  0.00    -0.024 C 
HETATM   21  C13 UNL     1      28.268   0.552  53.732  1.00  0.00     0.030 C 
ENDBRANCH   2  15
TORSDOF 3
ENDMDL
MODEL 3
REMARK VINA RESULT:      -7.8      3.085      6.655
REMARK  3 active torsions:
REMARK  status: ('A' for Active; 'I' for Inactive)
REMARK       I    between atoms: C1_2  and  N1_3 
REMARK    1  A    between atoms: C1_2  and  C8_14 
REMARK    2  A    between atoms: N1_3  and  S1_4 
REMARK    3  A    between atoms: S1_4  and  C2_7 
ROOT
HETATM    1  O1  UNL     1      26.534   2.266  53.228  1.00  0.00    -0.267 OA
HETATM    2  C1  UNL     1      26.457   1.146  52.661  1.00  0.00     0.266 C 
HETATM    3  N1  UNL     1      25.430   1.024  51.690  1.00  0.00    -0.246 N 
HETATM    4  H1  UNL     1      25.340   0.109  51.203  1.00  0.00     0.182 HD
ENDROOT
BRANCH   3   5
HETATM    5  S1  UNL     1      24.473   2.462  51.474  1.00  0.00     0.265 S 
HETATM    6  O2  UNL     1      24.153   3.038  52.839  1.00  0.00    -0.200 OA
HETATM    7  O3  UNL     1      23.194   2.096  50.777  1.00  0.00    -0.200 OA
BRANCH   5   8
HETATM    8  C2  UNL     1      25.344   3.597  50.485  1.00  0.00     0.080 A 
HETATM    9  C3  UNL     1      26.484   3.253  49.805  1.00  0.00     0.027 A 
HETATM   10  C4  UNL     1      27.124   4.216  49.036  1.00  0.00     0.025 A 
HETATM   11  C5  UNL     1      26.583   5.493  48.986  1.00  0.00     0.034 A 
HETATM   12 CL1  UNL     1      27.398   6.707  48.011  1.00  0.00    -0.084 Cl
HETATM   13  C6  UNL     1      25.427   5.844  49.675  1.00  0.00     0.025 A 
HETATM   14  C7  UNL     1      24.801   4.863  50.440  1.00  0.00     0.027 A 
ENDBRANCH   5   8
ENDBRANCH   3   5
BRANCH   2  15
HETATM   15  C8  UNL     1      27.404   0.104  53.044  1.00  0.00     0.051 C 
HETATM   16  C9  UNL     1      26.959  -1.113  52.738  1.00  0.00     0.133 C 
HETATM   17  N2  UNL     1      27.625  -2.372  52.969  1.00  0.00    -0.272 NA
HETATM   18  C10 UNL     1      28.884  -2.498  53.257  1.00  0.00     0.117 C 
HETATM   19  C11 UNL     1      29.873  -1.416  53.405  1.00  0.00     0.031 C 
HETATM   20  C12 UNL     1      29.752  -0.150  53.597  1.00  0.00    -0.024 C 
HETATM   21  C13 UNL     1      28.648   0.497  53.676  1.00  0.00     0.030 C 
ENDBRANCH   2  15
TORSDOF 3
ENDMDL
MODEL 4
REMARK VINA RESULT:      -7.6      6.655      8.126
REMARK  3 active torsions:
REMARK  status: ('A' for Active; 'I' for Inactive)
REMARK       I    between atoms: C1_2  and  N1_3 
REMARK    1  A    between atoms: C1_2  and  C8_14 
REMARK    2  A    between atoms: N1_3  and  S1_4 
REMARK    3  A    between atoms: S1_4  and  C2_7 
ROOT
HETATM    1  O1  UNL     1      24.066  -1.251  55.353  1.00  0.00    -0.267 OA
HETATM    2  C1  UNL     1      24.408  -0.720  54.265  1.00  0.00     0.266 C 
HETATM    3  N1  UNL     1      23.340  -0.368  53.398  1.00  0.00    -0.246 N 
HETATM    4  H1  UNL     1      23.590   0.073  52.489  1.00  0.00     0.182 HD
ENDROOT
BRANCH   3   5
HETATM    5  S1  UNL     1      21.758  -0.743  54.019  1.00  0.00     0.265 S 
HETATM    6  O2  UNL     1      21.569  -0.008  55.331  1.00  0.00    -0.200 OA
HETATM    7  O3  UNL     1      21.668  -2.222  54.260  1.00  0.00    -0.200 OA
BRANCH   5   8
HETATM    8  C2  UNL     1      20.552  -0.291  52.850  1.00  0.00     0.080 A 
HETATM    9  C3  UNL     1      19.216  -0.534  53.045  1.00  0.00     0.027 A 
HETATM   10  C4  UNL     1      18.313  -0.143  52.064  1.00  0.00     0.025 A 
HETATM   11  C5  UNL     1      18.800   0.479  50.923  1.00  0.00     0.034 A 
HETATM   12 CL1  UNL     1      17.651   0.971  49.687  1.00  0.00    -0.084 Cl
HETATM   13  C6  UNL     1      20.154   0.726  50.725  1.00  0.00     0.025 A 
HETATM   14  C7  UNL     1      21.042   0.326  51.720  1.00  0.00     0.027 A 
ENDBRANCH   5   8
ENDBRANCH   3   5
BRANCH   2  15
HETATM   15  C8  UNL     1      25.829  -0.521  54.001  1.00  0.00     0.051 C 
HETATM   16  C9  UNL     1      26.404   0.249  54.923  1.00  0.00     0.133 C 
HETATM   17  N2  UNL     1      27.788   0.655  54.983  1.00  0.00    -0.272 NA
HETATM   18  C10 UNL     1      28.747   0.106  54.305  1.00  0.00     0.117 C 
HETATM   19  C11 UNL     1      28.635  -1.016  53.356  1.00  0.00     0.031 C 
HETATM   20  C12 UNL     1      27.634  -1.525  52.731  1.00  0.00    -0.024 C 
HETATM   21  C13 UNL     1      26.412  -1.151  52.834  1.00  0.00     0.030 C 
ENDBRANCH   2  15
TORSDOF 3
ENDMDL
MODEL 5
REMARK VINA RESULT:      -7.4      4.422      7.247
REMARK  3 active torsions:
REMARK  status: ('A' for Active; 'I' for Inactive)
REMARK       I    between atoms: C1_2  and  N1_3 
REMARK    1  A    between atoms: C1_2  and  C8_14 
REMARK    2  A    between atoms: N1_3  and  S1_4 
REMARK    3  A    between atoms: S1_4  and  C2_7 
ROOT
HETATM    1  O1  UNL     1      24.645  -0.030  53.994  1.00  0.00    -0.267 OA
HETATM    2  C1  UNL     1      25.545   0.092  53.123  1.00  0.00     0.266 C 
HETATM    3  N1  UNL     1      25.181   0.840  51.973  1.00  0.00    -0.246 N 
HETATM    4  H1  UNL     1      25.903   0.959  51.234  1.00  0.00     0.182 HD
ENDROOT
BRANCH   3   5
HETATM    5  S1  UNL     1      23.550   1.447  51.998  1.00  0.00     0.265 S 
HETATM    6  O2  UNL     1      23.455   2.530  53.056  1.00  0.00    -0.200 OA
HETATM    7  O3  UNL     1      22.618   0.325  52.350  1.00  0.00    -0.200 OA
BRANCH   5   8
HETATM    8  C2  UNL     1      23.130   2.051  50.422  1.00  0.00     0.080 A 
HETATM    9  C3  UNL     1      23.757   3.135  49.861  1.00  0.00     0.027 A 
HETATM   10  C4  UNL     1      23.365   3.557  48.598  1.00  0.00     0.025 A 
HETATM   11  C5  UNL     1      22.352   2.865  47.950  1.00  0.00     0.034 A 
HETATM   12 CL1  UNL     1      21.861   3.406  46.351  1.00  0.00    -0.084 Cl
HETATM   13  C6  UNL     1      21.715   1.766  48.518  1.00  0.00     0.025 A 
HETATM   14  C7  UNL     1      22.123   1.359  49.785  1.00  0.00     0.027 A 
ENDBRANCH   5   8
ENDBRANCH   3   5
BRANCH   2  15
HETATM   15  C8  UNL     1      26.841  -0.531  53.367  1.00  0.00     0.051 C 
HETATM   16  C9  UNL     1      26.906  -1.763  52.864  1.00  0.00     0.133 C 
HETATM   17  N2  UNL     1      28.027  -2.671  52.917  1.00  0.00    -0.272 NA
HETATM   18  C10 UNL     1      29.240  -2.327  53.218  1.00  0.00     0.117 C 
HETATM   19  C11 UNL     1      29.722  -0.977  53.560  1.00  0.00     0.031 C 
HETATM   20  C12 UNL     1      29.114   0.089  53.942  1.00  0.00    -0.024 C 
HETATM   21  C13 UNL     1      27.847   0.222  54.088  1.00  0.00     0.030 C 
ENDBRANCH   2  15
TORSDOF 3
ENDMDL
MODEL 6
REMARK VINA RESULT:      -7.4      4.985      6.955
REMARK  3 active torsions:
REMARK  status: ('A' for Active; 'I' for Inactive)
REMARK       I    between atoms: C1_2  and  N1_3 
REMARK    1  A    between atoms: C1_2  and  C8_14 
REMARK    2  A    between atoms: N1_3  and  S1_4 
REMARK    3  A    between atoms: S1_4  and  C2_7 
ROOT
HETATM    1  O1  UNL     1      25.117   2.614  51.594  1.00  0.00    -0.267 OA
HETATM    2  C1  UNL     1      25.219   1.531  52.227  1.00  0.00     0.266 C 
HETATM    3  N1  UNL     1      24.010   0.808  52.395  1.00  0.00    -0.246 N 
HETATM    4  H1  UNL     1      24.061  -0.092  52.915  1.00  0.00     0.182 HD
ENDROOT
BRANCH   3   5
HETATM    5  S1  UNL     1      22.614   1.568  51.685  1.00  0.00     0.265 S 
HETATM    6  O2  UNL     1      22.798   1.605  50.181  1.00  0.00    -0.200 OA
HETATM    7  O3  UNL     1      22.505   2.971  52.207  1.00  0.00    -0.200 OA
BRANCH   5   8
HETATM    8  C2  UNL     1      21.181   0.690  52.135  1.00  0.00     0.080 A 
HETATM    9  C3  UNL     1      20.034   0.727  51.385  1.00  0.00     0.027 A 
HETATM   10  C4  UNL     1      18.930  -0.001  51.810  1.00  0.00     0.025 A 
HETATM   11  C5  UNL     1      19.032  -0.740  52.980  1.00  0.00     0.034 A 
HETATM   12 CL1  UNL     1      17.632  -1.659  53.513  1.00  0.00    -0.084 Cl
HETATM   13  C6  UNL     1      20.196  -0.778  53.742  1.00  0.00     0.025 A 
HETATM   14  C7  UNL     1      21.290  -0.040  53.298  1.00  0.00     0.027 A 
ENDBRANCH   5   8
ENDBRANCH   3   5
BRANCH   2  15
HETATM   15  C8  UNL     1      26.534   1.132  52.716  1.00  0.00     0.051 C 
HETATM   16  C9  UNL     1      27.112   2.092  53.435  1.00  0.00     0.133 C 
HETATM   17  N2  UNL     1      28.407   2.048  54.072  1.00  0.00    -0.272 NA
HETATM   18  C10 UNL     1      29.091   0.966  54.278  1.00  0.00     0.117 C 
HETATM   19  C11 UNL     1      28.705  -0.410  53.917  1.00  0.00     0.031 C 
HETATM   20  C12 UNL     1      27.834  -0.880  53.097  1.00  0.00    -0.024 C 
HETATM   21  C13 UNL     1      27.026  -0.189  52.380  1.00  0.00     0.030 C 
ENDBRANCH   2  15
TORSDOF 3
ENDMDL
MODEL 7
REMARK VINA RESULT:      -7.3      3.409      4.033
REMARK  3 active torsions:
REMARK  status: ('A' for Active; 'I' for Inactive)
REMARK       I    between atoms: C1_2  and  N1_3 
REMARK    1  A    between atoms: C1_2  and  C8_14 
REMARK    2  A    between atoms: N1_3  and  S1_4 
REMARK    3  A    between atoms: S1_4  and  C2_7 
ROOT
HETATM    1  O1  UNL     1      27.168   2.531  51.130  1.00  0.00    -0.267 OA
HETATM    2  C1  UNL     1      26.070   3.057  50.812  1.00  0.00     0.266 C 
HETATM    3  N1  UNL     1      24.926   2.512  51.451  1.00  0.00    -0.246 N 
HETATM    4  H1  UNL     1      24.003   2.925  51.209  1.00  0.00     0.182 HD
ENDROOT
BRANCH   3   5
HETATM    5  S1  UNL     1      25.273   1.215  52.559  1.00  0.00     0.265 S 
HETATM    6  O2  UNL     1      25.969   1.793  53.775  1.00  0.00    -0.200 OA
HETATM    7  O3  UNL     1      26.185   0.231  51.885  1.00  0.00    -0.200 OA
BRANCH   5   8
HETATM    8  C2  UNL     1      23.795   0.405  52.988  1.00  0.00     0.080 A 
HETATM    9  C3  UNL     1      23.715  -0.461  54.048  1.00  0.00     0.027 A 
HETATM   10  C4  UNL     1      22.498  -1.069  54.328  1.00  0.00     0.025 A 
HETATM   11  C5  UNL     1      21.408  -0.775  53.522  1.00  0.00     0.034 A 
HETATM   12 CL1  UNL     1      19.871  -1.549  53.882  1.00  0.00    -0.084 Cl
HETATM   13  C6  UNL     1      21.487   0.104  52.447  1.00  0.00     0.025 A 
HETATM   14  C7  UNL     1      22.717   0.702  52.184  1.00  0.00     0.027 A 
ENDBRANCH   5   8
ENDBRANCH   3   5
BRANCH   2  15
HETATM   15  C8  UNL     1      26.074   4.147  49.842  1.00  0.00     0.051 C 
HETATM   16  C9  UNL     1      24.924   4.818  49.841  1.00  0.00     0.133 C 
HETATM   17  N2  UNL     1      24.572   5.950  49.017  1.00  0.00    -0.272 NA
HETATM   18  C10 UNL     1      25.421   6.665  48.346  1.00  0.00     0.117 C 
HETATM   19  C11 UNL     1      26.882   6.482  48.284  1.00  0.00     0.031 C 
HETATM   20  C12 UNL     1      27.645   5.487  48.570  1.00  0.00    -0.024 C 
HETATM   21  C13 UNL     1      27.263   4.358  49.041  1.00  0.00     0.030 C 
ENDBRANCH   2  15
TORSDOF 3
ENDMDL
MODEL 8
REMARK VINA RESULT:      -7.3      3.220      6.902
REMARK  3 active torsions:
REMARK  status: ('A' for Active; 'I' for Inactive)
REMARK       I    between atoms: C1_2  and  N1_3 
REMARK    1  A    between atoms: C1_2  and  C8_14 
REMARK    2  A    between atoms: N1_3  and  S1_4 
REMARK    3  A    between atoms: S1_4  and  C2_7 
ROOT
HETATM    1  O1  UNL     1      25.026   2.263  51.554  1.00  0.00    -0.267 OA
HETATM    2  C1  UNL     1      26.268   2.452  51.614  1.00  0.00     0.266 C 
HETATM    3  N1  UNL     1      26.758   3.532  50.834  1.00  0.00    -0.246 N 
HETATM    4  H1  UNL     1      27.782   3.714  50.862  1.00  0.00     0.182 HD
ENDROOT
BRANCH   3   5
HETATM    5  S1  UNL     1      25.532   4.387  49.943  1.00  0.00     0.265 S 
HETATM    6  O2  UNL     1      24.548   4.985  50.930  1.00  0.00    -0.200 OA
HETATM    7  O3  UNL     1      24.814   3.418  49.049  1.00  0.00    -0.200 OA
BRANCH   5   8
HETATM    8  C2  UNL     1      26.277   5.612  48.957  1.00  0.00     0.080 A 
HETATM    9  C3  UNL     1      25.576   6.684  48.467  1.00  0.00     0.027 A 
HETATM   10  C4  UNL     1      26.241   7.621  47.687  1.00  0.00     0.025 A 
HETATM   11  C5  UNL     1      27.593   7.435  47.433  1.00  0.00     0.034 A 
HETATM   12 CL1  UNL     1      28.428   8.624  46.445  1.00  0.00    -0.084 Cl
HETATM   13  C6  UNL     1      28.305   6.348  47.930  1.00  0.00     0.025 A 
HETATM   14  C7  UNL     1      27.618   5.420  48.710  1.00  0.00     0.027 A 
ENDBRANCH   5   8
ENDBRANCH   3   5
BRANCH   2  15
HETATM   15  C8  UNL     1      27.068   1.569  52.456  1.00  0.00     0.051 C 
HETATM   16  C9  UNL     1      26.875   0.285  52.158  1.00  0.00     0.133 C 
HETATM   17  N2  UNL     1      27.494  -0.861  52.780  1.00  0.00    -0.272 NA
HETATM   18  C10 UNL     1      28.545  -0.809  53.539  1.00  0.00     0.117 C 
HETATM   19  C11 UNL     1      29.309   0.393  53.916  1.00  0.00     0.031 C 
HETATM   20  C12 UNL     1      29.023   1.646  53.888  1.00  0.00    -0.024 C 
HETATM   21  C13 UNL     1      27.930   2.160  53.459  1.00  0.00     0.030 C 
ENDBRANCH   2  15
TORSDOF 3
ENDMDL
MODEL 9
REMARK VINA RESULT:      -7.1      4.513      6.570
REMARK  3 active torsions:
REMARK  status: ('A' for Active; 'I' for Inactive)
REMARK       I    between atoms: C1_2  and  N1_3 
REMARK    1  A    between atoms: C1_2  and  C8_14 
REMARK    2  A    between atoms: N1_3  and  S1_4 
REMARK    3  A    between atoms: S1_4  and  C2_7 
ROOT
HETATM    1  O1  UNL     1      24.713   2.226  53.415  1.00  0.00    -0.267 OA
HETATM    2  C1  UNL     1      25.535   2.120  52.469  1.00  0.00     0.266 C 
HETATM    3  N1  UNL     1      25.186   2.810  51.278  1.00  0.00    -0.246 N 
HETATM    4  H1  UNL     1      25.845   2.741  50.477  1.00  0.00     0.182 HD
ENDROOT
BRANCH   3   5
HETATM    5  S1  UNL     1      23.676   3.673  51.365  1.00  0.00     0.265 S 
HETATM    6  O2  UNL     1      23.569   4.578  50.154  1.00  0.00    -0.200 OA
HETATM    7  O3  UNL     1      23.664   4.507  52.613  1.00  0.00    -0.200 OA
BRANCH   5   8
HETATM    8  C2  UNL     1      22.360   2.537  51.437  1.00  0.00     0.080 A 
HETATM    9  C3  UNL     1      22.347   1.384  50.695  1.00  0.00     0.027 A 
HETATM   10  C4  UNL     1      21.259   0.527  50.808  1.00  0.00     0.025 A 
HETATM   11  C5  UNL     1      20.227   0.872  51.668  1.00  0.00     0.034 A 
HETATM   12 CL1  UNL     1      18.854  -0.217  51.804  1.00  0.00    -0.084 Cl
HETATM   13  C6  UNL     1      20.240   2.042  52.421  1.00  0.00     0.025 A 
HETATM   14  C7  UNL     1      21.339   2.887  52.294  1.00  0.00     0.027 A 
ENDBRANCH   5   8
ENDBRANCH   3   5
BRANCH   2  15
HETATM   15  C8  UNL     1      26.737   1.321  52.677  1.00  0.00     0.051 C 
HETATM   16  C9  UNL     1      27.708   2.022  53.260  1.00  0.00     0.133 C 
HETATM   17  N2  UNL     1      29.028   1.559  53.616  1.00  0.00    -0.272 NA
HETATM   18  C10 UNL     1      29.381   0.313  53.678  1.00  0.00     0.117 C 
HETATM   19  C11 UNL     1      28.535  -0.864  53.406  1.00  0.00     0.031 C 
HETATM   20  C12 UNL     1      27.419  -1.004  52.783  1.00  0.00    -0.024 C 
HETATM   21  C13 UNL     1      26.732  -0.063  52.248  1.00  0.00     0.030 C 
ENDBRANCH   2  15
TORSDOF 3
ENDMDL
