MODEL 1
REMARK VINA RESULT:      -7.2      0.000      0.000
REMARK  7 active torsions:
REMARK  status: ('A' for Active; 'I' for Inactive)
REMARK    1  A    between atoms: O1_2  and  C2_3 
REMARK    2  A    between atoms: C4_5  and  N1_6 
REMARK    3  A    between atoms: N1_6  and  C5_7 
REMARK    4  A    between atoms: C9_13  and  O2_14 
REMARK    5  A    between atoms: C11_16  and  O3_17 
REMARK    6  A    between atoms: C16_22  and  O4_23 
REMARK    7  A    between atoms: C16_22  and  O5_25 
ROOT
HETATM    1  C5  UNL     1      25.612   3.033  50.764  1.00  0.00     0.142 A 
HETATM    2  N2  UNL     1      24.500   2.943  51.515  1.00  0.00    -0.224 NA
HETATM    3  C6  UNL     1      23.689   4.040  51.586  1.00  0.00     0.236 A 
HETATM    4  N3  UNL     1      23.997   5.186  50.915  1.00  0.00    -0.241 NA
HETATM    5  C7  UNL     1      25.124   5.248  50.166  1.00  0.00     0.075 A 
HETATM    6  C8  UNL     1      25.463   6.382  49.482  1.00  0.00     0.072 A 
HETATM    7  C9  UNL     1      26.593   6.511  48.702  1.00  0.00     0.103 A 
HETATM    8  C11 UNL     1      27.432   5.420  48.613  1.00  0.00     0.102 A 
HETATM    9  C13 UNL     1      27.103   4.259  49.302  1.00  0.00     0.057 A 
HETATM   10  C14 UNL     1      25.967   4.172  50.067  1.00  0.00     0.042 A 
ENDROOT
BRANCH   1  11
HETATM   11  N1  UNL     1      26.422   1.891  50.714  1.00  0.00    -0.340 N 
HETATM   12  H5  UNL     1      26.845   1.337  49.965  1.00  0.00     0.167 HD
BRANCH  11  13
HETATM   13  C4  UNL     1      26.822   1.252  51.933  1.00  0.00     0.038 A 
HETATM   14  C3  UNL     1      27.727   1.688  52.991  1.00  0.00     0.067 A 
HETATM   15  C2  UNL     1      27.795   0.753  53.945  1.00  0.00     0.114 A 
HETATM   16  C16 UNL     1      26.924  -0.430  53.610  1.00  0.00     0.236 A 
HETATM   17  C15 UNL     1      26.369   0.041  52.295  1.00  0.00     0.077 A 
BRANCH  15  18
HETATM   18  O1  UNL     1      28.655   1.115  54.999  1.00  0.00    -0.354 OA
HETATM   19  C1  UNL     1      29.707   2.056  54.792  1.00  0.00     0.209 C 
ENDBRANCH  15  18
BRANCH  16  20
HETATM   20  O4  UNL     1      25.923  -0.639  54.530  1.00  0.00    -0.351 OA
HETATM   21  C17 UNL     1      24.690  -0.391  53.942  1.00  0.00     0.206 C 
ENDBRANCH  16  20
BRANCH  16  22
HETATM   22  O5  UNL     1      27.690  -1.548  53.360  1.00  0.00    -0.351 OA
HETATM   23  C18 UNL     1      27.106  -2.357  52.409  1.00  0.00     0.206 C 
ENDBRANCH  16  22
ENDBRANCH  11  13
ENDBRANCH   1  11
BRANCH   8  24
HETATM   24  O3  UNL     1      28.584   5.495  47.842  1.00  0.00    -0.353 OA
HETATM   25  C12 UNL     1      29.830   5.787  48.442  1.00  0.00     0.210 C 
ENDBRANCH   8  24
BRANCH   7  26
HETATM   26  O2  UNL     1      26.956   7.651  48.000  1.00  0.00    -0.353 OA
HETATM   27  C10 UNL     1      27.028   8.927  48.649  1.00  0.00     0.210 C 
ENDBRANCH   7  26
TORSDOF 7
ENDMDL
MODEL 2
REMARK VINA RESULT:      -7.0      4.586      7.681
REMARK  7 active torsions:
REMARK  status: ('A' for Active; 'I' for Inactive)
REMARK    1  A    between atoms: O1_2  and  C2_3 
REMARK    2  A    between atoms: C4_5  and  N1_6 
REMARK    3  A    between atoms: N1_6  and  C5_7 
REMARK    4  A    between atoms: C9_13  and  O2_14 
REMARK    5  A    between atoms: C11_16  and  O3_17 
REMARK    6  A    between atoms: C16_22  and  O4_23 
REMARK    7  A    between atoms: C16_22  and  O5_25 
ROOT
HETATM    1  C5  UNL     1      22.316   0.365  53.471  1.00  0.00     0.142 A 
HETATM    2  N2  UNL     1      22.927  -0.339  54.441  1.00  0.00    -0.224 NA
HETATM    3  C6  UNL     1      22.223  -1.346  55.037  1.00  0.00     0.236 A 
HETATM    4  N3  UNL     1      20.943  -1.627  54.660  1.00  0.00    -0.241 NA
HETATM    5  C7  UNL     1      20.354  -0.901  53.680  1.00  0.00     0.075 A 
HETATM    6  C8  UNL     1      19.071  -1.157  53.279  1.00  0.00     0.072 A 
HETATM    7  C9  UNL     1      18.413  -0.457  52.290  1.00  0.00     0.103 A 
HETATM    8  C11 UNL     1      19.099   0.566  51.670  1.00  0.00     0.102 A 
HETATM    9  C13 UNL     1      20.403   0.840  52.066  1.00  0.00     0.057 A 
HETATM   10  C14 UNL     1      21.023   0.118  53.056  1.00  0.00     0.042 A 
ENDROOT
BRANCH   1  11
HETATM   11  N1  UNL     1      23.067   1.391  52.882  1.00  0.00    -0.340 N 
HETATM   12  H5  UNL     1      22.846   2.297  52.459  1.00  0.00     0.167 HD
BRANCH  11  13
HETATM   13  C4  UNL     1      24.490   1.264  52.788  1.00  0.00     0.038 A 
HETATM   14  C3  UNL     1      25.341   0.086  52.652  1.00  0.00     0.067 A 
HETATM   15  C2  UNL     1      26.625   0.454  52.603  1.00  0.00     0.114 A 
HETATM   16  C16 UNL     1      26.766   1.952  52.706  1.00  0.00     0.236 A 
HETATM   17  C15 UNL     1      25.314   2.325  52.818  1.00  0.00     0.077 A 
BRANCH  15  18
HETATM   18  O1  UNL     1      27.499  -0.641  52.471  1.00  0.00    -0.354 OA
HETATM   19  C1  UNL     1      27.028  -1.976  52.641  1.00  0.00     0.209 C 
ENDBRANCH  15  18
BRANCH  16  20
HETATM   20  O4  UNL     1      27.343   2.516  51.592  1.00  0.00    -0.351 OA
HETATM   21  C17 UNL     1      26.360   3.101  50.804  1.00  0.00     0.206 C 
ENDBRANCH  16  20
BRANCH  16  22
HETATM   22  O5  UNL     1      27.377   2.307  53.888  1.00  0.00    -0.351 OA
HETATM   23  C18 UNL     1      28.738   2.454  53.727  1.00  0.00     0.206 C 
ENDBRANCH  16  22
ENDBRANCH  11  13
ENDBRANCH   1  11
BRANCH   8  24
HETATM   24  O3  UNL     1      18.484   1.303  50.668  1.00  0.00    -0.353 OA
HETATM   25  C12 UNL     1      18.819   2.662  50.469  1.00  0.00     0.210 C 
ENDBRANCH   8  24
BRANCH   7  26
HETATM   26  O2  UNL     1      17.114  -0.699  51.866  1.00  0.00    -0.353 OA
HETATM   27  C10 UNL     1      15.996  -0.430  52.722  1.00  0.00     0.210 C 
ENDBRANCH   7  26
TORSDOF 7
ENDMDL
MODEL 3
REMARK VINA RESULT:      -7.0      3.842      7.644
REMARK  7 active torsions:
REMARK  status: ('A' for Active; 'I' for Inactive)
REMARK    1  A    between atoms: O1_2  and  C2_3 
REMARK    2  A    between atoms: C4_5  and  N1_6 
REMARK    3  A    between atoms: N1_6  and  C5_7 
REMARK    4  A    between atoms: C9_13  and  O2_14 
REMARK    5  A    between atoms: C11_16  and  O3_17 
REMARK    6  A    between atoms: C16_22  and  O4_23 
REMARK    7  A    between atoms: C16_22  and  O5_25 
ROOT
HETATM    1  C5  UNL     1      22.798  -0.300  53.038  1.00  0.00     0.142 A 
HETATM    2  N2  UNL     1      21.951  -0.971  53.839  1.00  0.00    -0.224 NA
HETATM    3  C6  UNL     1      22.434  -1.438  55.029  1.00  0.00     0.236 A 
HETATM    4  N3  UNL     1      23.732  -1.228  55.391  1.00  0.00    -0.241 NA
HETATM    5  C7  UNL     1      24.562  -0.548  54.563  1.00  0.00     0.075 A 
HETATM    6  C8  UNL     1      25.868  -0.321  54.896  1.00  0.00     0.072 A 
HETATM    7  C9  UNL     1      26.765   0.362  54.102  1.00  0.00     0.103 A 
HETATM    8  C11 UNL     1      26.305   0.844  52.894  1.00  0.00     0.102 A 
HETATM    9  C13 UNL     1      24.980   0.622  52.540  1.00  0.00     0.057 A 
HETATM   10  C14 UNL     1      24.119  -0.063  53.361  1.00  0.00     0.042 A 
ENDROOT
BRANCH   1  11
HETATM   11  N1  UNL     1      22.270   0.163  51.826  1.00  0.00    -0.340 N 
HETATM   12  H5  UNL     1      22.222  -0.204  50.871  1.00  0.00     0.167 HD
BRANCH  11  13
HETATM   13  C4  UNL     1      21.617   1.438  51.778  1.00  0.00     0.038 A 
HETATM   14  C3  UNL     1      20.267   1.838  52.157  1.00  0.00     0.067 A 
HETATM   15  C2  UNL     1      20.100   3.146  51.935  1.00  0.00     0.114 A 
HETATM   16  C16 UNL     1      21.352   3.766  51.369  1.00  0.00     0.236 A 
HETATM   17  C15 UNL     1      22.229   2.546  51.328  1.00  0.00     0.077 A 
BRANCH  15  18
HETATM   18  O1  UNL     1      18.812   3.596  52.282  1.00  0.00    -0.354 OA
HETATM   19  C1  UNL     1      17.828   3.837  51.279  1.00  0.00     0.209 C 
ENDBRANCH  15  18
BRANCH  16  20
HETATM   20  O4  UNL     1      21.885   4.739  52.181  1.00  0.00    -0.351 OA
HETATM   21  C17 UNL     1      23.204   4.425  52.481  1.00  0.00     0.206 C 
ENDBRANCH  16  20
BRANCH  16  22
HETATM   22  O5  UNL     1      21.152   4.175  50.069  1.00  0.00    -0.351 OA
HETATM   23  C18 UNL     1      20.832   5.514  50.006  1.00  0.00     0.206 C 
ENDBRANCH  16  22
ENDBRANCH  11  13
ENDBRANCH   1  11
BRANCH   8  24
HETATM   24  O3  UNL     1      27.165   1.539  52.055  1.00  0.00    -0.353 OA
HETATM   25  C12 UNL     1      26.677   2.574  51.226  1.00  0.00     0.210 C 
ENDBRANCH   8  24
BRANCH   7  26
HETATM   26  O2  UNL     1      28.094   0.604  54.418  1.00  0.00    -0.353 OA
HETATM   27  C10 UNL     1      29.108  -0.373  54.146  1.00  0.00     0.210 C 
ENDBRANCH   7  26
TORSDOF 7
ENDMDL
MODEL 4
REMARK VINA RESULT:      -7.0      3.781      6.083
REMARK  7 active torsions:
REMARK  status: ('A' for Active; 'I' for Inactive)
REMARK    1  A    between atoms: O1_2  and  C2_3 
REMARK    2  A    between atoms: C4_5  and  N1_6 
REMARK    3  A    between atoms: N1_6  and  C5_7 
REMARK    4  A    between atoms: C9_13  and  O2_14 
REMARK    5  A    between atoms: C11_16  and  O3_17 
REMARK    6  A    between atoms: C16_22  and  O4_23 
REMARK    7  A    between atoms: C16_22  and  O5_25 
ROOT
HETATM    1  C5  UNL     1      23.695   2.533  51.629  1.00  0.00     0.142 A 
HETATM    2  N2  UNL     1      24.476   3.623  51.739  1.00  0.00    -0.224 NA
HETATM    3  C6  UNL     1      23.864   4.827  51.942  1.00  0.00     0.236 A 
HETATM    4  N3  UNL     1      22.506   4.919  52.032  1.00  0.00    -0.241 NA
HETATM    5  C7  UNL     1      21.745   3.804  51.918  1.00  0.00     0.075 A 
HETATM    6  C8  UNL     1      20.382   3.861  52.003  1.00  0.00     0.072 A 
HETATM    7  C9  UNL     1      19.550   2.767  51.895  1.00  0.00     0.103 A 
HETATM    8  C11 UNL     1      20.140   1.537  51.688  1.00  0.00     0.102 A 
HETATM    9  C13 UNL     1      21.525   1.461  51.599  1.00  0.00     0.057 A 
HETATM   10  C14 UNL     1      22.317   2.576  51.713  1.00  0.00     0.042 A 
ENDROOT
BRANCH   1  11
HETATM   11  N1  UNL     1      24.355   1.315  51.419  1.00  0.00    -0.340 N 
HETATM   12  H5  UNL     1      24.543   0.726  50.604  1.00  0.00     0.167 HD
BRANCH  11  13
HETATM   13  C4  UNL     1      24.952   0.632  52.528  1.00  0.00     0.038 A 
HETATM   14  C3  UNL     1      24.352  -0.091  53.644  1.00  0.00     0.067 A 
HETATM   15  C2  UNL     1      25.310  -0.569  54.446  1.00  0.00     0.114 A 
HETATM   16  C16 UNL     1      26.680  -0.202  53.934  1.00  0.00     0.236 A 
HETATM   17  C15 UNL     1      26.282   0.563  52.703  1.00  0.00     0.077 A 
BRANCH  15  18
HETATM   18  O1  UNL     1      24.793  -1.279  55.545  1.00  0.00    -0.354 OA
HETATM   19  C1  UNL     1      23.390  -1.500  55.678  1.00  0.00     0.209 C 
ENDBRANCH  15  18
BRANCH  16  20
HETATM   20  O4  UNL     1      27.447  -1.299  53.616  1.00  0.00    -0.351 OA
HETATM   21  C17 UNL     1      26.903  -1.944  52.513  1.00  0.00     0.206 C 
ENDBRANCH  16  20
BRANCH  16  22
HETATM   22  O5  UNL     1      27.301   0.681  54.788  1.00  0.00    -0.351 OA
HETATM   23  C18 UNL     1      28.669   0.509  54.783  1.00  0.00     0.206 C 
ENDBRANCH  16  22
ENDBRANCH  11  13
ENDBRANCH   1  11
BRANCH   8  24
HETATM   24  O3  UNL     1      19.350   0.402  51.573  1.00  0.00    -0.353 OA
HETATM   25  C12 UNL     1      19.076  -0.399  52.705  1.00  0.00     0.210 C 
ENDBRANCH   8  24
BRANCH   7  26
HETATM   26  O2  UNL     1      18.166   2.801  51.978  1.00  0.00    -0.353 OA
HETATM   27  C10 UNL     1      17.418   3.885  51.410  1.00  0.00     0.210 C 
ENDBRANCH   7  26
TORSDOF 7
ENDMDL
MODEL 5
REMARK VINA RESULT:      -7.0      4.745      7.813
REMARK  7 active torsions:
REMARK  status: ('A' for Active; 'I' for Inactive)
REMARK    1  A    between atoms: O1_2  and  C2_3 
REMARK    2  A    between atoms: C4_5  and  N1_6 
REMARK    3  A    between atoms: N1_6  and  C5_7 
REMARK    4  A    between atoms: C9_13  and  O2_14 
REMARK    5  A    between atoms: C11_16  and  O3_17 
REMARK    6  A    between atoms: C16_22  and  O4_23 
REMARK    7  A    between atoms: C16_22  and  O5_25 
ROOT
HETATM    1  C5  UNL     1      22.791   1.677  51.918  1.00  0.00     0.142 A 
HETATM    2  N2  UNL     1      22.252   2.898  51.745  1.00  0.00    -0.224 NA
HETATM    3  C6  UNL     1      22.894   3.962  52.310  1.00  0.00     0.236 A 
HETATM    4  N3  UNL     1      24.042   3.792  53.025  1.00  0.00    -0.241 NA
HETATM    5  C7  UNL     1      24.562   2.551  53.182  1.00  0.00     0.075 A 
HETATM    6  C8  UNL     1      25.711   2.346  53.894  1.00  0.00     0.072 A 
HETATM    7  C9  UNL     1      26.292   1.111  54.092  1.00  0.00     0.103 A 
HETATM    8  C11 UNL     1      25.666   0.016  53.533  1.00  0.00     0.102 A 
HETATM    9  C13 UNL     1      24.496   0.207  52.807  1.00  0.00     0.057 A 
HETATM   10  C14 UNL     1      23.951   1.455  52.633  1.00  0.00     0.042 A 
ENDROOT
BRANCH   1  11
HETATM   11  N1  UNL     1      22.107   0.607  51.325  1.00  0.00    -0.340 N 
HETATM   12  H5  UNL     1      22.360  -0.140  50.673  1.00  0.00     0.167 HD
BRANCH  11  13
HETATM   13  C4  UNL     1      20.720   0.402  51.621  1.00  0.00     0.038 A 
HETATM   14  C3  UNL     1      20.068  -0.300  52.721  1.00  0.00     0.067 A 
HETATM   15  C2  UNL     1      18.740  -0.231  52.583  1.00  0.00     0.114 A 
HETATM   16  C16 UNL     1      18.362   0.540  51.344  1.00  0.00     0.236 A 
HETATM   17  C15 UNL     1      19.737   0.878  50.839  1.00  0.00     0.077 A 
BRANCH  15  18
HETATM   18  O1  UNL     1      18.051  -0.892  53.617  1.00  0.00    -0.354 OA
HETATM   19  C1  UNL     1      17.820  -2.298  53.558  1.00  0.00     0.209 C 
ENDBRANCH  15  18
BRANCH  16  20
HETATM   20  O4  UNL     1      17.636   1.676  51.618  1.00  0.00    -0.351 OA
HETATM   21  C17 UNL     1      18.352   2.796  51.215  1.00  0.00     0.206 C 
ENDBRANCH  16  20
BRANCH  16  22
HETATM   22  O5  UNL     1      17.770  -0.285  50.413  1.00  0.00    -0.351 OA
HETATM   23  C18 UNL     1      16.406  -0.356  50.597  1.00  0.00     0.206 C 
ENDBRANCH  16  22
ENDBRANCH  11  13
ENDBRANCH   1  11
BRANCH   8  24
HETATM   24  O3  UNL     1      26.207  -1.251  53.701  1.00  0.00    -0.353 OA
HETATM   25  C12 UNL     1      26.856  -1.901  52.627  1.00  0.00     0.210 C 
ENDBRANCH   8  24
BRANCH   7  26
HETATM   26  O2  UNL     1      27.456   0.879  54.809  1.00  0.00    -0.353 OA
HETATM   27  C10 UNL     1      28.744   1.057  54.204  1.00  0.00     0.210 C 
ENDBRANCH   7  26
TORSDOF 7
ENDMDL
MODEL 6
REMARK VINA RESULT:      -6.9      2.405      7.214
REMARK  7 active torsions:
REMARK  status: ('A' for Active; 'I' for Inactive)
REMARK    1  A    between atoms: O1_2  and  C2_3 
REMARK    2  A    between atoms: C4_5  and  N1_6 
REMARK    3  A    between atoms: N1_6  and  C5_7 
REMARK    4  A    between atoms: C9_13  and  O2_14 
REMARK    5  A    between atoms: C11_16  and  O3_17 
REMARK    6  A    between atoms: C16_22  and  O4_23 
REMARK    7  A    between atoms: C16_22  and  O5_25 
ROOT
HETATM    1  C5  UNL     1      23.166   1.991  52.692  1.00  0.00     0.142 A 
HETATM    2  N2  UNL     1      22.054   1.296  52.391  1.00  0.00    -0.224 NA
HETATM    3  C6  UNL     1      22.074  -0.055  52.588  1.00  0.00     0.236 A 
HETATM    4  N3  UNL     1      23.184  -0.678  53.075  1.00  0.00    -0.241 NA
HETATM    5  C7  UNL     1      24.290   0.047  53.370  1.00  0.00     0.075 A 
HETATM    6  C8  UNL     1      25.420  -0.546  53.860  1.00  0.00     0.072 A 
HETATM    7  C9  UNL     1      26.577   0.132  54.180  1.00  0.00     0.103 A 
HETATM    8  C11 UNL     1      26.587   1.498  53.991  1.00  0.00     0.102 A 
HETATM    9  C13 UNL     1      25.447   2.118  53.494  1.00  0.00     0.057 A 
HETATM   10  C14 UNL     1      24.314   1.405  53.188  1.00  0.00     0.042 A 
ENDROOT
BRANCH   1  11
HETATM   11  N1  UNL     1      23.111   3.374  52.477  1.00  0.00    -0.340 N 
HETATM   12  H5  UNL     1      22.888   4.187  53.058  1.00  0.00     0.167 HD
BRANCH  11  13
HETATM   13  C4  UNL     1      23.418   3.903  51.182  1.00  0.00     0.038 A 
HETATM   14  C3  UNL     1      22.739   3.751  49.899  1.00  0.00     0.067 A 
HETATM   15  C2  UNL     1      23.394   4.434  48.954  1.00  0.00     0.114 A 
HETATM   16  C16 UNL     1      24.607   5.125  49.523  1.00  0.00     0.236 A 
HETATM   17  C15 UNL     1      24.484   4.689  50.957  1.00  0.00     0.077 A 
BRANCH  15  18
HETATM   18  O1  UNL     1      22.787   4.327  47.689  1.00  0.00    -0.354 OA
HETATM   19  C1  UNL     1      21.753   3.373  47.453  1.00  0.00     0.209 C 
ENDBRANCH  15  18
BRANCH  16  20
HETATM   20  O4  UNL     1      24.549   6.494  49.409  1.00  0.00    -0.351 OA
HETATM   21  C17 UNL     1      25.254   7.079  50.453  1.00  0.00     0.206 C 
ENDBRANCH  16  20
BRANCH  16  22
HETATM   22  O5  UNL     1      25.765   4.574  49.021  1.00  0.00    -0.351 OA
HETATM   23  C18 UNL     1      26.365   3.738  49.938  1.00  0.00     0.206 C 
ENDBRANCH  16  22
ENDBRANCH  11  13
ENDBRANCH   1  11
BRANCH   8  24
HETATM   24  O3  UNL     1      27.726   2.230  54.297  1.00  0.00    -0.353 OA
HETATM   25  C12 UNL     1      28.646   2.581  53.283  1.00  0.00     0.210 C 
ENDBRANCH   8  24
BRANCH   7  26
HETATM   26  O2  UNL     1      27.735  -0.448  54.678  1.00  0.00    -0.353 OA
HETATM   27  C10 UNL     1      28.729  -0.988  53.796  1.00  0.00     0.210 C 
ENDBRANCH   7  26
TORSDOF 7
ENDMDL
MODEL 7
REMARK VINA RESULT:      -6.9      3.739      7.765
REMARK  7 active torsions:
REMARK  status: ('A' for Active; 'I' for Inactive)
REMARK    1  A    between atoms: O1_2  and  C2_3 
REMARK    2  A    between atoms: C4_5  and  N1_6 
REMARK    3  A    between atoms: N1_6  and  C5_7 
REMARK    4  A    between atoms: C9_13  and  O2_14 
REMARK    5  A    between atoms: C11_16  and  O3_17 
REMARK    6  A    between atoms: C16_22  and  O4_23 
REMARK    7  A    between atoms: C16_22  and  O5_25 
ROOT
HETATM    1  C5  UNL     1      24.571   2.784  52.251  1.00  0.00     0.142 A 
HETATM    2  N2  UNL     1      24.825   3.576  51.194  1.00  0.00    -0.224 NA
HETATM    3  C6  UNL     1      25.979   3.358  50.498  1.00  0.00     0.236 A 
HETATM    4  N3  UNL     1      26.844   2.370  50.863  1.00  0.00    -0.241 NA
HETATM    5  C7  UNL     1      26.562   1.587  51.932  1.00  0.00     0.075 A 
HETATM    6  C8  UNL     1      27.409   0.587  52.325  1.00  0.00     0.072 A 
HETATM    7  C9  UNL     1      27.182  -0.243  53.402  1.00  0.00     0.103 A 
HETATM    8  C11 UNL     1      26.024  -0.046  54.125  1.00  0.00     0.102 A 
HETATM    9  C13 UNL     1      25.153   0.965  53.739  1.00  0.00     0.057 A 
HETATM   10  C14 UNL     1      25.416   1.771  52.659  1.00  0.00     0.042 A 
ENDROOT
BRANCH   1  11
HETATM   11  N1  UNL     1      23.379   3.035  52.943  1.00  0.00    -0.340 N 
HETATM   12  H5  UNL     1      23.145   3.408  53.867  1.00  0.00     0.167 HD
BRANCH  11  13
HETATM   13  C4  UNL     1      22.122   2.746  52.319  1.00  0.00     0.038 A 
HETATM   14  C3  UNL     1      21.531   1.481  51.897  1.00  0.00     0.067 A 
HETATM   15  C2  UNL     1      20.327   1.698  51.357  1.00  0.00     0.114 A 
HETATM   16  C16 UNL     1      19.987   3.167  51.361  1.00  0.00     0.236 A 
HETATM   17  C15 UNL     1      21.233   3.703  52.008  1.00  0.00     0.077 A 
BRANCH  15  18
HETATM   18  O1  UNL     1      19.702   0.512  50.928  1.00  0.00    -0.354 OA
HETATM   19  C1  UNL     1      18.666  -0.088  51.703  1.00  0.00     0.209 C 
ENDBRANCH  15  18
BRANCH  16  20
HETATM   20  O4  UNL     1      18.869   3.458  52.108  1.00  0.00    -0.351 OA
HETATM   21  C17 UNL     1      17.750   3.475  51.285  1.00  0.00     0.206 C 
ENDBRANCH  16  20
BRANCH  16  22
HETATM   22  O5  UNL     1      19.941   3.663  50.077  1.00  0.00    -0.351 OA
HETATM   23  C18 UNL     1      20.725   4.788  49.943  1.00  0.00     0.206 C 
ENDBRANCH  16  22
ENDBRANCH  11  13
ENDBRANCH   1  11
BRANCH   8  24
HETATM   24  O3  UNL     1      25.746  -0.855  55.218  1.00  0.00    -0.353 OA
HETATM   25  C12 UNL     1      24.423  -1.283  55.475  1.00  0.00     0.210 C 
ENDBRANCH   8  24
BRANCH   7  26
HETATM   26  O2  UNL     1      28.025  -1.263  53.819  1.00  0.00    -0.353 OA
HETATM   27  C10 UNL     1      29.418  -1.256  53.478  1.00  0.00     0.210 C 
ENDBRANCH   7  26
TORSDOF 7
ENDMDL
MODEL 8
REMARK VINA RESULT:      -6.9      3.700      7.533
REMARK  7 active torsions:
REMARK  status: ('A' for Active; 'I' for Inactive)
REMARK    1  A    between atoms: O1_2  and  C2_3 
REMARK    2  A    between atoms: C4_5  and  N1_6 
REMARK    3  A    between atoms: N1_6  and  C5_7 
REMARK    4  A    between atoms: C9_13  and  O2_14 
REMARK    5  A    between atoms: C11_16  and  O3_17 
REMARK    6  A    between atoms: C16_22  and  O4_23 
REMARK    7  A    between atoms: C16_22  and  O5_25 
ROOT
HETATM    1  C5  UNL     1      24.547   2.678  52.146  1.00  0.00     0.142 A 
HETATM    2  N2  UNL     1      24.842   3.535  51.151  1.00  0.00    -0.224 NA
HETATM    3  C6  UNL     1      26.081   3.449  50.583  1.00  0.00     0.236 A 
HETATM    4  N3  UNL     1      26.987   2.525  51.010  1.00  0.00    -0.241 NA
HETATM    5  C7  UNL     1      26.662   1.674  52.013  1.00  0.00     0.075 A 
HETATM    6  C8  UNL     1      27.548   0.735  52.465  1.00  0.00     0.072 A 
HETATM    7  C9  UNL     1      27.282  -0.159  53.481  1.00  0.00     0.103 A 
HETATM    8  C11 UNL     1      26.038  -0.095  54.074  1.00  0.00     0.102 A 
HETATM    9  C13 UNL     1      25.126   0.853  53.627  1.00  0.00     0.057 A 
HETATM   10  C14 UNL     1      25.431   1.725  52.612  1.00  0.00     0.042 A 
ENDROOT
BRANCH   1  11
HETATM   11  N1  UNL     1      23.268   2.795  52.707  1.00  0.00    -0.340 N 
HETATM   12  H5  UNL     1      22.892   3.197  53.569  1.00  0.00     0.167 HD
BRANCH  11  13
HETATM   13  C4  UNL     1      22.136   2.265  52.007  1.00  0.00     0.038 A 
HETATM   14  C3  UNL     1      21.898   2.065  50.582  1.00  0.00     0.067 A 
HETATM   15  C2  UNL     1      20.685   1.537  50.392  1.00  0.00     0.114 A 
HETATM   16  C16 UNL     1      19.972   1.328  51.704  1.00  0.00     0.236 A 
HETATM   17  C15 UNL     1      21.030   1.841  52.640  1.00  0.00     0.077 A 
BRANCH  15  18
HETATM   18  O1  UNL     1      20.394   1.318  49.032  1.00  0.00    -0.354 OA
HETATM   19  C1  UNL     1      20.335   2.408  48.115  1.00  0.00     0.209 C 
ENDBRANCH  15  18
BRANCH  16  20
HETATM   20  O4  UNL     1      19.681   0.007  51.953  1.00  0.00    -0.351 OA
HETATM   21  C17 UNL     1      19.930  -0.281  53.289  1.00  0.00     0.206 C 
ENDBRANCH  16  20
BRANCH  16  22
HETATM   22  O5  UNL     1      18.884   2.165  51.809  1.00  0.00    -0.351 OA
HETATM   23  C18 UNL     1      17.778   1.637  51.179  1.00  0.00     0.206 C 
ENDBRANCH  16  22
ENDBRANCH  11  13
ENDBRANCH   1  11
BRANCH   8  24
HETATM   24  O3  UNL     1      25.717  -0.971  55.101  1.00  0.00    -0.353 OA
HETATM   25  C12 UNL     1      24.367  -1.207  55.446  1.00  0.00     0.210 C 
ENDBRANCH   8  24
BRANCH   7  26
HETATM   26  O2  UNL     1      28.163  -1.118  53.955  1.00  0.00    -0.353 OA
HETATM   27  C10 UNL     1      29.547  -1.100  53.580  1.00  0.00     0.210 C 
ENDBRANCH   7  26
TORSDOF 7
ENDMDL
MODEL 9
REMARK VINA RESULT:      -6.9      3.702      7.576
REMARK  7 active torsions:
REMARK  status: ('A' for Active; 'I' for Inactive)
REMARK    1  A    between atoms: O1_2  and  C2_3 
REMARK    2  A    between atoms: C4_5  and  N1_6 
REMARK    3  A    between atoms: N1_6  and  C5_7 
REMARK    4  A    between atoms: C9_13  and  O2_14 
REMARK    5  A    between atoms: C11_16  and  O3_17 
REMARK    6  A    between atoms: C16_22  and  O4_23 
REMARK    7  A    between atoms: C16_22  and  O5_25 
ROOT
HETATM    1  C5  UNL     1      24.515   2.770  52.155  1.00  0.00     0.142 A 
HETATM    2  N2  UNL     1      24.739   3.546  51.079  1.00  0.00    -0.224 NA
HETATM    3  C6  UNL     1      25.855   3.294  50.333  1.00  0.00     0.236 A 
HETATM    4  N3  UNL     1      26.711   2.288  50.669  1.00  0.00    -0.241 NA
HETATM    5  C7  UNL     1      26.460   1.522  51.757  1.00  0.00     0.075 A 
HETATM    6  C8  UNL     1      27.299   0.506  52.122  1.00  0.00     0.072 A 
HETATM    7  C9  UNL     1      27.103  -0.309  53.216  1.00  0.00     0.103 A 
HETATM    8  C11 UNL     1      25.984  -0.078  53.989  1.00  0.00     0.102 A 
HETATM    9  C13 UNL     1      25.120   0.951  53.633  1.00  0.00     0.057 A 
HETATM   10  C14 UNL     1      25.353   1.740  52.534  1.00  0.00     0.042 A 
ENDROOT
BRANCH   1  11
HETATM   11  N1  UNL     1      23.362   3.057  52.898  1.00  0.00    -0.340 N 
HETATM   12  H5  UNL     1      23.178   3.468  53.817  1.00  0.00     0.167 HD
BRANCH  11  13
HETATM   13  C4  UNL     1      22.073   2.750  52.354  1.00  0.00     0.038 A 
HETATM   14  C3  UNL     1      20.799   3.455  52.449  1.00  0.00     0.067 A 
HETATM   15  C2  UNL     1      19.857   2.788  51.773  1.00  0.00     0.114 A 
HETATM   16  C16 UNL     1      20.421   1.539  51.145  1.00  0.00     0.236 A 
HETATM   17  C15 UNL     1      21.846   1.657  51.606  1.00  0.00     0.077 A 
BRANCH  15  18
HETATM   18  O1  UNL     1      18.601   3.420  51.827  1.00  0.00    -0.354 OA
HETATM   19  C1  UNL     1      17.947   3.847  50.634  1.00  0.00     0.209 C 
ENDBRANCH  15  18
BRANCH  16  20
HETATM   20  O4  UNL     1      20.337   1.543  49.772  1.00  0.00    -0.351 OA
HETATM   21  C17 UNL     1      21.538   1.103  49.230  1.00  0.00     0.206 C 
ENDBRANCH  16  20
BRANCH  16  22
HETATM   22  O5  UNL     1      19.887   0.412  51.730  1.00  0.00    -0.351 OA
HETATM   23  C18 UNL     1      18.649   0.110  51.206  1.00  0.00     0.206 C 
ENDBRANCH  16  22
ENDBRANCH  11  13
ENDBRANCH   1  11
BRANCH   8  24
HETATM   24  O3  UNL     1      25.737  -0.869  55.102  1.00  0.00    -0.353 OA
HETATM   25  C12 UNL     1      24.413  -1.219  55.454  1.00  0.00     0.210 C 
ENDBRANCH   8  24
BRANCH   7  26
HETATM   26  O2  UNL     1      27.939  -1.345  53.604  1.00  0.00    -0.353 OA
HETATM   27  C10 UNL     1      29.362  -1.242  53.454  1.00  0.00     0.210 C 
ENDBRANCH   7  26
TORSDOF 7
ENDMDL
