MODEL 1
REMARK VINA RESULT:      -7.2      0.000      0.000
REMARK  8 active torsions:
REMARK  status: ('A' for Active; 'I' for Inactive)
REMARK    1  A    between atoms: C2_2  and  C3_3 
REMARK    2  A    between atoms: C2_2  and  C17_20 
REMARK    3  A    between atoms: C3_3  and  O1_4 
REMARK    4  A    between atoms: O1_4  and  C4_5 
REMARK    5  A    between atoms: C9_10  and  O2_11 
REMARK    6  A    between atoms: O2_11  and  C10_12 
REMARK    7  A    between atoms: C10_12  and  C11_13 
REMARK    8  A    between atoms: C17_20  and  N1_21 
ROOT
HETATM    1  C4  UNL     1      23.376  -0.115  53.452  1.00  0.00     0.102 A 
HETATM    2  C5  UNL     1      22.854  -0.909  54.450  1.00  0.00     0.039 A 
HETATM    3  C6  UNL     1      21.538  -1.287  54.617  1.00  0.00     0.003 A 
HETATM    4  C7  UNL     1      20.665  -0.806  53.667  1.00  0.00     0.003 A 
HETATM    5  C8  UNL     1      21.142   0.005  52.631  1.00  0.00     0.039 A 
HETATM    6  C9  UNL     1      22.455   0.360  52.496  1.00  0.00     0.102 A 
ENDROOT
BRANCH   6   7
HETATM    7  O2  UNL     1      22.991   1.144  51.514  1.00  0.00    -0.342 OA
BRANCH   7   8
HETATM    8  C10 UNL     1      22.759   2.485  51.219  1.00  0.00     0.240 C 
BRANCH   8   9
HETATM    9  C11 UNL     1      23.866   3.227  50.623  1.00  0.00     0.076 C 
HETATM   10  C12 UNL     1      23.808   4.261  49.771  1.00  0.00     0.035 C 
HETATM   11  C13 UNL     1      24.794   5.094  49.099  1.00  0.00     0.003 C 
HETATM   12  C14 UNL     1      26.091   4.858  49.074  1.00  0.00     0.002 C 
HETATM   13  C15 UNL     1      26.820   3.761  49.682  1.00  0.00     0.025 C 
HETATM   14  C16 UNL     1      26.378   2.842  50.537  1.00  0.00     0.142 C 
HETATM   15  O3  UNL     1      25.086   2.694  51.079  1.00  0.00    -0.325 OA
ENDBRANCH   8   9
ENDBRANCH   7   8
ENDBRANCH   6   7
BRANCH   1  16
HETATM   16  O1  UNL     1      24.686   0.234  53.328  1.00  0.00    -0.344 OA
BRANCH  16  17
HETATM   17  C3  UNL     1      25.763  -0.425  53.909  1.00  0.00     0.211 C 
BRANCH  17  18
HETATM   18  C2  UNL     1      26.743  -1.010  52.987  1.00  0.00    -0.048 C 
HETATM   19  C1  UNL     1      26.804  -2.188  52.382  1.00  0.00     0.018 C 
BRANCH  18  20
HETATM   20  C17 UNL     1      27.835  -0.014  52.758  1.00  0.00     0.151 C 
BRANCH  20  21
HETATM   21  N1  UNL     1      28.786   0.022  53.818  1.00  0.00    -0.417 N 
HETATM   22  C18 UNL     1      29.860  -0.908  53.713  1.00  0.00     0.142 C 
HETATM   23  C19 UNL     1      29.128   1.328  54.287  1.00  0.00     0.142 C 
ENDBRANCH  20  21
ENDBRANCH  18  20
ENDBRANCH  17  18
ENDBRANCH  16  17
ENDBRANCH   1  16
TORSDOF 8
ENDMDL
MODEL 2
REMARK VINA RESULT:      -7.1      1.601      5.255
REMARK  8 active torsions:
REMARK  status: ('A' for Active; 'I' for Inactive)
REMARK    1  A    between atoms: C2_2  and  C3_3 
REMARK    2  A    between atoms: C2_2  and  C17_20 
REMARK    3  A    between atoms: C3_3  and  O1_4 
REMARK    4  A    between atoms: O1_4  and  C4_5 
REMARK    5  A    between atoms: C9_10  and  O2_11 
REMARK    6  A    between atoms: O2_11  and  C10_12 
REMARK    7  A    between atoms: C10_12  and  C11_13 
REMARK    8  A    between atoms: C17_20  and  N1_21 
ROOT
HETATM    1  C4  UNL     1      22.242   0.248  52.414  1.00  0.00     0.102 A 
HETATM    2  C5  UNL     1      20.949  -0.059  52.779  1.00  0.00     0.039 A 
HETATM    3  C6  UNL     1      20.539  -0.773  53.884  1.00  0.00     0.003 A 
HETATM    4  C7  UNL     1      21.551  -1.221  54.703  1.00  0.00     0.003 A 
HETATM    5  C8  UNL     1      22.883  -0.937  54.381  1.00  0.00     0.039 A 
HETATM    6  C9  UNL     1      23.254  -0.225  53.275  1.00  0.00     0.102 A 
ENDROOT
BRANCH   6   7
HETATM    7  O2  UNL     1      24.529   0.090  52.898  1.00  0.00    -0.342 OA
BRANCH   7   8
HETATM    8  C10 UNL     1      25.561   0.662  53.637  1.00  0.00     0.240 C 
BRANCH   8   9
HETATM    9  C11 UNL     1      26.839  -0.045  53.638  1.00  0.00     0.076 C 
HETATM   10  C12 UNL     1      28.062   0.451  53.875  1.00  0.00     0.035 C 
HETATM   11  C13 UNL     1      29.405  -0.105  53.913  1.00  0.00     0.003 C 
HETATM   12  C14 UNL     1      29.733  -1.319  53.516  1.00  0.00     0.002 C 
HETATM   13  C15 UNL     1      28.872  -2.351  52.969  1.00  0.00     0.025 C 
HETATM   14  C16 UNL     1      27.543  -2.374  52.899  1.00  0.00     0.142 C 
HETATM   15  O3  UNL     1      26.622  -1.403  53.339  1.00  0.00    -0.325 OA
ENDBRANCH   8   9
ENDBRANCH   7   8
ENDBRANCH   6   7
BRANCH   1  16
HETATM   16  O1  UNL     1      22.601   0.957  51.308  1.00  0.00    -0.344 OA
BRANCH  16  17
HETATM   17  C3  UNL     1      22.322   2.297  51.075  1.00  0.00     0.211 C 
BRANCH  17  18
HETATM   18  C2  UNL     1      23.406   3.247  51.348  1.00  0.00    -0.048 C 
HETATM   19  C1  UNL     1      23.712   3.966  52.419  1.00  0.00     0.018 C 
BRANCH  18  20
HETATM   20  C17 UNL     1      24.265   3.353  50.128  1.00  0.00     0.151 C 
BRANCH  20  21
HETATM   21  N1  UNL     1      25.597   3.767  50.420  1.00  0.00    -0.417 N 
HETATM   22  C18 UNL     1      26.522   2.719  50.690  1.00  0.00     0.142 C 
HETATM   23  C19 UNL     1      26.086   4.851  49.628  1.00  0.00     0.142 C 
ENDBRANCH  20  21
ENDBRANCH  18  20
ENDBRANCH  17  18
ENDBRANCH  16  17
ENDBRANCH   1  16
TORSDOF 8
ENDMDL
MODEL 3
REMARK VINA RESULT:      -7.1      1.225      5.510
REMARK  8 active torsions:
REMARK  status: ('A' for Active; 'I' for Inactive)
REMARK    1  A    between atoms: C2_2  and  C3_3 
REMARK    2  A    between atoms: C2_2  and  C17_20 
REMARK    3  A    between atoms: C3_3  and  O1_4 
REMARK    4  A    between atoms: O1_4  and  C4_5 
REMARK    5  A    between atoms: C9_10  and  O2_11 
REMARK    6  A    between atoms: O2_11  and  C10_12 
REMARK    7  A    between atoms: C10_12  and  C11_13 
REMARK    8  A    between atoms: C17_20  and  N1_21 
ROOT
HETATM    1  C4  UNL     1      25.602   2.761  51.269  1.00  0.00     0.102 A 
HETATM    2  C5  UNL     1      26.607   3.171  50.419  1.00  0.00     0.039 A 
HETATM    3  C6  UNL     1      26.518   4.100  49.405  1.00  0.00     0.003 A 
HETATM    4  C7  UNL     1      25.277   4.672  49.240  1.00  0.00     0.003 A 
HETATM    5  C8  UNL     1      24.220   4.293  50.076  1.00  0.00     0.039 A 
HETATM    6  C9  UNL     1      24.344   3.367  51.073  1.00  0.00     0.102 A 
ENDROOT
BRANCH   6   7
HETATM    7  O2  UNL     1      23.361   2.949  51.925  1.00  0.00    -0.342 OA
BRANCH   7   8
HETATM    8  C10 UNL     1      22.263   2.127  51.683  1.00  0.00     0.240 C 
BRANCH   8   9
HETATM    9  C11 UNL     1      22.046   1.029  52.622  1.00  0.00     0.076 C 
HETATM   10  C12 UNL     1      22.964   0.286  53.256  1.00  0.00     0.035 C 
HETATM   11  C13 UNL     1      22.916  -0.819  54.201  1.00  0.00     0.003 C 
HETATM   12  C14 UNL     1      21.826  -1.485  54.530  1.00  0.00     0.002 C 
HETATM   13  C15 UNL     1      20.470  -1.287  54.053  1.00  0.00     0.025 C 
HETATM   14  C16 UNL     1      19.987  -0.294  53.310  1.00  0.00     0.142 C 
HETATM   15  O3  UNL     1      20.664   0.829  52.795  1.00  0.00    -0.325 OA
ENDBRANCH   8   9
ENDBRANCH   7   8
ENDBRANCH   6   7
BRANCH   1  16
HETATM   16  O1  UNL     1      25.736   1.835  52.258  1.00  0.00    -0.344 OA
BRANCH  16  17
HETATM   17  C3  UNL     1      26.223   2.075  53.537  1.00  0.00     0.211 C 
BRANCH  17  18
HETATM   18  C2  UNL     1      27.637   1.758  53.767  1.00  0.00    -0.048 C 
HETATM   19  C1  UNL     1      28.746   2.466  53.607  1.00  0.00     0.018 C 
BRANCH  18  20
HETATM   20  C17 UNL     1      27.734   0.353  54.269  1.00  0.00     0.151 C 
BRANCH  20  21
HETATM   21  N1  UNL     1      28.105  -0.576  53.253  1.00  0.00    -0.417 N 
HETATM   22  C18 UNL     1      29.383  -1.184  53.413  1.00  0.00     0.142 C 
HETATM   23  C19 UNL     1      27.055  -1.428  52.793  1.00  0.00     0.142 C 
ENDBRANCH  20  21
ENDBRANCH  18  20
ENDBRANCH  17  18
ENDBRANCH  16  17
ENDBRANCH   1  16
TORSDOF 8
ENDMDL
MODEL 4
REMARK VINA RESULT:      -6.8      0.881      5.245
REMARK  8 active torsions:
REMARK  status: ('A' for Active; 'I' for Inactive)
REMARK    1  A    between atoms: C2_2  and  C3_3 
REMARK    2  A    between atoms: C2_2  and  C17_20 
REMARK    3  A    between atoms: C3_3  and  O1_4 
REMARK    4  A    between atoms: O1_4  and  C4_5 
REMARK    5  A    between atoms: C9_10  and  O2_11 
REMARK    6  A    between atoms: O2_11  and  C10_12 
REMARK    7  A    between atoms: C10_12  and  C11_13 
REMARK    8  A    between atoms: C17_20  and  N1_21 
ROOT
HETATM    1  C4  UNL     1      25.374   2.712  50.696  1.00  0.00     0.102 A 
HETATM    2  C5  UNL     1      26.316   3.604  50.234  1.00  0.00     0.039 A 
HETATM    3  C6  UNL     1      26.109   4.688  49.407  1.00  0.00     0.003 A 
HETATM    4  C7  UNL     1      24.805   4.882  49.011  1.00  0.00     0.003 A 
HETATM    5  C8  UNL     1      23.807   4.006  49.451  1.00  0.00     0.039 A 
HETATM    6  C9  UNL     1      24.049   2.940  50.272  1.00  0.00     0.102 A 
ENDROOT
BRANCH   6   7
HETATM    7  O2  UNL     1      23.128   2.046  50.741  1.00  0.00    -0.342 OA
BRANCH   7   8
HETATM    8  C10 UNL     1      22.188   2.187  51.759  1.00  0.00     0.240 C 
BRANCH   8   9
HETATM    9  C11 UNL     1      21.892   0.995  52.549  1.00  0.00     0.076 C 
HETATM   10  C12 UNL     1      20.692   0.488  52.867  1.00  0.00     0.035 C 
HETATM   11  C13 UNL     1      20.234  -0.664  53.628  1.00  0.00     0.003 C 
HETATM   12  C14 UNL     1      21.004  -1.432  54.374  1.00  0.00     0.002 C 
HETATM   13  C15 UNL     1      22.432  -1.320  54.608  1.00  0.00     0.025 C 
HETATM   14  C16 UNL     1      23.315  -0.532  54.000  1.00  0.00     0.142 C 
HETATM   15  O3  UNL     1      23.097   0.401  52.967  1.00  0.00    -0.325 OA
ENDBRANCH   8   9
ENDBRANCH   7   8
ENDBRANCH   6   7
BRANCH   1  16
HETATM   16  O1  UNL     1      25.626   1.651  51.513  1.00  0.00    -0.344 OA
BRANCH  16  17
HETATM   17  C3  UNL     1      26.883   1.183  51.872  1.00  0.00     0.211 C 
BRANCH  17  18
HETATM   18  C2  UNL     1      26.922  -0.094  52.593  1.00  0.00    -0.048 C 
HETATM   19  C1  UNL     1      26.462  -1.301  52.293  1.00  0.00     0.018 C 
BRANCH  18  20
HETATM   20  C17 UNL     1      27.627   0.115  53.896  1.00  0.00     0.151 C 
BRANCH  20  21
HETATM   21  N1  UNL     1      28.986   0.510  53.735  1.00  0.00    -0.417 N 
HETATM   22  C18 UNL     1      29.394   1.638  54.502  1.00  0.00     0.142 C 
HETATM   23  C19 UNL     1      29.926  -0.562  53.643  1.00  0.00     0.142 C 
ENDBRANCH  20  21
ENDBRANCH  18  20
ENDBRANCH  17  18
ENDBRANCH  16  17
ENDBRANCH   1  16
TORSDOF 8
ENDMDL
MODEL 5
REMARK VINA RESULT:      -6.8      1.220      1.985
REMARK  8 active torsions:
REMARK  status: ('A' for Active; 'I' for Inactive)
REMARK    1  A    between atoms: C2_2  and  C3_3 
REMARK    2  A    between atoms: C2_2  and  C17_20 
REMARK    3  A    between atoms: C3_3  and  O1_4 
REMARK    4  A    between atoms: O1_4  and  C4_5 
REMARK    5  A    between atoms: C9_10  and  O2_11 
REMARK    6  A    between atoms: O2_11  and  C10_12 
REMARK    7  A    between atoms: C10_12  and  C11_13 
REMARK    8  A    between atoms: C17_20  and  N1_21 
ROOT
HETATM    1  C4  UNL     1      23.136   0.161  52.921  1.00  0.00     0.102 A 
HETATM    2  C5  UNL     1      22.595  -0.880  53.642  1.00  0.00     0.039 A 
HETATM    3  C6  UNL     1      21.349  -0.933  54.230  1.00  0.00     0.003 A 
HETATM    4  C7  UNL     1      20.575   0.193  54.066  1.00  0.00     0.003 A 
HETATM    5  C8  UNL     1      21.075   1.281  53.341  1.00  0.00     0.039 A 
HETATM    6  C9  UNL     1      22.317   1.298  52.771  1.00  0.00     0.102 A 
ENDROOT
BRANCH   6   7
HETATM    7  O2  UNL     1      22.869   2.320  52.052  1.00  0.00    -0.342 OA
BRANCH   7   8
HETATM    8  C10 UNL     1      22.857   2.552  50.679  1.00  0.00     0.240 C 
BRANCH   8   9
HETATM    9  C11 UNL     1      24.027   3.220  50.116  1.00  0.00     0.076 C 
HETATM   10  C12 UNL     1      25.314   2.854  50.203  1.00  0.00     0.035 C 
HETATM   11  C13 UNL     1      26.571   3.395  49.711  1.00  0.00     0.003 C 
HETATM   12  C14 UNL     1      26.716   4.580  49.152  1.00  0.00     0.002 C 
HETATM   13  C15 UNL     1      25.704   5.589  48.901  1.00  0.00     0.025 C 
HETATM   14  C16 UNL     1      24.382   5.487  49.021  1.00  0.00     0.142 C 
HETATM   15  O3  UNL     1      23.618   4.374  49.421  1.00  0.00    -0.325 OA
ENDBRANCH   8   9
ENDBRANCH   7   8
ENDBRANCH   6   7
BRANCH   1  16
HETATM   16  O1  UNL     1      24.376   0.169  52.358  1.00  0.00    -0.344 OA
BRANCH  16  17
HETATM   17  C3  UNL     1      25.567  -0.131  53.007  1.00  0.00     0.211 C 
BRANCH  17  18
HETATM   18  C2  UNL     1      26.178   0.953  53.784  1.00  0.00    -0.048 C 
HETATM   19  C1  UNL     1      25.930   2.253  53.846  1.00  0.00     0.018 C 
BRANCH  18  20
HETATM   20  C17 UNL     1      27.273   0.378  54.625  1.00  0.00     0.151 C 
BRANCH  20  21
HETATM   21  N1  UNL     1      28.551   0.452  53.999  1.00  0.00    -0.417 N 
HETATM   22  C18 UNL     1      29.366   1.551  54.392  1.00  0.00     0.142 C 
HETATM   23  C19 UNL     1      29.221  -0.799  53.829  1.00  0.00     0.142 C 
ENDBRANCH  20  21
ENDBRANCH  18  20
ENDBRANCH  17  18
ENDBRANCH  16  17
ENDBRANCH   1  16
TORSDOF 8
ENDMDL
MODEL 6
REMARK VINA RESULT:      -6.8      2.054      6.525
REMARK  8 active torsions:
REMARK  status: ('A' for Active; 'I' for Inactive)
REMARK    1  A    between atoms: C2_2  and  C3_3 
REMARK    2  A    between atoms: C2_2  and  C17_20 
REMARK    3  A    between atoms: C3_3  and  O1_4 
REMARK    4  A    between atoms: O1_4  and  C4_5 
REMARK    5  A    between atoms: C9_10  and  O2_11 
REMARK    6  A    between atoms: O2_11  and  C10_12 
REMARK    7  A    between atoms: C10_12  and  C11_13 
REMARK    8  A    between atoms: C17_20  and  N1_21 
ROOT
HETATM    1  C4  UNL     1      24.453   3.630  51.050  1.00  0.00     0.102 A 
HETATM    2  C5  UNL     1      24.673   4.677  50.182  1.00  0.00     0.039 A 
HETATM    3  C6  UNL     1      25.762   4.867  49.358  1.00  0.00     0.003 A 
HETATM    4  C7  UNL     1      26.726   3.887  49.426  1.00  0.00     0.003 A 
HETATM    5  C8  UNL     1      26.554   2.800  50.290  1.00  0.00     0.039 A 
HETATM    6  C9  UNL     1      25.459   2.644  51.095  1.00  0.00     0.102 A 
ENDROOT
BRANCH   6   7
HETATM    7  O2  UNL     1      25.224   1.614  51.960  1.00  0.00    -0.342 OA
BRANCH   7   8
HETATM    8  C10 UNL     1      25.895   1.259  53.127  1.00  0.00     0.240 C 
BRANCH   8   9
HETATM    9  C11 UNL     1      26.837   0.147  53.031  1.00  0.00     0.076 C 
HETATM   10  C12 UNL     1      26.578  -1.136  52.739  1.00  0.00     0.035 C 
HETATM   11  C13 UNL     1      27.383  -2.341  52.606  1.00  0.00     0.003 C 
HETATM   12  C14 UNL     1      28.653  -2.442  52.945  1.00  0.00     0.002 C 
HETATM   13  C15 UNL     1      29.520  -1.425  53.509  1.00  0.00     0.025 C 
HETATM   14  C16 UNL     1      29.286  -0.122  53.655  1.00  0.00     0.142 C 
HETATM   15  O3  UNL     1      28.138   0.611  53.300  1.00  0.00    -0.325 OA
ENDBRANCH   8   9
ENDBRANCH   7   8
ENDBRANCH   6   7
BRANCH   1  16
HETATM   16  O1  UNL     1      23.359   3.486  51.849  1.00  0.00    -0.344 OA
BRANCH  16  17
HETATM   17  C3  UNL     1      22.090   3.108  51.429  1.00  0.00     0.211 C 
BRANCH  17  18
HETATM   18  C2  UNL     1      21.807   1.669  51.420  1.00  0.00    -0.048 C 
HETATM   19  C1  UNL     1      21.558   0.817  50.436  1.00  0.00     0.018 C 
BRANCH  18  20
HETATM   20  C17 UNL     1      21.822   1.171  52.831  1.00  0.00     0.151 C 
BRANCH  20  21
HETATM   21  N1  UNL     1      21.433  -0.195  52.942  1.00  0.00    -0.417 N 
HETATM   22  C18 UNL     1      22.451  -1.092  53.372  1.00  0.00     0.142 C 
HETATM   23  C19 UNL     1      20.129  -0.415  53.485  1.00  0.00     0.142 C 
ENDBRANCH  20  21
ENDBRANCH  18  20
ENDBRANCH  17  18
ENDBRANCH  16  17
ENDBRANCH   1  16
TORSDOF 8
ENDMDL
MODEL 7
REMARK VINA RESULT:      -6.8      2.042      6.415
REMARK  8 active torsions:
REMARK  status: ('A' for Active; 'I' for Inactive)
REMARK    1  A    between atoms: C2_2  and  C3_3 
REMARK    2  A    between atoms: C2_2  and  C17_20 
REMARK    3  A    between atoms: C3_3  and  O1_4 
REMARK    4  A    between atoms: O1_4  and  C4_5 
REMARK    5  A    between atoms: C9_10  and  O2_11 
REMARK    6  A    between atoms: O2_11  and  C10_12 
REMARK    7  A    between atoms: C10_12  and  C11_13 
REMARK    8  A    between atoms: C17_20  and  N1_21 
ROOT
HETATM    1  C4  UNL     1      26.986   1.914  52.891  1.00  0.00     0.102 A 
HETATM    2  C5  UNL     1      28.228   2.390  53.252  1.00  0.00     0.039 A 
HETATM    3  C6  UNL     1      29.129   1.806  54.118  1.00  0.00     0.003 A 
HETATM    4  C7  UNL     1      28.721   0.615  54.673  1.00  0.00     0.003 A 
HETATM    5  C8  UNL     1      27.469   0.085  54.341  1.00  0.00     0.039 A 
HETATM    6  C9  UNL     1      26.600   0.692  53.478  1.00  0.00     0.102 A 
ENDROOT
BRANCH   6   7
HETATM    7  O2  UNL     1      25.367   0.236  53.108  1.00  0.00    -0.342 OA
BRANCH   7   8
HETATM    8  C10 UNL     1      24.405  -0.439  53.856  1.00  0.00     0.240 C 
BRANCH   8   9
HETATM    9  C11 UNL     1      23.011  -0.232  53.473  1.00  0.00     0.076 C 
HETATM   10  C12 UNL     1      21.906  -0.646  54.109  1.00  0.00     0.035 C 
HETATM   11  C13 UNL     1      20.476  -0.526  53.867  1.00  0.00     0.003 C 
HETATM   12  C14 UNL     1      19.934  -0.070  52.755  1.00  0.00     0.002 C 
HETATM   13  C15 UNL     1      20.599   0.402  51.556  1.00  0.00     0.025 C 
HETATM   14  C16 UNL     1      21.894   0.642  51.363  1.00  0.00     0.142 C 
HETATM   15  O3  UNL     1      22.959   0.502  52.274  1.00  0.00    -0.325 OA
ENDBRANCH   8   9
ENDBRANCH   7   8
ENDBRANCH   6   7
BRANCH   1  16
HETATM   16  O1  UNL     1      26.127   2.528  52.031  1.00  0.00    -0.344 OA
BRANCH  16  17
HETATM   17  C3  UNL     1      26.214   2.512  50.645  1.00  0.00     0.211 C 
BRANCH  17  18
HETATM   18  C2  UNL     1      26.277   3.818  49.980  1.00  0.00    -0.048 C 
HETATM   19  C1  UNL     1      27.120   4.327  49.093  1.00  0.00     0.018 C 
BRANCH  18  20
HETATM   20  C17 UNL     1      25.136   4.655  50.466  1.00  0.00     0.151 C 
BRANCH  20  21
HETATM   21  N1  UNL     1      23.864   4.134  50.088  1.00  0.00    -0.417 N 
HETATM   22  C18 UNL     1      22.860   4.171  51.096  1.00  0.00     0.142 C 
HETATM   23  C19 UNL     1      23.440   4.462  48.764  1.00  0.00     0.142 C 
ENDBRANCH  20  21
ENDBRANCH  18  20
ENDBRANCH  17  18
ENDBRANCH  16  17
ENDBRANCH   1  16
TORSDOF 8
ENDMDL
MODEL 8
REMARK VINA RESULT:      -6.5      2.456      5.412
REMARK  8 active torsions:
REMARK  status: ('A' for Active; 'I' for Inactive)
REMARK    1  A    between atoms: C2_2  and  C3_3 
REMARK    2  A    between atoms: C2_2  and  C17_20 
REMARK    3  A    between atoms: C3_3  and  O1_4 
REMARK    4  A    between atoms: O1_4  and  C4_5 
REMARK    5  A    between atoms: C9_10  and  O2_11 
REMARK    6  A    between atoms: O2_11  and  C10_12 
REMARK    7  A    between atoms: C10_12  and  C11_13 
REMARK    8  A    between atoms: C17_20  and  N1_21 
ROOT
HETATM    1  C4  UNL     1      21.441   0.839  53.232  1.00  0.00     0.102 A 
HETATM    2  C5  UNL     1      20.467  -0.060  53.606  1.00  0.00     0.039 A 
HETATM    3  C6  UNL     1      20.649  -1.316  54.144  1.00  0.00     0.003 A 
HETATM    4  C7  UNL     1      21.961  -1.694  54.319  1.00  0.00     0.003 A 
HETATM    5  C8  UNL     1      22.991  -0.819  53.957  1.00  0.00     0.039 A 
HETATM    6  C9  UNL     1      22.773   0.421  53.425  1.00  0.00     0.102 A 
ENDROOT
BRANCH   6   7
HETATM    7  O2  UNL     1      23.725   1.326  53.049  1.00  0.00    -0.342 OA
BRANCH   7   8
HETATM    8  C10 UNL     1      24.777   1.189  52.146  1.00  0.00     0.240 C 
BRANCH   8   9
HETATM    9  C11 UNL     1      26.119   1.086  52.712  1.00  0.00     0.076 C 
HETATM   10  C12 UNL     1      26.978   2.076  52.997  1.00  0.00     0.035 C 
HETATM   11  C13 UNL     1      28.321   2.142  53.551  1.00  0.00     0.003 C 
HETATM   12  C14 UNL     1      29.107   1.102  53.754  1.00  0.00     0.002 C 
HETATM   13  C15 UNL     1      28.836  -0.298  53.487  1.00  0.00     0.025 C 
HETATM   14  C16 UNL     1      27.686  -0.871  53.139  1.00  0.00     0.142 C 
HETATM   15  O3  UNL     1      26.428  -0.268  52.939  1.00  0.00    -0.325 OA
ENDBRANCH   8   9
ENDBRANCH   7   8
ENDBRANCH   6   7
BRANCH   1  16
HETATM   16  O1  UNL     1      21.213   2.073  52.701  1.00  0.00    -0.344 OA
BRANCH  16  17
HETATM   17  C3  UNL     1      20.572   2.334  51.497  1.00  0.00     0.211 C 
BRANCH  17  18
HETATM   18  C2  UNL     1      21.419   2.363  50.299  1.00  0.00    -0.048 C 
HETATM   19  C1  UNL     1      22.019   1.404  49.609  1.00  0.00     0.018 C 
BRANCH  18  20
HETATM   20  C17 UNL     1      21.575   3.785  49.860  1.00  0.00     0.151 C 
BRANCH  20  21
HETATM   21  N1  UNL     1      22.228   4.598  50.831  1.00  0.00    -0.417 N 
HETATM   22  C18 UNL     1      23.650   4.510  50.850  1.00  0.00     0.142 C 
HETATM   23  C19 UNL     1      21.676   5.904  51.005  1.00  0.00     0.142 C 
ENDBRANCH  20  21
ENDBRANCH  18  20
ENDBRANCH  17  18
ENDBRANCH  16  17
ENDBRANCH   1  16
TORSDOF 8
ENDMDL
MODEL 9
REMARK VINA RESULT:      -6.4      2.434      6.368
REMARK  8 active torsions:
REMARK  status: ('A' for Active; 'I' for Inactive)
REMARK    1  A    between atoms: C2_2  and  C3_3 
REMARK    2  A    between atoms: C2_2  and  C17_20 
REMARK    3  A    between atoms: C3_3  and  O1_4 
REMARK    4  A    between atoms: O1_4  and  C4_5 
REMARK    5  A    between atoms: C9_10  and  O2_11 
REMARK    6  A    between atoms: O2_11  and  C10_12 
REMARK    7  A    between atoms: C10_12  and  C11_13 
REMARK    8  A    between atoms: C17_20  and  N1_21 
ROOT
HETATM    1  C4  UNL     1      26.101   1.060  52.582  1.00  0.00     0.102 A 
HETATM    2  C5  UNL     1      27.478   1.090  52.566  1.00  0.00     0.039 A 
HETATM    3  C6  UNL     1      28.336   0.651  53.552  1.00  0.00     0.003 A 
HETATM    4  C7  UNL     1      27.727   0.126  54.669  1.00  0.00     0.003 A 
HETATM    5  C8  UNL     1      26.330   0.070  54.737  1.00  0.00     0.039 A 
HETATM    6  C9  UNL     1      25.509   0.515  53.740  1.00  0.00     0.102 A 
ENDROOT
BRANCH   6   7
HETATM    7  O2  UNL     1      24.143   0.492  53.737  1.00  0.00    -0.342 OA
BRANCH   7   8
HETATM    8  C10 UNL     1      23.271  -0.583  53.588  1.00  0.00     0.240 C 
BRANCH   8   9
HETATM    9  C11 UNL     1      22.048  -0.336  52.829  1.00  0.00     0.076 C 
HETATM   10  C12 UNL     1      21.911   0.317  51.666  1.00  0.00     0.035 C 
HETATM   11  C13 UNL     1      20.790   0.643  50.797  1.00  0.00     0.003 C 
HETATM   12  C14 UNL     1      19.519   0.476  51.108  1.00  0.00     0.002 C 
HETATM   13  C15 UNL     1      18.954  -0.051  52.336  1.00  0.00     0.025 C 
HETATM   14  C16 UNL     1      19.579  -0.637  53.355  1.00  0.00     0.142 C 
HETATM   15  O3  UNL     1      20.953  -0.903  53.508  1.00  0.00    -0.325 OA
ENDBRANCH   8   9
ENDBRANCH   7   8
ENDBRANCH   6   7
BRANCH   1  16
HETATM   16  O1  UNL     1      25.291   1.508  51.582  1.00  0.00    -0.344 OA
BRANCH  16  17
HETATM   17  C3  UNL     1      25.275   2.797  51.065  1.00  0.00     0.211 C 
BRANCH  17  18
HETATM   18  C2  UNL     1      24.026   3.228  50.428  1.00  0.00    -0.048 C 
HETATM   19  C1  UNL     1      23.530   3.031  49.215  1.00  0.00     0.018 C 
BRANCH  18  20
HETATM   20  C17 UNL     1      23.242   4.036  51.414  1.00  0.00     0.151 C 
BRANCH  20  21
HETATM   21  N1  UNL     1      22.979   5.361  50.962  1.00  0.00    -0.417 N 
HETATM   22  C18 UNL     1      21.659   5.841  51.197  1.00  0.00     0.142 C 
HETATM   23  C19 UNL     1      24.037   6.299  51.175  1.00  0.00     0.142 C 
ENDBRANCH  20  21
ENDBRANCH  18  20
ENDBRANCH  17  18
ENDBRANCH  16  17
ENDBRANCH   1  16
TORSDOF 8
ENDMDL
