MODEL 1
REMARK VINA RESULT:      -9.1      0.000      0.000
REMARK  7 active torsions:
REMARK  status: ('A' for Active; 'I' for Inactive)
REMARK    1  A    between atoms: N1_1  and  C1_2 
REMARK    2  A    between atoms: N2_7  and  C6_8 
REMARK    3  A    between atoms: C6_8  and  C7_9 
REMARK    4  A    between atoms: C7_9  and  C8_10 
REMARK    5  A    between atoms: C8_10  and  C9_11 
REMARK       I    between atoms: C9_11  and  N3_13 
REMARK    6  A    between atoms: N3_13  and  C10_14 
REMARK    7  A    between atoms: C13_17  and  C14_18 
ROOT
HETATM    1  C10 UNL     1      22.855   1.419  51.819  1.00  0.00     0.130 A 
HETATM    2  C11 UNL     1      23.845   0.808  52.553  1.00  0.00     0.066 A 
HETATM    3  C12 UNL     1      23.552  -0.008  53.600  1.00  0.00     0.027 A 
HETATM    4  C13 UNL     1      24.638  -0.541  54.256  1.00  0.00     0.081 A 
HETATM    5  N4  UNL     1      24.368  -1.336  55.309  1.00  0.00    -0.240 NA
HETATM    6  C20 UNL     1      23.078  -1.582  55.683  1.00  0.00     0.234 A 
HETATM    7  N5  UNL     1      22.036  -1.034  55.002  1.00  0.00    -0.240 NA
HETATM    8  C21 UNL     1      22.240  -0.231  53.943  1.00  0.00     0.088 A 
HETATM    9  C22 UNL     1      21.251   0.383  53.206  1.00  0.00     0.151 A 
HETATM   10  N6  UNL     1      21.576   1.184  52.173  1.00  0.00    -0.241 NA
ENDROOT
BRANCH   1  11
HETATM   11  N3  UNL     1      23.172   2.273  50.733  1.00  0.00    -0.312 N 
HETATM   12  C9  UNL     1      22.687   2.136  49.423  1.00  0.00     0.223 C 
HETATM   13  O1  UNL     1      21.887   1.171  49.148  1.00  0.00    -0.273 OA
HETATM   14  H18 UNL     1      23.829   3.092  50.904  1.00  0.00     0.170 HD
BRANCH  12  15
HETATM   15  C8  UNL     1      23.013   3.013  48.315  1.00  0.00     0.105 C 
BRANCH  15  16
HETATM   16  C7  UNL     1      22.600   4.449  48.460  1.00  0.00     0.040 C 
BRANCH  16  17
HETATM   17  C6  UNL     1      23.818   5.208  48.932  1.00  0.00     0.275 C 
BRANCH  17  18
HETATM   18  N2  UNL     1      23.579   5.690  50.268  1.00  0.00     0.121 N 
HETATM   19  C1  UNL     1      24.386   6.835  50.619  1.00  0.00     0.451 C 
HETATM   20  C2  UNL     1      23.948   8.138  50.010  1.00  0.00     0.068 C 
HETATM   21  C3  UNL     1      22.485   8.289  49.784  1.00  0.00     0.006 C 
HETATM   22  C4  UNL     1      21.783   7.349  50.724  1.00  0.00     0.030 C 
HETATM   23  C5  UNL     1      22.173   5.935  50.522  1.00  0.00     0.275 C 
BRANCH  19  24
HETATM   24  N1  UNL     1      24.447   6.930  52.060  1.00  0.00     0.112 N 
HETATM   25  H1  UNL     1      24.994   6.112  52.405  1.00  0.00     0.315 HD
HETATM   26  H2  UNL     1      23.460   6.914  52.440  1.00  0.00     0.315 HD
ENDBRANCH  19  24
ENDBRANCH  17  18
ENDBRANCH  16  17
ENDBRANCH  15  16
ENDBRANCH  12  15
ENDBRANCH   1  11
BRANCH   4  27
HETATM   27  C14 UNL     1      26.042  -0.381  53.999  1.00  0.00    -0.005 A 
HETATM   28  C15 UNL     1      26.622  -1.429  53.274  1.00  0.00     0.017 A 
HETATM   29  C16 UNL     1      27.971  -1.461  52.906  1.00  0.00     0.045 A 
HETATM   30  C17 UNL     1      28.769  -0.400  53.282  1.00  0.00     0.138 A 
HETATM   31  F1  UNL     1      30.083  -0.408  52.934  1.00  0.00    -0.204 F 
HETATM   32  C18 UNL     1      28.218   0.641  53.996  1.00  0.00     0.073 A 
HETATM   33 CL1  UNL     1      29.213   2.006  54.493  1.00  0.00    -0.081 Cl
HETATM   34  C19 UNL     1      26.883   0.650  54.347  1.00  0.00     0.041 A 
ENDBRANCH   4  27
TORSDOF 7
ENDMDL
MODEL 2
REMARK VINA RESULT:      -9.1      1.509      1.830
REMARK  7 active torsions:
REMARK  status: ('A' for Active; 'I' for Inactive)
REMARK    1  A    between atoms: N1_1  and  C1_2 
REMARK    2  A    between atoms: N2_7  and  C6_8 
REMARK    3  A    between atoms: C6_8  and  C7_9 
REMARK    4  A    between atoms: C7_9  and  C8_10 
REMARK    5  A    between atoms: C8_10  and  C9_11 
REMARK       I    between atoms: C9_11  and  N3_13 
REMARK    6  A    between atoms: N3_13  and  C10_14 
REMARK    7  A    between atoms: C13_17  and  C14_18 
ROOT
HETATM    1  C10 UNL     1      23.331   1.330  51.590  1.00  0.00     0.130 A 
HETATM    2  C11 UNL     1      24.282   0.765  52.409  1.00  0.00     0.066 A 
HETATM    3  C12 UNL     1      23.934  -0.001  53.477  1.00  0.00     0.027 A 
HETATM    4  C13 UNL     1      24.984  -0.491  54.220  1.00  0.00     0.081 A 
HETATM    5  N4  UNL     1      24.659  -1.235  55.295  1.00  0.00    -0.240 NA
HETATM    6  C20 UNL     1      23.350  -1.473  55.606  1.00  0.00     0.234 A 
HETATM    7  N5  UNL     1      22.346  -0.969  54.841  1.00  0.00    -0.240 NA
HETATM    8  C21 UNL     1      22.606  -0.218  53.756  1.00  0.00     0.088 A 
HETATM    9  C22 UNL     1      21.657   0.350  52.934  1.00  0.00     0.151 A 
HETATM   10  N6  UNL     1      22.036   1.101  51.883  1.00  0.00    -0.241 NA
ENDROOT
BRANCH   1  11
HETATM   11  N3  UNL     1      23.706   2.131  50.483  1.00  0.00    -0.312 N 
HETATM   12  C9  UNL     1      23.852   3.527  50.502  1.00  0.00     0.223 C 
HETATM   13  O1  UNL     1      23.639   4.165  51.595  1.00  0.00    -0.273 OA
HETATM   14  H18 UNL     1      23.899   1.654  49.552  1.00  0.00     0.170 HD
BRANCH  12  15
HETATM   15  C8  UNL     1      24.237   4.342  49.366  1.00  0.00     0.105 C 
BRANCH  15  16
HETATM   16  C7  UNL     1      25.706   4.601  49.202  1.00  0.00     0.040 C 
BRANCH  16  17
HETATM   17  C6  UNL     1      25.844   5.998  48.642  1.00  0.00     0.275 C 
BRANCH  17  18
HETATM   18  N2  UNL     1      24.908   6.864  49.311  1.00  0.00     0.121 N 
HETATM   19  C1  UNL     1      25.430   7.442  50.528  1.00  0.00     0.451 C 
HETATM   20  C2  UNL     1      26.414   8.561  50.333  1.00  0.00     0.068 C 
HETATM   21  C3  UNL     1      26.205   9.408  49.127  1.00  0.00     0.006 C 
HETATM   22  C4  UNL     1      24.762   9.277  48.727  1.00  0.00     0.030 C 
HETATM   23  C5  UNL     1      24.371   7.881  48.429  1.00  0.00     0.275 C 
BRANCH  19  24
HETATM   24  N1  UNL     1      24.318   7.865  51.349  1.00  0.00     0.112 N 
HETATM   25  H1  UNL     1      24.349   8.905  51.409  1.00  0.00     0.315 HD
HETATM   26  H2  UNL     1      24.421   7.425  52.306  1.00  0.00     0.315 HD
ENDBRANCH  19  24
ENDBRANCH  17  18
ENDBRANCH  16  17
ENDBRANCH  15  16
ENDBRANCH  12  15
ENDBRANCH   1  11
BRANCH   4  27
HETATM   27  C14 UNL     1      26.399  -0.332  54.036  1.00  0.00    -0.005 A 
HETATM   28  C15 UNL     1      27.017  -1.386  53.351  1.00  0.00     0.017 A 
HETATM   29  C16 UNL     1      28.384  -1.419  53.055  1.00  0.00     0.045 A 
HETATM   30  C17 UNL     1      29.160  -0.354  53.463  1.00  0.00     0.138 A 
HETATM   31  F1  UNL     1      30.491  -0.364  53.184  1.00  0.00    -0.204 F 
HETATM   32  C18 UNL     1      28.572   0.692  54.138  1.00  0.00     0.073 A 
HETATM   33 CL1  UNL     1      29.539   2.063  54.675  1.00  0.00    -0.081 Cl
HETATM   34  C19 UNL     1      27.220   0.703  54.418  1.00  0.00     0.041 A 
ENDBRANCH   4  27
TORSDOF 7
ENDMDL
MODEL 3
REMARK VINA RESULT:      -9.1      5.481      6.924
REMARK  7 active torsions:
REMARK  status: ('A' for Active; 'I' for Inactive)
REMARK    1  A    between atoms: N1_1  and  C1_2 
REMARK    2  A    between atoms: N2_7  and  C6_8 
REMARK    3  A    between atoms: C6_8  and  C7_9 
REMARK    4  A    between atoms: C7_9  and  C8_10 
REMARK    5  A    between atoms: C8_10  and  C9_11 
REMARK       I    between atoms: C9_11  and  N3_13 
REMARK    6  A    between atoms: N3_13  and  C10_14 
REMARK    7  A    between atoms: C13_17  and  C14_18 
ROOT
HETATM    1  C10 UNL     1      26.259   4.339  49.329  1.00  0.00     0.130 A 
HETATM    2  C11 UNL     1      26.230   3.460  50.387  1.00  0.00     0.066 A 
HETATM    3  C12 UNL     1      25.068   3.151  51.021  1.00  0.00     0.027 A 
HETATM    4  C13 UNL     1      25.184   2.270  52.073  1.00  0.00     0.081 A 
HETATM    5  N4  UNL     1      24.046   1.969  52.727  1.00  0.00    -0.240 NA
HETATM    6  C20 UNL     1      22.856   2.521  52.345  1.00  0.00     0.234 A 
HETATM    7  N5  UNL     1      22.790   3.386  51.298  1.00  0.00    -0.240 NA
HETATM    8  C21 UNL     1      23.891   3.728  50.606  1.00  0.00     0.088 A 
HETATM    9  C22 UNL     1      23.925   4.608  49.547  1.00  0.00     0.151 A 
HETATM   10  N6  UNL     1      25.093   4.890  48.939  1.00  0.00    -0.241 NA
ENDROOT
BRANCH   1  11
HETATM   11  N3  UNL     1      27.478   4.657  48.679  1.00  0.00    -0.312 N 
HETATM   12  C9  UNL     1      27.970   5.954  48.467  1.00  0.00     0.223 C 
HETATM   13  O1  UNL     1      27.290   6.960  48.882  1.00  0.00    -0.273 OA
HETATM   14  H18 UNL     1      28.085   3.862  48.317  1.00  0.00     0.170 HD
BRANCH  12  15
HETATM   15  C8  UNL     1      29.220   6.275  47.802  1.00  0.00     0.105 C 
BRANCH  15  16
HETATM   16  C7  UNL     1      30.474   5.822  48.491  1.00  0.00     0.040 C 
BRANCH  16  17
HETATM   17  C6  UNL     1      31.198   4.913  47.525  1.00  0.00     0.275 C 
BRANCH  17  18
HETATM   18  N2  UNL     1      32.374   4.388  48.169  1.00  0.00     0.121 N 
HETATM   19  C1  UNL     1      32.897   3.202  47.533  1.00  0.00     0.451 C 
HETATM   20  C2  UNL     1      33.638   3.440  46.247  1.00  0.00     0.068 C 
HETATM   21  C3  UNL     1      34.370   4.731  46.149  1.00  0.00     0.006 C 
HETATM   22  C4  UNL     1      34.639   5.206  47.550  1.00  0.00     0.030 C 
HETATM   23  C5  UNL     1      33.402   5.394  48.342  1.00  0.00     0.275 C 
BRANCH  19  24
HETATM   24  N1  UNL     1      33.723   2.495  48.486  1.00  0.00     0.112 N 
HETATM   25  H1  UNL     1      33.885   1.537  48.110  1.00  0.00     0.315 HD
HETATM   26  H2  UNL     1      33.211   2.459  49.411  1.00  0.00     0.315 HD
ENDBRANCH  19  24
ENDBRANCH  17  18
ENDBRANCH  16  17
ENDBRANCH  15  16
ENDBRANCH  12  15
ENDBRANCH   1  11
BRANCH   4  27
HETATM   27  C14 UNL     1      26.344   1.611  52.600  1.00  0.00    -0.005 A 
HETATM   28  C15 UNL     1      26.422   0.245  52.300  1.00  0.00     0.017 A 
HETATM   29  C16 UNL     1      27.479  -0.577  52.707  1.00  0.00     0.045 A 
HETATM   30  C17 UNL     1      28.496  -0.005  53.443  1.00  0.00     0.138 A 
HETATM   31  F1  UNL     1      29.534  -0.785  53.847  1.00  0.00    -0.204 F 
HETATM   32  C18 UNL     1      28.439   1.336  53.749  1.00  0.00     0.073 A 
HETATM   33 CL1  UNL     1      29.721   2.091  54.691  1.00  0.00    -0.081 Cl
HETATM   34  C19 UNL     1      27.385   2.127  53.336  1.00  0.00     0.041 A 
ENDBRANCH   4  27
TORSDOF 7
ENDMDL
MODEL 4
REMARK VINA RESULT:      -9.0      4.061      4.822
REMARK  7 active torsions:
REMARK  status: ('A' for Active; 'I' for Inactive)
REMARK    1  A    between atoms: N1_1  and  C1_2 
REMARK    2  A    between atoms: N2_7  and  C6_8 
REMARK    3  A    between atoms: C6_8  and  C7_9 
REMARK    4  A    between atoms: C7_9  and  C8_10 
REMARK    5  A    between atoms: C8_10  and  C9_11 
REMARK       I    between atoms: C9_11  and  N3_13 
REMARK    6  A    between atoms: N3_13  and  C10_14 
REMARK    7  A    between atoms: C13_17  and  C14_18 
ROOT
HETATM    1  C10 UNL     1      24.608   2.966  50.232  1.00  0.00     0.130 A 
HETATM    2  C11 UNL     1      25.080   2.107  51.197  1.00  0.00     0.066 A 
HETATM    3  C12 UNL     1      24.235   1.361  51.957  1.00  0.00     0.027 A 
HETATM    4  C13 UNL     1      24.840   0.555  52.895  1.00  0.00     0.081 A 
HETATM    5  N4  UNL     1      24.019  -0.176  53.673  1.00  0.00    -0.240 NA
HETATM    6  C20 UNL     1      22.664  -0.103  53.516  1.00  0.00     0.234 A 
HETATM    7  N5  UNL     1      22.111   0.707  52.574  1.00  0.00    -0.240 NA
HETATM    8  C21 UNL     1      22.878   1.463  51.768  1.00  0.00     0.088 A 
HETATM    9  C22 UNL     1      22.409   2.325  50.801  1.00  0.00     0.151 A 
HETATM   10  N6  UNL     1      23.273   3.048  50.064  1.00  0.00    -0.241 NA
ENDROOT
BRANCH   1  11
HETATM   11  N3  UNL     1      25.497   3.743  49.448  1.00  0.00    -0.312 N 
HETATM   12  C9  UNL     1      25.717   5.121  49.596  1.00  0.00     0.223 C 
HETATM   13  O1  UNL     1      25.080   5.765  50.505  1.00  0.00    -0.273 OA
HETATM   14  H18 UNL     1      26.055   3.261  48.682  1.00  0.00     0.170 HD
BRANCH  12  15
HETATM   15  C8  UNL     1      26.631   5.912  48.793  1.00  0.00     0.105 C 
BRANCH  15  16
HETATM   16  C7  UNL     1      27.991   5.323  48.558  1.00  0.00     0.040 C 
BRANCH  16  17
HETATM   17  C6  UNL     1      28.813   6.383  47.863  1.00  0.00     0.275 C 
BRANCH  17  18
HETATM   18  N2  UNL     1      29.867   6.811  48.747  1.00  0.00     0.121 N 
HETATM   19  C1  UNL     1      30.945   5.857  48.859  1.00  0.00     0.451 C 
HETATM   20  C2  UNL     1      31.877   5.803  47.681  1.00  0.00     0.068 C 
HETATM   21  C3  UNL     1      32.080   7.086  46.955  1.00  0.00     0.006 C 
HETATM   22  C4  UNL     1      31.749   8.202  47.906  1.00  0.00     0.030 C 
HETATM   23  C5  UNL     1      30.360   8.132  48.415  1.00  0.00     0.275 C 
BRANCH  19  24
HETATM   24  N1  UNL     1      31.667   6.123  50.082  1.00  0.00     0.112 N 
HETATM   25  H1  UNL     1      32.233   5.276  50.304  1.00  0.00     0.315 HD
HETATM   26  H2  UNL     1      30.966   6.323  50.850  1.00  0.00     0.315 HD
ENDBRANCH  19  24
ENDBRANCH  17  18
ENDBRANCH  16  17
ENDBRANCH  15  16
ENDBRANCH  12  15
ENDBRANCH   1  11
BRANCH   4  27
HETATM   27  C14 UNL     1      26.232   0.366  53.190  1.00  0.00    -0.005 A 
HETATM   28  C15 UNL     1      26.722  -0.910  52.886  1.00  0.00     0.017 A 
HETATM   29  C16 UNL     1      28.053  -1.295  53.083  1.00  0.00     0.045 A 
HETATM   30  C17 UNL     1      28.925  -0.362  53.605  1.00  0.00     0.138 A 
HETATM   31  F1  UNL     1      30.224  -0.714  53.802  1.00  0.00    -0.204 F 
HETATM   32  C18 UNL     1      28.464   0.898  53.910  1.00  0.00     0.073 A 
HETATM   33 CL1  UNL     1      29.554   2.108  54.583  1.00  0.00    -0.081 Cl
HETATM   34  C19 UNL     1      27.146   1.255  53.707  1.00  0.00     0.041 A 
ENDBRANCH   4  27
TORSDOF 7
ENDMDL
MODEL 5
REMARK VINA RESULT:      -8.9      3.993      4.842
REMARK  7 active torsions:
REMARK  status: ('A' for Active; 'I' for Inactive)
REMARK    1  A    between atoms: N1_1  and  C1_2 
REMARK    2  A    between atoms: N2_7  and  C6_8 
REMARK    3  A    between atoms: C6_8  and  C7_9 
REMARK    4  A    between atoms: C7_9  and  C8_10 
REMARK    5  A    between atoms: C8_10  and  C9_11 
REMARK       I    between atoms: C9_11  and  N3_13 
REMARK    6  A    between atoms: N3_13  and  C10_14 
REMARK    7  A    between atoms: C13_17  and  C14_18 
ROOT
HETATM    1  C10 UNL     1      25.215   3.209  49.888  1.00  0.00     0.130 A 
HETATM    2  C11 UNL     1      25.523   2.360  50.926  1.00  0.00     0.066 A 
HETATM    3  C12 UNL     1      24.553   1.746  51.653  1.00  0.00     0.027 A 
HETATM    4  C13 UNL     1      25.002   0.936  52.672  1.00  0.00     0.081 A 
HETATM    5  N4  UNL     1      24.054   0.335  53.417  1.00  0.00    -0.240 NA
HETATM    6  C20 UNL     1      22.729   0.536  53.153  1.00  0.00     0.234 A 
HETATM    7  N5  UNL     1      22.334   1.344  52.133  1.00  0.00    -0.240 NA
HETATM    8  C21 UNL     1      23.231   1.973  51.355  1.00  0.00     0.088 A 
HETATM    9  C22 UNL     1      22.926   2.824  50.315  1.00  0.00     0.151 A 
HETATM   10  N6  UNL     1      23.912   3.414  49.613  1.00  0.00    -0.241 NA
ENDROOT
BRANCH   1  11
HETATM   11  N3  UNL     1      26.235   3.849  49.140  1.00  0.00    -0.312 N 
HETATM   12  C9  UNL     1      26.515   5.223  49.159  1.00  0.00     0.223 C 
HETATM   13  O1  UNL     1      25.813   5.997  49.904  1.00  0.00    -0.273 OA
HETATM   14  H18 UNL     1      26.851   3.255  48.508  1.00  0.00     0.170 HD
BRANCH  12  15
HETATM   15  C8  UNL     1      27.562   5.873  48.394  1.00  0.00     0.105 C 
BRANCH  15  16
HETATM   16  C7  UNL     1      27.307   7.298  47.994  1.00  0.00     0.040 C 
BRANCH  16  17
HETATM   17  C6  UNL     1      28.642   7.890  47.611  1.00  0.00     0.275 C 
BRANCH  17  18
HETATM   18  N2  UNL     1      29.437   8.060  48.800  1.00  0.00     0.121 N 
HETATM   19  C1  UNL     1      30.823   7.695  48.622  1.00  0.00     0.451 C 
HETATM   20  C2  UNL     1      31.653   8.687  47.857  1.00  0.00     0.068 C 
HETATM   21  C3  UNL     1      31.266  10.115  48.013  1.00  0.00     0.006 C 
HETATM   22  C4  UNL     1      30.517  10.241  49.310  1.00  0.00     0.030 C 
HETATM   23  C5  UNL     1      29.307   9.390  49.363  1.00  0.00     0.275 C 
BRANCH  19  24
HETATM   24  N1  UNL     1      31.397   7.428  49.922  1.00  0.00     0.112 N 
HETATM   25  H1  UNL     1      31.170   8.238  50.537  1.00  0.00     0.315 HD
HETATM   26  H2  UNL     1      32.444   7.319  49.809  1.00  0.00     0.315 HD
ENDBRANCH  19  24
ENDBRANCH  17  18
ENDBRANCH  16  17
ENDBRANCH  15  16
ENDBRANCH  12  15
ENDBRANCH   1  11
BRANCH   4  27
HETATM   27  C14 UNL     1      26.341   0.626  53.083  1.00  0.00    -0.005 A 
HETATM   28  C15 UNL     1      26.748  -0.683  52.794  1.00  0.00     0.017 A 
HETATM   29  C16 UNL     1      28.019  -1.183  53.096  1.00  0.00     0.045 A 
HETATM   30  C17 UNL     1      28.916  -0.336  53.713  1.00  0.00     0.138 A 
HETATM   31  F1  UNL     1      30.159  -0.800  54.015  1.00  0.00    -0.204 F 
HETATM   32  C18 UNL     1      28.537   0.955  54.006  1.00  0.00     0.073 A 
HETATM   33 CL1  UNL     1      29.660   2.056  54.798  1.00  0.00    -0.081 Cl
HETATM   34  C19 UNL     1      27.276   1.426  53.697  1.00  0.00     0.041 A 
ENDBRANCH   4  27
TORSDOF 7
ENDMDL
MODEL 6
REMARK VINA RESULT:      -8.9      1.889      2.611
REMARK  7 active torsions:
REMARK  status: ('A' for Active; 'I' for Inactive)
REMARK    1  A    between atoms: N1_1  and  C1_2 
REMARK    2  A    between atoms: N2_7  and  C6_8 
REMARK    3  A    between atoms: C6_8  and  C7_9 
REMARK    4  A    between atoms: C7_9  and  C8_10 
REMARK    5  A    between atoms: C8_10  and  C9_11 
REMARK       I    between atoms: C9_11  and  N3_13 
REMARK    6  A    between atoms: N3_13  and  C10_14 
REMARK    7  A    between atoms: C13_17  and  C14_18 
ROOT
HETATM    1  C10 UNL     1      22.286   1.498  50.807  1.00  0.00     0.130 A 
HETATM    2  C11 UNL     1      23.225   1.052  51.710  1.00  0.00     0.066 A 
HETATM    3  C12 UNL     1      22.885   0.236  52.742  1.00  0.00     0.027 A 
HETATM    4  C13 UNL     1      23.919  -0.121  53.577  1.00  0.00     0.081 A 
HETATM    5  N4  UNL     1      23.598  -0.914  54.618  1.00  0.00    -0.240 NA
HETATM    6  C20 UNL     1      22.310  -1.326  54.808  1.00  0.00     0.234 A 
HETATM    7  N5  UNL     1      21.321  -0.949  53.954  1.00  0.00    -0.240 NA
HETATM    8  C21 UNL     1      21.578  -0.158  52.898  1.00  0.00     0.088 A 
HETATM    9  C22 UNL     1      20.641   0.291  51.992  1.00  0.00     0.151 A 
HETATM   10  N6  UNL     1      21.011   1.097  50.980  1.00  0.00    -0.241 NA
ENDROOT
BRANCH   1  11
HETATM   11  N3  UNL     1      22.651   2.354  49.738  1.00  0.00    -0.312 N 
HETATM   12  C9  UNL     1      22.238   3.687  49.588  1.00  0.00     0.223 C 
HETATM   13  O1  UNL     1      21.469   4.209  50.472  1.00  0.00    -0.273 OA
HETATM   14  H18 UNL     1      23.291   1.975  48.978  1.00  0.00     0.170 HD
BRANCH  12  15
HETATM   15  C8  UNL     1      22.615   4.560  48.493  1.00  0.00     0.105 C 
BRANCH  15  16
HETATM   16  C7  UNL     1      22.934   5.981  48.856  1.00  0.00     0.040 C 
BRANCH  16  17
HETATM   17  C6  UNL     1      24.035   6.434  47.925  1.00  0.00     0.275 C 
BRANCH  17  18
HETATM   18  N2  UNL     1      25.096   7.016  48.705  1.00  0.00     0.121 N 
HETATM   19  C1  UNL     1      25.306   6.357  49.973  1.00  0.00     0.451 C 
HETATM   20  C2  UNL     1      26.013   5.033  49.896  1.00  0.00     0.068 C 
HETATM   21  C3  UNL     1      27.010   4.892  48.800  1.00  0.00     0.006 C 
HETATM   22  C4  UNL     1      27.451   6.274  48.409  1.00  0.00     0.030 C 
HETATM   23  C5  UNL     1      26.331   7.130  47.956  1.00  0.00     0.275 C 
BRANCH  19  24
HETATM   24  N1  UNL     1      26.002   7.267  50.854  1.00  0.00     0.112 N 
HETATM   25  H1  UNL     1      25.549   8.201  50.762  1.00  0.00     0.315 HD
HETATM   26  H2  UNL     1      27.018   7.308  50.560  1.00  0.00     0.315 HD
ENDBRANCH  19  24
ENDBRANCH  17  18
ENDBRANCH  16  17
ENDBRANCH  15  16
ENDBRANCH  12  15
ENDBRANCH   1  11
BRANCH   4  27
HETATM   27  C14 UNL     1      25.311   0.224  53.524  1.00  0.00    -0.005 A 
HETATM   28  C15 UNL     1      25.572   1.597  53.627  1.00  0.00     0.017 A 
HETATM   29  C16 UNL     1      26.861   2.142  53.612  1.00  0.00     0.045 A 
HETATM   30  C17 UNL     1      27.928   1.276  53.488  1.00  0.00     0.138 A 
HETATM   31  F1  UNL     1      29.189   1.783  53.474  1.00  0.00    -0.204 F 
HETATM   32  C18 UNL     1      27.693  -0.077  53.386  1.00  0.00     0.073 A 
HETATM   33 CL1  UNL     1      29.035  -1.205  53.222  1.00  0.00    -0.081 Cl
HETATM   34  C19 UNL     1      26.411  -0.592  53.403  1.00  0.00     0.041 A 
ENDBRANCH   4  27
TORSDOF 7
ENDMDL
MODEL 7
REMARK VINA RESULT:      -8.9      2.115      2.492
REMARK  7 active torsions:
REMARK  status: ('A' for Active; 'I' for Inactive)
REMARK    1  A    between atoms: N1_1  and  C1_2 
REMARK    2  A    between atoms: N2_7  and  C6_8 
REMARK    3  A    between atoms: C6_8  and  C7_9 
REMARK    4  A    between atoms: C7_9  and  C8_10 
REMARK    5  A    between atoms: C8_10  and  C9_11 
REMARK       I    between atoms: C9_11  and  N3_13 
REMARK    6  A    between atoms: N3_13  and  C10_14 
REMARK    7  A    between atoms: C13_17  and  C14_18 
ROOT
HETATM    1  C10 UNL     1      23.218   1.753  51.307  1.00  0.00     0.130 A 
HETATM    2  C11 UNL     1      24.073   1.061  52.133  1.00  0.00     0.066 A 
HETATM    3  C12 UNL     1      23.607   0.300  53.159  1.00  0.00     0.027 A 
HETATM    4  C13 UNL     1      24.572  -0.326  53.916  1.00  0.00     0.081 A 
HETATM    5  N4  UNL     1      24.130  -1.068  54.950  1.00  0.00    -0.240 NA
HETATM    6  C20 UNL     1      22.793  -1.176  55.208  1.00  0.00     0.234 A 
HETATM    7  N5  UNL     1      21.876  -0.540  54.431  1.00  0.00    -0.240 NA
HETATM    8  C21 UNL     1      22.254   0.216  53.386  1.00  0.00     0.088 A 
HETATM    9  C22 UNL     1      21.402   0.912  52.556  1.00  0.00     0.151 A 
HETATM   10  N6  UNL     1      21.897   1.655  51.547  1.00  0.00    -0.241 NA
ENDROOT
BRANCH   1  11
HETATM   11  N3  UNL     1      23.716   2.548  50.244  1.00  0.00    -0.312 N 
HETATM   12  C9  UNL     1      24.172   3.870  50.362  1.00  0.00     0.223 C 
HETATM   13  O1  UNL     1      24.154   4.439  51.512  1.00  0.00    -0.273 OA
HETATM   14  H18 UNL     1      23.757   2.126  49.268  1.00  0.00     0.170 HD
BRANCH  12  15
HETATM   15  C8  UNL     1      24.682   4.679  49.272  1.00  0.00     0.105 C 
BRANCH  15  16
HETATM   16  C7  UNL     1      26.165   4.915  49.256  1.00  0.00     0.040 C 
BRANCH  16  17
HETATM   17  C6  UNL     1      26.397   6.185  48.471  1.00  0.00     0.275 C 
BRANCH  17  18
HETATM   18  N2  UNL     1      26.991   7.169  49.339  1.00  0.00     0.121 N 
HETATM   19  C1  UNL     1      27.882   8.075  48.654  1.00  0.00     0.451 C 
HETATM   20  C2  UNL     1      27.206   9.132  47.826  1.00  0.00     0.068 C 
HETATM   21  C3  UNL     1      25.889   9.607  48.329  1.00  0.00     0.006 C 
HETATM   22  C4  UNL     1      25.838   9.322  49.804  1.00  0.00     0.030 C 
HETATM   23  C5  UNL     1      26.002   7.885  50.119  1.00  0.00     0.275 C 
BRANCH  19  24
HETATM   24  N1  UNL     1      28.771   8.668  49.627  1.00  0.00     0.112 N 
HETATM   25  H1  UNL     1      28.719   8.091  50.493  1.00  0.00     0.315 HD
HETATM   26  H2  UNL     1      28.453   9.660  49.812  1.00  0.00     0.315 HD
ENDBRANCH  19  24
ENDBRANCH  17  18
ENDBRANCH  16  17
ENDBRANCH  15  16
ENDBRANCH  12  15
ENDBRANCH   1  11
BRANCH   4  27
HETATM   27  C14 UNL     1      26.001  -0.313  53.784  1.00  0.00    -0.005 A 
HETATM   28  C15 UNL     1      26.529  -1.408  53.088  1.00  0.00     0.017 A 
HETATM   29  C16 UNL     1      27.895  -1.578  52.836  1.00  0.00     0.045 A 
HETATM   30  C17 UNL     1      28.763  -0.613  53.303  1.00  0.00     0.138 A 
HETATM   31  F1  UNL     1      30.095  -0.757  53.069  1.00  0.00    -0.204 F 
HETATM   32  C18 UNL     1      28.264   0.471  53.990  1.00  0.00     0.073 A 
HETATM   33 CL1  UNL     1      29.350   1.715  54.602  1.00  0.00    -0.081 Cl
HETATM   34  C19 UNL     1      26.912   0.617  54.226  1.00  0.00     0.041 A 
ENDBRANCH   4  27
TORSDOF 7
ENDMDL
MODEL 8
REMARK VINA RESULT:      -8.7      3.427      5.338
REMARK  7 active torsions:
REMARK  status: ('A' for Active; 'I' for Inactive)
REMARK    1  A    between atoms: N1_1  and  C1_2 
REMARK    2  A    between atoms: N2_7  and  C6_8 
REMARK    3  A    between atoms: C6_8  and  C7_9 
REMARK    4  A    between atoms: C7_9  and  C8_10 
REMARK    5  A    between atoms: C8_10  and  C9_11 
REMARK       I    between atoms: C9_11  and  N3_13 
REMARK    6  A    between atoms: N3_13  and  C10_14 
REMARK    7  A    between atoms: C13_17  and  C14_18 
ROOT
HETATM    1  C10 UNL     1      23.050  -0.381  53.470  1.00  0.00     0.130 A 
HETATM    2  C11 UNL     1      23.961   0.538  53.002  1.00  0.00     0.066 A 
HETATM    3  C12 UNL     1      25.221   0.609  53.506  1.00  0.00     0.027 A 
HETATM    4  C13 UNL     1      26.023   1.585  52.958  1.00  0.00     0.081 A 
HETATM    5  N4  UNL     1      27.269   1.684  53.460  1.00  0.00    -0.240 NA
HETATM    6  C20 UNL     1      27.687   0.849  54.457  1.00  0.00     0.234 A 
HETATM    7  N5  UNL     1      26.859  -0.102  54.966  1.00  0.00    -0.240 NA
HETATM    8  C21 UNL     1      25.603  -0.250  54.508  1.00  0.00     0.088 A 
HETATM    9  C22 UNL     1      24.688  -1.169  54.975  1.00  0.00     0.151 A 
HETATM   10  N6  UNL     1      23.449  -1.214  54.451  1.00  0.00    -0.241 NA
ENDROOT
BRANCH   1  11
HETATM   11  N3  UNL     1      21.737  -0.442  52.941  1.00  0.00    -0.312 N 
HETATM   12  C9  UNL     1      20.569  -0.061  53.619  1.00  0.00     0.223 C 
HETATM   13  O1  UNL     1      20.658   0.385  54.819  1.00  0.00    -0.273 OA
HETATM   14  H18 UNL     1      21.604  -0.801  51.948  1.00  0.00     0.170 HD
BRANCH  12  15
HETATM   15  C8  UNL     1      19.227  -0.124  53.073  1.00  0.00     0.105 C 
BRANCH  15  16
HETATM   16  C7  UNL     1      19.113  -0.038  51.578  1.00  0.00     0.040 C 
BRANCH  16  17
HETATM   17  C6  UNL     1      18.352   1.230  51.270  1.00  0.00     0.275 C 
BRANCH  17  18
HETATM   18  N2  UNL     1      19.089   1.993  50.296  1.00  0.00     0.121 N 
HETATM   19  C1  UNL     1      19.114   3.409  50.574  1.00  0.00     0.451 C 
HETATM   20  C2  UNL     1      20.038   3.827  51.683  1.00  0.00     0.068 C 
HETATM   21  C3  UNL     1      21.268   3.007  51.847  1.00  0.00     0.006 C 
HETATM   22  C4  UNL     1      21.541   2.332  50.532  1.00  0.00     0.030 C 
HETATM   23  C5  UNL     1      20.424   1.471  50.083  1.00  0.00     0.275 C 
BRANCH  19  24
HETATM   24  N1  UNL     1      19.421   4.112  49.349  1.00  0.00     0.112 N 
HETATM   25  H1  UNL     1      20.140   3.556  48.839  1.00  0.00     0.315 HD
HETATM   26  H2  UNL     1      19.790   5.073  49.597  1.00  0.00     0.315 HD
ENDBRANCH  19  24
ENDBRANCH  17  18
ENDBRANCH  16  17
ENDBRANCH  15  16
ENDBRANCH  12  15
ENDBRANCH   1  11
BRANCH   4  27
HETATM   27  C14 UNL     1      25.741   2.537  51.922  1.00  0.00    -0.005 A 
HETATM   28  C15 UNL     1      26.529   2.395  50.773  1.00  0.00     0.017 A 
HETATM   29  C16 UNL     1      26.404   3.210  49.644  1.00  0.00     0.045 A 
HETATM   30  C17 UNL     1      25.451   4.207  49.669  1.00  0.00     0.138 A 
HETATM   31  F1  UNL     1      25.310   5.011  48.581  1.00  0.00    -0.204 F 
HETATM   32  C18 UNL     1      24.665   4.364  50.788  1.00  0.00     0.073 A 
HETATM   33 CL1  UNL     1      23.444   5.631  50.850  1.00  0.00    -0.081 Cl
HETATM   34  C19 UNL     1      24.807   3.546  51.892  1.00  0.00     0.041 A 
ENDBRANCH   4  27
TORSDOF 7
ENDMDL
MODEL 9
REMARK VINA RESULT:      -8.5      3.626      5.087
REMARK  7 active torsions:
REMARK  status: ('A' for Active; 'I' for Inactive)
REMARK    1  A    between atoms: N1_1  and  C1_2 
REMARK    2  A    between atoms: N2_7  and  C6_8 
REMARK    3  A    between atoms: C6_8  and  C7_9 
REMARK    4  A    between atoms: C7_9  and  C8_10 
REMARK    5  A    between atoms: C8_10  and  C9_11 
REMARK       I    between atoms: C9_11  and  N3_13 
REMARK    6  A    between atoms: N3_13  and  C10_14 
REMARK    7  A    between atoms: C13_17  and  C14_18 
ROOT
HETATM    1  C10 UNL     1      25.608   2.494  51.023  1.00  0.00     0.130 A 
HETATM    2  C11 UNL     1      24.906   1.657  51.860  1.00  0.00     0.066 A 
HETATM    3  C12 UNL     1      25.500   1.059  52.926  1.00  0.00     0.027 A 
HETATM    4  C13 UNL     1      24.686   0.235  53.670  1.00  0.00     0.081 A 
HETATM    5  N4  UNL     1      25.262  -0.384  54.719  1.00  0.00    -0.240 NA
HETATM    6  C20 UNL     1      26.582  -0.185  55.004  1.00  0.00     0.234 A 
HETATM    7  N5  UNL     1      27.347   0.640  54.241  1.00  0.00    -0.240 NA
HETATM    8  C21 UNL     1      26.831   1.285  53.181  1.00  0.00     0.088 A 
HETATM    9  C22 UNL     1      27.531   2.123  52.340  1.00  0.00     0.151 A 
HETATM   10  N6  UNL     1      26.912   2.702  51.294  1.00  0.00    -0.241 NA
ENDROOT
BRANCH   1  11
HETATM   11  N3  UNL     1      24.980   3.109  49.911  1.00  0.00    -0.312 N 
HETATM   12  C9  UNL     1      24.344   4.360  49.926  1.00  0.00     0.223 C 
HETATM   13  O1  UNL     1      24.308   5.032  51.018  1.00  0.00    -0.273 OA
HETATM   14  H18 UNL     1      24.983   2.598  48.978  1.00  0.00     0.170 HD
BRANCH  12  15
HETATM   15  C8  UNL     1      23.704   4.986  48.784  1.00  0.00     0.105 C 
BRANCH  15  16
HETATM   16  C7  UNL     1      23.530   6.475  48.854  1.00  0.00     0.040 C 
BRANCH  16  17
HETATM   17  C6  UNL     1      24.521   7.077  47.885  1.00  0.00     0.275 C 
BRANCH  17  18
HETATM   18  N2  UNL     1      25.378   7.987  48.600  1.00  0.00     0.121 N 
HETATM   19  C1  UNL     1      26.412   7.326  49.360  1.00  0.00     0.451 C 
HETATM   20  C2  UNL     1      27.560   6.791  48.549  1.00  0.00     0.068 C 
HETATM   21  C3  UNL     1      27.903   7.562  47.324  1.00  0.00     0.006 C 
HETATM   22  C4  UNL     1      27.390   8.963  47.511  1.00  0.00     0.030 C 
HETATM   23  C5  UNL     1      25.928   9.015  47.739  1.00  0.00     0.275 C 
BRANCH  19  24
HETATM   24  N1  UNL     1      26.878   8.231  50.386  1.00  0.00     0.112 N 
HETATM   25  H1  UNL     1      26.910   9.186  49.971  1.00  0.00     0.315 HD
HETATM   26  H2  UNL     1      27.841   7.919  50.697  1.00  0.00     0.315 HD
ENDBRANCH  19  24
ENDBRANCH  17  18
ENDBRANCH  16  17
ENDBRANCH  15  16
ENDBRANCH  12  15
ENDBRANCH   1  11
BRANCH   4  27
HETATM   27  C14 UNL     1      23.296  -0.084  53.505  1.00  0.00    -0.005 A 
HETATM   28  C15 UNL     1      22.755  -0.868  54.531  1.00  0.00     0.017 A 
HETATM   29  C16 UNL     1      21.417  -1.276  54.569  1.00  0.00     0.045 A 
HETATM   30  C17 UNL     1      20.591  -0.881  53.537  1.00  0.00     0.138 A 
HETATM   31  F1  UNL     1      19.286  -1.264  53.554  1.00  0.00    -0.204 F 
HETATM   32  C18 UNL     1      21.104  -0.109  52.518  1.00  0.00     0.073 A 
HETATM   33 CL1  UNL     1      20.074   0.406  51.185  1.00  0.00    -0.081 Cl
HETATM   34  C19 UNL     1      22.428   0.281  52.503  1.00  0.00     0.041 A 
ENDBRANCH   4  27
TORSDOF 7
ENDMDL
