MODEL 1
REMARK VINA RESULT:      -7.9      0.000      0.000
REMARK  9 active torsions:
REMARK  status: ('A' for Active; 'I' for Inactive)
REMARK    1  A    between atoms: N1_2  and  C2_3 
REMARK    2  A    between atoms: N1_2  and  C3_5 
REMARK    3  A    between atoms: C3_5  and  C4_6 
REMARK    4  A    between atoms: C4_6  and  N2_7 
REMARK    5  A    between atoms: C6_9  and  C7_10 
REMARK    6  A    between atoms: C7_10  and  C8_11 
REMARK    7  A    between atoms: C9_12  and  C10_13 
REMARK    8  A    between atoms: C12_15  and  N3_16 
REMARK    9  A    between atoms: N3_16  and  C13_17 
ROOT
HETATM    1  C10 UNL     1      26.330   4.049  49.513  1.00  0.00     0.058 A 
HETATM    2  C11 UNL     1      26.489   3.126  50.520  1.00  0.00     0.062 A 
HETATM    3  C12 UNL     1      25.468   2.522  51.223  1.00  0.00     0.057 A 
HETATM    4  C19 UNL     1      24.176   2.882  50.880  1.00  0.00     0.088 A 
HETATM    5  C20 UNL     1      23.042   2.317  51.550  1.00  0.00     0.103 C 
HETATM    6  N4  UNL     1      22.134   1.847  52.092  1.00  0.00    -0.191 NA
HETATM    7  C21 UNL     1      24.061   3.808  49.868  1.00  0.00     0.142 A 
HETATM    8  N5  UNL     1      25.063   4.390  49.188  1.00  0.00    -0.260 NA
ENDROOT
BRANCH   3   9
HETATM    9  N3  UNL     1      25.734   1.581  52.251  1.00  0.00    -0.355 N 
HETATM   10  H17 UNL     1      24.791   1.245  52.541  1.00  0.00     0.166 HD
BRANCH   9  11
HETATM   11  C13 UNL     1      26.934   1.120  52.831  1.00  0.00     0.033 A 
HETATM   12  C14 UNL     1      27.803   1.944  53.489  1.00  0.00     0.029 A 
HETATM   13  C15 UNL     1      28.971   1.479  54.051  1.00  0.00     0.004 A 
HETATM   14  C16 UNL     1      29.286   0.132  53.952  1.00  0.00     0.019 A 
HETATM   15  C17 UNL     1      28.383  -0.674  53.278  1.00  0.00     0.013 A 
HETATM   16 BR1  UNL     1      28.773  -2.551  53.113  1.00  0.00    -0.051 Br
HETATM   17  C18 UNL     1      27.209  -0.223  52.710  1.00  0.00     0.048 A 
ENDBRANCH   9  11
ENDBRANCH   3   9
BRANCH   1  18
HETATM   18  C9  UNL     1      27.476   4.633  48.831  1.00  0.00     0.027 C 
HETATM   19  C8  UNL     1      27.542   5.907  48.481  1.00  0.00    -0.024 C 
BRANCH  19  20
HETATM   20  C7  UNL     1      28.762   6.422  47.780  1.00  0.00     0.035 C 
BRANCH  20  21
HETATM   21  C6  UNL     1      29.964   5.794  48.447  1.00  0.00     0.045 C 
HETATM   22  C5  UNL     1      30.935   5.100  47.507  1.00  0.00     0.279 C 
HETATM   23  N2  UNL     1      31.971   5.908  48.070  1.00  0.00     0.090 N 
HETATM   24  C22 UNL     1      31.081   6.771  48.774  1.00  0.00     0.279 C 
BRANCH  23  25
HETATM   25  C4  UNL     1      32.840   6.475  47.107  1.00  0.00     0.292 C 
BRANCH  25  26
HETATM   26  C3  UNL     1      34.275   6.068  47.178  1.00  0.00     0.154 C 
BRANCH  26  27
HETATM   27  N1  UNL     1      34.386   4.852  46.355  1.00  0.00    -0.362 N 
HETATM   28  C1  UNL     1      33.975   4.788  44.975  1.00  0.00     0.152 C 
BRANCH  27  29
HETATM   29  C2  UNL     1      34.929   3.750  47.025  1.00  0.00     0.350 C 
HETATM   30  O1  UNL     1      34.721   3.083  48.087  1.00  0.00    -0.284 OA
ENDBRANCH  27  29
ENDBRANCH  26  27
ENDBRANCH  25  26
ENDBRANCH  23  25
ENDBRANCH  20  21
ENDBRANCH  19  20
ENDBRANCH   1  18
TORSDOF 9
ENDMDL
MODEL 2
REMARK VINA RESULT:      -7.8      2.128      2.607
REMARK  9 active torsions:
REMARK  status: ('A' for Active; 'I' for Inactive)
REMARK    1  A    between atoms: N1_2  and  C2_3 
REMARK    2  A    between atoms: N1_2  and  C3_5 
REMARK    3  A    between atoms: C3_5  and  C4_6 
REMARK    4  A    between atoms: C4_6  and  N2_7 
REMARK    5  A    between atoms: C6_9  and  C7_10 
REMARK    6  A    between atoms: C7_10  and  C8_11 
REMARK    7  A    between atoms: C9_12  and  C10_13 
REMARK    8  A    between atoms: C12_15  and  N3_16 
REMARK    9  A    between atoms: N3_16  and  C13_17 
ROOT
HETATM    1  C10 UNL     1      26.003   5.028  49.546  1.00  0.00     0.058 A 
HETATM    2  C11 UNL     1      25.541   3.767  49.841  1.00  0.00     0.062 A 
HETATM    3  C12 UNL     1      24.395   3.479  50.551  1.00  0.00     0.057 A 
HETATM    4  C19 UNL     1      23.654   4.556  51.005  1.00  0.00     0.088 A 
HETATM    5  C20 UNL     1      22.449   4.368  51.757  1.00  0.00     0.103 C 
HETATM    6  N4  UNL     1      21.472   4.203  52.355  1.00  0.00    -0.191 NA
HETATM    7  C21 UNL     1      24.151   5.801  50.689  1.00  0.00     0.142 A 
HETATM    8  N5  UNL     1      25.269   6.072  49.994  1.00  0.00    -0.260 NA
ENDROOT
BRANCH   3   9
HETATM    9  N3  UNL     1      24.002   2.139  50.808  1.00  0.00    -0.355 N 
HETATM   10  H17 UNL     1      23.356   1.908  50.023  1.00  0.00     0.166 HD
BRANCH   9  11
HETATM   11  C13 UNL     1      24.334   1.231  51.833  1.00  0.00     0.033 A 
HETATM   12  C14 UNL     1      25.621   0.870  52.116  1.00  0.00     0.029 A 
HETATM   13  C15 UNL     1      25.929  -0.019  53.122  1.00  0.00     0.004 A 
HETATM   14  C16 UNL     1      24.908  -0.573  53.879  1.00  0.00     0.019 A 
HETATM   15  C17 UNL     1      23.615  -0.185  53.565  1.00  0.00     0.013 A 
HETATM   16 BR1  UNL     1      22.162  -0.924  54.586  1.00  0.00    -0.051 Br
HETATM   17  C18 UNL     1      23.291   0.704  52.561  1.00  0.00     0.048 A 
ENDBRANCH   9  11
ENDBRANCH   3   9
BRANCH   1  18
HETATM   18  C9  UNL     1      27.231   5.229  48.788  1.00  0.00     0.027 C 
HETATM   19  C8  UNL     1      27.650   6.418  48.386  1.00  0.00    -0.024 C 
BRANCH  19  20
HETATM   20  C7  UNL     1      28.926   6.530  47.609  1.00  0.00     0.035 C 
BRANCH  20  21
HETATM   21  C6  UNL     1      30.006   5.845  48.414  1.00  0.00     0.045 C 
HETATM   22  C5  UNL     1      31.027   5.071  47.597  1.00  0.00     0.279 C 
HETATM   23  N2  UNL     1      32.045   5.827  48.258  1.00  0.00     0.090 N 
HETATM   24  C22 UNL     1      31.141   6.758  48.846  1.00  0.00     0.279 C 
BRANCH  23  25
HETATM   25  C4  UNL     1      33.048   6.317  47.387  1.00  0.00     0.292 C 
BRANCH  25  26
HETATM   26  C3  UNL     1      34.448   5.878  47.663  1.00  0.00     0.154 C 
BRANCH  26  27
HETATM   27  N1  UNL     1      34.566   4.529  47.084  1.00  0.00    -0.362 N 
HETATM   28  C1  UNL     1      34.805   3.346  47.873  1.00  0.00     0.152 C 
BRANCH  27  29
HETATM   29  C2  UNL     1      34.426   4.484  45.693  1.00  0.00     0.350 C 
HETATM   30  O1  UNL     1      35.153   4.293  44.668  1.00  0.00    -0.284 OA
ENDBRANCH  27  29
ENDBRANCH  26  27
ENDBRANCH  25  26
ENDBRANCH  23  25
ENDBRANCH  20  21
ENDBRANCH  19  20
ENDBRANCH   1  18
TORSDOF 9
ENDMDL
MODEL 3
REMARK VINA RESULT:      -7.7      5.620      8.332
REMARK  9 active torsions:
REMARK  status: ('A' for Active; 'I' for Inactive)
REMARK    1  A    between atoms: N1_2  and  C2_3 
REMARK    2  A    between atoms: N1_2  and  C3_5 
REMARK    3  A    between atoms: C3_5  and  C4_6 
REMARK    4  A    between atoms: C4_6  and  N2_7 
REMARK    5  A    between atoms: C6_9  and  C7_10 
REMARK    6  A    between atoms: C7_10  and  C8_11 
REMARK    7  A    between atoms: C9_12  and  C10_13 
REMARK    8  A    between atoms: C12_15  and  N3_16 
REMARK    9  A    between atoms: N3_16  and  C13_17 
ROOT
HETATM    1  C10 UNL     1      25.392   1.236  52.124  1.00  0.00     0.058 A 
HETATM    2  C11 UNL     1      24.056   1.535  52.250  1.00  0.00     0.062 A 
HETATM    3  C12 UNL     1      23.144   0.827  53.003  1.00  0.00     0.057 A 
HETATM    4  C19 UNL     1      23.621  -0.278  53.685  1.00  0.00     0.088 A 
HETATM    5  C20 UNL     1      22.756  -1.086  54.494  1.00  0.00     0.103 C 
HETATM    6  N4  UNL     1      22.050  -1.726  55.151  1.00  0.00    -0.191 NA
HETATM    7  C21 UNL     1      24.964  -0.543  53.533  1.00  0.00     0.142 A 
HETATM    8  N5  UNL     1      25.846   0.154  52.797  1.00  0.00    -0.260 NA
ENDROOT
BRANCH   3   9
HETATM    9  N3  UNL     1      21.780   1.214  53.066  1.00  0.00    -0.355 N 
HETATM   10  H17 UNL     1      21.734   1.854  53.888  1.00  0.00     0.166 HD
BRANCH   9  11
HETATM   11  C13 UNL     1      20.660   0.888  52.274  1.00  0.00     0.033 A 
HETATM   12  C14 UNL     1      20.509   1.326  50.989  1.00  0.00     0.029 A 
HETATM   13  C15 UNL     1      19.410   0.999  50.227  1.00  0.00     0.004 A 
HETATM   14  C16 UNL     1      18.417   0.198  50.771  1.00  0.00     0.019 A 
HETATM   15  C17 UNL     1      18.603  -0.229  52.076  1.00  0.00     0.013 A 
HETATM   16 BR1  UNL     1      17.254  -1.343  52.878  1.00  0.00    -0.051 Br
HETATM   17  C18 UNL     1      19.698   0.091  52.852  1.00  0.00     0.048 A 
ENDBRANCH   9  11
ENDBRANCH   3   9
BRANCH   1  18
HETATM   18  C9  UNL     1      26.278   2.047  51.300  1.00  0.00     0.027 C 
HETATM   19  C8  UNL     1      25.843   2.950  50.436  1.00  0.00    -0.024 C 
BRANCH  19  20
HETATM   20  C7  UNL     1      26.828   3.739  49.629  1.00  0.00     0.035 C 
BRANCH  20  21
HETATM   21  C6  UNL     1      26.057   4.818  48.904  1.00  0.00     0.045 C 
HETATM   22  C5  UNL     1      24.565   4.848  49.189  1.00  0.00     0.279 C 
HETATM   23  N2  UNL     1      24.716   6.225  49.541  1.00  0.00     0.090 N 
HETATM   24  C22 UNL     1      26.141   6.191  49.551  1.00  0.00     0.279 C 
BRANCH  23  25
HETATM   25  C4  UNL     1      24.042   6.586  50.732  1.00  0.00     0.292 C 
BRANCH  25  26
HETATM   26  C3  UNL     1      23.141   7.775  50.657  1.00  0.00     0.154 C 
BRANCH  26  27
HETATM   27  N1  UNL     1      21.769   7.237  50.651  1.00  0.00    -0.362 N 
HETATM   28  C1  UNL     1      20.652   7.922  50.050  1.00  0.00     0.152 C 
BRANCH  27  29
HETATM   29  C2  UNL     1      21.634   5.996  51.282  1.00  0.00     0.350 C 
HETATM   30  O1  UNL     1      20.995   4.909  51.119  1.00  0.00    -0.284 OA
ENDBRANCH  27  29
ENDBRANCH  26  27
ENDBRANCH  25  26
ENDBRANCH  23  25
ENDBRANCH  20  21
ENDBRANCH  19  20
ENDBRANCH   1  18
TORSDOF 9
ENDMDL
MODEL 4
REMARK VINA RESULT:      -7.6      3.045      7.955
REMARK  9 active torsions:
REMARK  status: ('A' for Active; 'I' for Inactive)
REMARK    1  A    between atoms: N1_2  and  C2_3 
REMARK    2  A    between atoms: N1_2  and  C3_5 
REMARK    3  A    between atoms: C3_5  and  C4_6 
REMARK    4  A    between atoms: C4_6  and  N2_7 
REMARK    5  A    between atoms: C6_9  and  C7_10 
REMARK    6  A    between atoms: C7_10  and  C8_11 
REMARK    7  A    between atoms: C9_12  and  C10_13 
REMARK    8  A    between atoms: C12_15  and  N3_16 
REMARK    9  A    between atoms: N3_16  and  C13_17 
ROOT
HETATM    1  C10 UNL     1      25.931   4.727  49.664  1.00  0.00     0.058 A 
HETATM    2  C11 UNL     1      27.081   4.838  48.918  1.00  0.00     0.062 A 
HETATM    3  C12 UNL     1      27.678   6.021  48.536  1.00  0.00     0.057 A 
HETATM    4  C19 UNL     1      27.060   7.191  48.939  1.00  0.00     0.088 A 
HETATM    5  C20 UNL     1      27.595   8.475  48.592  1.00  0.00     0.103 C 
HETATM    6  N4  UNL     1      28.042   9.505  48.314  1.00  0.00    -0.191 NA
HETATM    7  C21 UNL     1      25.912   7.037  49.684  1.00  0.00     0.142 A 
HETATM    8  N5  UNL     1      25.338   5.879  50.053  1.00  0.00    -0.260 NA
ENDROOT
BRANCH   3   9
HETATM    9  N3  UNL     1      28.866   6.031  47.759  1.00  0.00    -0.355 N 
HETATM   10  H17 UNL     1      28.529   6.127  46.778  1.00  0.00     0.166 HD
BRANCH   9  11
HETATM   11  C13 UNL     1      30.230   5.944  48.107  1.00  0.00     0.033 A 
HETATM   12  C14 UNL     1      30.859   6.880  48.879  1.00  0.00     0.029 A 
HETATM   13  C15 UNL     1      32.192   6.781  49.210  1.00  0.00     0.004 A 
HETATM   14  C16 UNL     1      32.930   5.700  48.751  1.00  0.00     0.019 A 
HETATM   15  C17 UNL     1      32.260   4.770  47.972  1.00  0.00     0.013 A 
HETATM   16 BR1  UNL     1      33.239   3.252  47.310  1.00  0.00    -0.051 Br
HETATM   17  C18 UNL     1      30.926   4.856  47.631  1.00  0.00     0.048 A 
ENDBRANCH   9  11
ENDBRANCH   3   9
BRANCH   1  18
HETATM   18  C9  UNL     1      25.376   3.428  50.016  1.00  0.00     0.027 C 
HETATM   19  C8  UNL     1      24.261   3.278  50.711  1.00  0.00    -0.024 C 
BRANCH  19  20
HETATM   20  C7  UNL     1      23.764   1.901  51.028  1.00  0.00     0.035 C 
BRANCH  20  21
HETATM   21  C6  UNL     1      23.891   1.707  52.522  1.00  0.00     0.045 C 
HETATM   22  C5  UNL     1      24.230   0.294  52.964  1.00  0.00     0.279 C 
HETATM   23  N2  UNL     1      25.334   0.844  53.686  1.00  0.00     0.090 N 
HETATM   24  C22 UNL     1      25.230   2.138  53.098  1.00  0.00     0.279 C 
BRANCH  23  25
HETATM   25  C4  UNL     1      26.540   0.122  53.521  1.00  0.00     0.292 C 
BRANCH  25  26
HETATM   26  C3  UNL     1      27.542   0.231  54.624  1.00  0.00     0.154 C 
BRANCH  26  27
HETATM   27  N1  UNL     1      28.733   0.854  54.022  1.00  0.00    -0.362 N 
HETATM   28  C1  UNL     1      28.905   2.280  53.900  1.00  0.00     0.152 C 
BRANCH  27  29
HETATM   29  C2  UNL     1      29.695  -0.056  53.572  1.00  0.00     0.350 C 
HETATM   30  O1  UNL     1      30.159  -1.193  53.902  1.00  0.00    -0.284 OA
ENDBRANCH  27  29
ENDBRANCH  26  27
ENDBRANCH  25  26
ENDBRANCH  23  25
ENDBRANCH  20  21
ENDBRANCH  19  20
ENDBRANCH   1  18
TORSDOF 9
ENDMDL
MODEL 5
REMARK VINA RESULT:      -7.5      3.552      9.292
REMARK  9 active torsions:
REMARK  status: ('A' for Active; 'I' for Inactive)
REMARK    1  A    between atoms: N1_2  and  C2_3 
REMARK    2  A    between atoms: N1_2  and  C3_5 
REMARK    3  A    between atoms: C3_5  and  C4_6 
REMARK    4  A    between atoms: C4_6  and  N2_7 
REMARK    5  A    between atoms: C6_9  and  C7_10 
REMARK    6  A    between atoms: C7_10  and  C8_11 
REMARK    7  A    between atoms: C9_12  and  C10_13 
REMARK    8  A    between atoms: C12_15  and  N3_16 
REMARK    9  A    between atoms: N3_16  and  C13_17 
ROOT
HETATM    1  C10 UNL     1      28.774   5.770  48.141  1.00  0.00     0.058 A 
HETATM    2  C11 UNL     1      30.133   5.568  48.187  1.00  0.00     0.062 A 
HETATM    3  C12 UNL     1      31.092   6.482  47.809  1.00  0.00     0.057 A 
HETATM    4  C19 UNL     1      30.642   7.705  47.344  1.00  0.00     0.088 A 
HETATM    5  C20 UNL     1      31.556   8.725  46.922  1.00  0.00     0.103 C 
HETATM    6  N4  UNL     1      32.303   9.545  46.593  1.00  0.00    -0.191 NA
HETATM    7  C21 UNL     1      29.275   7.867  47.314  1.00  0.00     0.142 A 
HETATM    8  N5  UNL     1      28.346   6.970  47.686  1.00  0.00    -0.260 NA
ENDROOT
BRANCH   3   9
HETATM    9  N3  UNL     1      32.477   6.176  47.889  1.00  0.00    -0.355 N 
HETATM   10  H17 UNL     1      32.819   6.750  48.690  1.00  0.00     0.166 HD
BRANCH   9  11
HETATM   11  C13 UNL     1      33.307   5.322  47.136  1.00  0.00     0.033 A 
HETATM   12  C14 UNL     1      34.132   4.396  47.710  1.00  0.00     0.029 A 
HETATM   13  C15 UNL     1      34.938   3.568  46.961  1.00  0.00     0.004 A 
HETATM   14  C16 UNL     1      34.921   3.668  45.578  1.00  0.00     0.019 A 
HETATM   15  C17 UNL     1      34.073   4.617  45.030  1.00  0.00     0.013 A 
HETATM   16 BR1  UNL     1      34.011   4.797  43.115  1.00  0.00    -0.051 Br
HETATM   17  C18 UNL     1      33.260   5.454  45.767  1.00  0.00     0.048 A 
ENDBRANCH   9  11
ENDBRANCH   3   9
BRANCH   1  18
HETATM   18  C9  UNL     1      27.837   4.737  48.562  1.00  0.00     0.027 C 
HETATM   19  C8  UNL     1      26.607   4.996  48.974  1.00  0.00    -0.024 C 
BRANCH  19  20
HETATM   20  C7  UNL     1      25.712   3.868  49.389  1.00  0.00     0.035 C 
BRANCH  20  21
HETATM   21  C6  UNL     1      25.832   3.724  50.889  1.00  0.00     0.045 C 
HETATM   22  C5  UNL     1      24.616   3.134  51.581  1.00  0.00     0.279 C 
HETATM   23  N2  UNL     1      25.488   2.160  52.160  1.00  0.00     0.090 N 
HETATM   24  C22 UNL     1      26.605   2.496  51.341  1.00  0.00     0.279 C 
BRANCH  23  25
HETATM   25  C4  UNL     1      24.984   0.838  52.105  1.00  0.00     0.292 C 
BRANCH  25  26
HETATM   26  C3  UNL     1      24.934   0.086  53.394  1.00  0.00     0.154 C 
BRANCH  26  27
HETATM   27  N1  UNL     1      26.326  -0.295  53.688  1.00  0.00    -0.362 N 
HETATM   28  C1  UNL     1      27.079   0.244  54.793  1.00  0.00     0.152 C 
BRANCH  27  29
HETATM   29  C2  UNL     1      26.868  -1.232  52.801  1.00  0.00     0.350 C 
HETATM   30  O1  UNL     1      27.306  -2.425  52.825  1.00  0.00    -0.284 OA
ENDBRANCH  27  29
ENDBRANCH  26  27
ENDBRANCH  25  26
ENDBRANCH  23  25
ENDBRANCH  20  21
ENDBRANCH  19  20
ENDBRANCH   1  18
TORSDOF 9
ENDMDL
MODEL 6
REMARK VINA RESULT:      -7.5      3.561      4.346
REMARK  9 active torsions:
REMARK  status: ('A' for Active; 'I' for Inactive)
REMARK    1  A    between atoms: N1_2  and  C2_3 
REMARK    2  A    between atoms: N1_2  and  C3_5 
REMARK    3  A    between atoms: C3_5  and  C4_6 
REMARK    4  A    between atoms: C4_6  and  N2_7 
REMARK    5  A    between atoms: C6_9  and  C7_10 
REMARK    6  A    between atoms: C7_10  and  C8_11 
REMARK    7  A    between atoms: C9_12  and  C10_13 
REMARK    8  A    between atoms: C12_15  and  N3_16 
REMARK    9  A    between atoms: N3_16  and  C13_17 
ROOT
HETATM    1  C10 UNL     1      25.691   4.161  49.595  1.00  0.00     0.058 A 
HETATM    2  C11 UNL     1      26.023   3.492  50.750  1.00  0.00     0.062 A 
HETATM    3  C12 UNL     1      25.219   2.591  51.414  1.00  0.00     0.057 A 
HETATM    4  C19 UNL     1      23.972   2.345  50.866  1.00  0.00     0.088 A 
HETATM    5  C20 UNL     1      23.057   1.428  51.479  1.00  0.00     0.103 C 
HETATM    6  N4  UNL     1      22.329   0.679  51.978  1.00  0.00    -0.191 NA
HETATM    7  C21 UNL     1      23.678   3.034  49.711  1.00  0.00     0.142 A 
HETATM    8  N5  UNL     1      24.470   3.910  49.070  1.00  0.00    -0.260 NA
ENDROOT
BRANCH   3   9
HETATM    9  N3  UNL     1      25.652   1.953  52.606  1.00  0.00    -0.355 N 
HETATM   10  H17 UNL     1      24.785   1.867  53.179  1.00  0.00     0.166 HD
BRANCH   9  11
HETATM   11  C13 UNL     1      26.914   1.494  53.034  1.00  0.00     0.033 A 
HETATM   12  C14 UNL     1      27.844   2.314  53.609  1.00  0.00     0.029 A 
HETATM   13  C15 UNL     1      29.073   1.851  54.023  1.00  0.00     0.004 A 
HETATM   14  C16 UNL     1      29.388   0.510  53.857  1.00  0.00     0.019 A 
HETATM   15  C17 UNL     1      28.422  -0.292  53.271  1.00  0.00     0.013 A 
HETATM   16 BR1  UNL     1      28.809  -2.159  53.019  1.00  0.00    -0.051 Br
HETATM   17  C18 UNL     1      27.187   0.158  52.851  1.00  0.00     0.048 A 
ENDBRANCH   9  11
ENDBRANCH   3   9
BRANCH   1  18
HETATM   18  C9  UNL     1      26.612   5.099  48.968  1.00  0.00     0.027 C 
HETATM   19  C8  UNL     1      27.865   4.797  48.669  1.00  0.00    -0.024 C 
BRANCH  19  20
HETATM   20  C7  UNL     1      28.742   5.827  48.025  1.00  0.00     0.035 C 
BRANCH  20  21
HETATM   21  C6  UNL     1      28.008   7.146  48.084  1.00  0.00     0.045 C 
HETATM   22  C5  UNL     1      28.781   8.288  48.722  1.00  0.00     0.279 C 
HETATM   23  N2  UNL     1      28.531   9.046  47.536  1.00  0.00     0.090 N 
HETATM   24  C22 UNL     1      28.037   7.939  46.787  1.00  0.00     0.279 C 
BRANCH  23  25
HETATM   25  C4  UNL     1      29.668   9.735  47.050  1.00  0.00     0.292 C 
BRANCH  25  26
HETATM   26  C3  UNL     1      29.521  11.207  46.845  1.00  0.00     0.154 C 
BRANCH  26  27
HETATM   27  N1  UNL     1      29.572  11.805  48.191  1.00  0.00    -0.362 N 
HETATM   28  C1  UNL     1      30.730  11.732  49.047  1.00  0.00     0.152 C 
BRANCH  27  29
HETATM   29  C2  UNL     1      28.397  12.456  48.578  1.00  0.00     0.350 C 
HETATM   30  O1  UNL     1      27.217  12.156  48.944  1.00  0.00    -0.284 OA
ENDBRANCH  27  29
ENDBRANCH  26  27
ENDBRANCH  25  26
ENDBRANCH  23  25
ENDBRANCH  20  21
ENDBRANCH  19  20
ENDBRANCH   1  18
TORSDOF 9
ENDMDL
MODEL 7
REMARK VINA RESULT:      -7.3      3.004      8.764
REMARK  9 active torsions:
REMARK  status: ('A' for Active; 'I' for Inactive)
REMARK    1  A    between atoms: N1_2  and  C2_3 
REMARK    2  A    between atoms: N1_2  and  C3_5 
REMARK    3  A    between atoms: C3_5  and  C4_6 
REMARK    4  A    between atoms: C4_6  and  N2_7 
REMARK    5  A    between atoms: C6_9  and  C7_10 
REMARK    6  A    between atoms: C7_10  and  C8_11 
REMARK    7  A    between atoms: C9_12  and  C10_13 
REMARK    8  A    between atoms: C12_15  and  N3_16 
REMARK    9  A    between atoms: N3_16  and  C13_17 
ROOT
HETATM    1  C10 UNL     1      27.983   6.059  48.483  1.00  0.00     0.058 A 
HETATM    2  C11 UNL     1      29.218   6.093  47.878  1.00  0.00     0.062 A 
HETATM    3  C12 UNL     1      29.965   7.227  47.645  1.00  0.00     0.057 A 
HETATM    4  C19 UNL     1      29.418   8.431  48.054  1.00  0.00     0.088 A 
HETATM    5  C20 UNL     1      30.110   9.670  47.855  1.00  0.00     0.103 C 
HETATM    6  N4  UNL     1      30.682  10.664  47.698  1.00  0.00    -0.191 NA
HETATM    7  C21 UNL     1      28.181   8.353  48.654  1.00  0.00     0.142 A 
HETATM    8  N5  UNL     1      27.461   7.242  48.879  1.00  0.00    -0.260 NA
ENDROOT
BRANCH   3   9
HETATM    9  N3  UNL     1      31.232   7.159  47.008  1.00  0.00    -0.355 N 
HETATM   10  H17 UNL     1      31.033   7.405  46.015  1.00  0.00     0.166 HD
BRANCH   9  11
HETATM   11  C13 UNL     1      32.521   6.851  47.487  1.00  0.00     0.033 A 
HETATM   12  C14 UNL     1      33.355   7.790  48.027  1.00  0.00     0.029 A 
HETATM   13  C15 UNL     1      34.613   7.473  48.491  1.00  0.00     0.004 A 
HETATM   14  C16 UNL     1      35.058   6.162  48.413  1.00  0.00     0.019 A 
HETATM   15  C17 UNL     1      34.187   5.237  47.861  1.00  0.00     0.013 A 
HETATM   16 BR1  UNL     1      34.757   3.404  47.730  1.00  0.00    -0.051 Br
HETATM   17  C18 UNL     1      32.925   5.539  47.391  1.00  0.00     0.048 A 
ENDBRANCH   9  11
ENDBRANCH   3   9
BRANCH   1  18
HETATM   18  C9  UNL     1      27.270   4.805  48.684  1.00  0.00     0.027 C 
HETATM   19  C8  UNL     1      26.209   4.690  49.465  1.00  0.00    -0.024 C 
BRANCH  19  20
HETATM   20  C7  UNL     1      25.538   3.358  49.613  1.00  0.00     0.035 C 
BRANCH  20  21
HETATM   21  C6  UNL     1      25.557   3.003  51.082  1.00  0.00     0.045 C 
HETATM   22  C5  UNL     1      24.967   1.647  51.426  1.00  0.00     0.279 C 
HETATM   23  N2  UNL     1      26.193   1.345  52.096  1.00  0.00     0.090 N 
HETATM   24  C22 UNL     1      26.892   2.476  51.583  1.00  0.00     0.279 C 
BRANCH  23  25
HETATM   25  C4  UNL     1      26.697   0.054  51.809  1.00  0.00     0.292 C 
BRANCH  25  26
HETATM   26  C3  UNL     1      26.610  -0.957  52.905  1.00  0.00     0.154 C 
BRANCH  26  27
HETATM   27  N1  UNL     1      27.255  -0.337  54.074  1.00  0.00    -0.362 N 
HETATM   28  C1  UNL     1      26.521   0.274  55.154  1.00  0.00     0.152 C 
BRANCH  27  29
HETATM   29  C2  UNL     1      28.653  -0.386  54.055  1.00  0.00     0.350 C 
HETATM   30  O1  UNL     1      29.612   0.023  53.327  1.00  0.00    -0.284 OA
ENDBRANCH  27  29
ENDBRANCH  26  27
ENDBRANCH  25  26
ENDBRANCH  23  25
ENDBRANCH  20  21
ENDBRANCH  19  20
ENDBRANCH   1  18
TORSDOF 9
ENDMDL
MODEL 8
REMARK VINA RESULT:      -7.3      3.540      4.853
REMARK  9 active torsions:
REMARK  status: ('A' for Active; 'I' for Inactive)
REMARK    1  A    between atoms: N1_2  and  C2_3 
REMARK    2  A    between atoms: N1_2  and  C3_5 
REMARK    3  A    between atoms: C3_5  and  C4_6 
REMARK    4  A    between atoms: C4_6  and  N2_7 
REMARK    5  A    between atoms: C6_9  and  C7_10 
REMARK    6  A    between atoms: C7_10  and  C8_11 
REMARK    7  A    between atoms: C9_12  and  C10_13 
REMARK    8  A    between atoms: C12_15  and  N3_16 
REMARK    9  A    between atoms: N3_16  and  C13_17 
ROOT
HETATM    1  C10 UNL     1      27.727   5.836  48.587  1.00  0.00     0.058 A 
HETATM    2  C11 UNL     1      27.162   4.638  48.956  1.00  0.00     0.062 A 
HETATM    3  C12 UNL     1      25.976   4.488  49.641  1.00  0.00     0.057 A 
HETATM    4  C19 UNL     1      25.302   5.647  49.986  1.00  0.00     0.088 A 
HETATM    5  C20 UNL     1      24.062   5.604  50.702  1.00  0.00     0.103 C 
HETATM    6  N4  UNL     1      23.056   5.556  51.273  1.00  0.00    -0.191 NA
HETATM    7  C21 UNL     1      25.901   6.825  49.598  1.00  0.00     0.142 A 
HETATM    8  N5  UNL     1      27.058   6.961  48.929  1.00  0.00    -0.260 NA
ENDROOT
BRANCH   3   9
HETATM    9  N3  UNL     1      25.476   3.203  49.981  1.00  0.00    -0.355 N 
HETATM   10  H17 UNL     1      25.004   2.875  49.111  1.00  0.00     0.166 HD
BRANCH   9  11
HETATM   11  C13 UNL     1      25.536   2.442  51.165  1.00  0.00     0.033 A 
HETATM   12  C14 UNL     1      24.421   1.962  51.794  1.00  0.00     0.029 A 
HETATM   13  C15 UNL     1      24.495   1.219  52.951  1.00  0.00     0.004 A 
HETATM   14  C16 UNL     1      25.736   0.942  53.506  1.00  0.00     0.019 A 
HETATM   15  C17 UNL     1      26.844   1.444  52.842  1.00  0.00     0.013 A 
HETATM   16 BR1  UNL     1      28.589   1.088  53.570  1.00  0.00    -0.051 Br
HETATM   17  C18 UNL     1      26.785   2.190  51.683  1.00  0.00     0.048 A 
ENDBRANCH   9  11
ENDBRANCH   3   9
BRANCH   1  18
HETATM   18  C9  UNL     1      28.990   5.891  47.864  1.00  0.00     0.027 C 
HETATM   19  C8  UNL     1      30.170   5.868  48.461  1.00  0.00    -0.024 C 
BRANCH  19  20
HETATM   20  C7  UNL     1      31.419   5.928  47.635  1.00  0.00     0.035 C 
BRANCH  20  21
HETATM   21  C6  UNL     1      32.207   7.133  48.095  1.00  0.00     0.045 C 
HETATM   22  C5  UNL     1      31.837   8.443  47.420  1.00  0.00     0.279 C 
HETATM   23  N2  UNL     1      31.643   8.996  48.724  1.00  0.00     0.090 N 
HETATM   24  C22 UNL     1      31.716   7.743  49.398  1.00  0.00     0.279 C 
BRANCH  23  25
HETATM   25  C4  UNL     1      30.458   9.761  48.848  1.00  0.00     0.292 C 
BRANCH  25  26
HETATM   26  C3  UNL     1      30.628  11.216  49.140  1.00  0.00     0.154 C 
BRANCH  26  27
HETATM   27  N1  UNL     1      29.953  11.926  48.041  1.00  0.00    -0.362 N 
HETATM   28  C1  UNL     1      30.456  11.955  46.690  1.00  0.00     0.152 C 
BRANCH  27  29
HETATM   29  C2  UNL     1      28.773  12.577  48.413  1.00  0.00     0.350 C 
HETATM   30  O1  UNL     1      28.247  13.073  49.459  1.00  0.00    -0.284 OA
ENDBRANCH  27  29
ENDBRANCH  26  27
ENDBRANCH  25  26
ENDBRANCH  23  25
ENDBRANCH  20  21
ENDBRANCH  19  20
ENDBRANCH   1  18
TORSDOF 9
ENDMDL
MODEL 9
REMARK VINA RESULT:      -7.2      5.533      9.810
REMARK  9 active torsions:
REMARK  status: ('A' for Active; 'I' for Inactive)
REMARK    1  A    between atoms: N1_2  and  C2_3 
REMARK    2  A    between atoms: N1_2  and  C3_5 
REMARK    3  A    between atoms: C3_5  and  C4_6 
REMARK    4  A    between atoms: C4_6  and  N2_7 
REMARK    5  A    between atoms: C6_9  and  C7_10 
REMARK    6  A    between atoms: C7_10  and  C8_11 
REMARK    7  A    between atoms: C9_12  and  C10_13 
REMARK    8  A    between atoms: C12_15  and  N3_16 
REMARK    9  A    between atoms: N3_16  and  C13_17 
ROOT
HETATM    1  C10 UNL     1      22.788   0.212  52.897  1.00  0.00     0.058 A 
HETATM    2  C11 UNL     1      23.151   1.478  52.501  1.00  0.00     0.062 A 
HETATM    3  C12 UNL     1      24.370   2.074  52.742  1.00  0.00     0.057 A 
HETATM    4  C19 UNL     1      25.302   1.329  53.443  1.00  0.00     0.088 A 
HETATM    5  C20 UNL     1      26.600   1.856  53.750  1.00  0.00     0.103 C 
HETATM    6  N4  UNL     1      27.647   2.288  53.984  1.00  0.00    -0.191 NA
HETATM    7  C21 UNL     1      24.899   0.067  53.821  1.00  0.00     0.142 A 
HETATM    8  N5  UNL     1      23.708  -0.506  53.580  1.00  0.00    -0.260 NA
ENDROOT
BRANCH   3   9
HETATM    9  N3  UNL     1      24.650   3.392  52.295  1.00  0.00    -0.355 N 
HETATM   10  H17 UNL     1      24.279   4.003  53.053  1.00  0.00     0.166 HD
BRANCH   9  11
HETATM   11  C13 UNL     1      25.272   3.889  51.132  1.00  0.00     0.033 A 
HETATM   12  C14 UNL     1      26.247   3.205  50.462  1.00  0.00     0.029 A 
HETATM   13  C15 UNL     1      26.846   3.704  49.327  1.00  0.00     0.004 A 
HETATM   14  C16 UNL     1      26.454   4.941  48.837  1.00  0.00     0.019 A 
HETATM   15  C17 UNL     1      25.463   5.607  49.540  1.00  0.00     0.013 A 
HETATM   16 BR1  UNL     1      24.884   7.327  48.902  1.00  0.00    -0.051 Br
HETATM   17  C18 UNL     1      24.855   5.120  50.679  1.00  0.00     0.048 A 
ENDBRANCH   9  11
ENDBRANCH   3   9
BRANCH   1  18
HETATM   18  C9  UNL     1      21.470  -0.329  52.595  1.00  0.00     0.027 C 
HETATM   19  C8  UNL     1      20.368   0.402  52.589  1.00  0.00    -0.024 C 
BRANCH  19  20
HETATM   20  C7  UNL     1      19.053  -0.241  52.267  1.00  0.00     0.035 C 
BRANCH  20  21
HETATM   21  C6  UNL     1      18.299   0.702  51.358  1.00  0.00     0.045 C 
HETATM   22  C5  UNL     1      18.527   2.180  51.628  1.00  0.00     0.279 C 
HETATM   23  N2  UNL     1      18.885   2.319  50.251  1.00  0.00     0.090 N 
HETATM   24  C22 UNL     1      18.948   0.917  50.001  1.00  0.00     0.279 C 
BRANCH  23  25
HETATM   25  C4  UNL     1      20.049   3.096  50.040  1.00  0.00     0.292 C 
BRANCH  25  26
HETATM   26  C3  UNL     1      19.841   4.517  49.630  1.00  0.00     0.154 C 
BRANCH  26  27
HETATM   27  N1  UNL     1      20.806   5.305  50.415  1.00  0.00    -0.362 N 
HETATM   28  C1  UNL     1      21.105   6.689  50.145  1.00  0.00     0.152 C 
BRANCH  27  29
HETATM   29  C2  UNL     1      21.418   4.598  51.455  1.00  0.00     0.350 C 
HETATM   30  O1  UNL     1      21.896   4.825  52.611  1.00  0.00    -0.284 OA
ENDBRANCH  27  29
ENDBRANCH  26  27
ENDBRANCH  25  26
ENDBRANCH  23  25
ENDBRANCH  20  21
ENDBRANCH  19  20
ENDBRANCH   1  18
TORSDOF 9
ENDMDL
