MODEL 1
REMARK VINA RESULT:      -7.6      0.000      0.000
REMARK  7 active torsions:
REMARK  status: ('A' for Active; 'I' for Inactive)
REMARK    1  A    between atoms: C2_2  and  C3_3 
REMARK    2  A    between atoms: C4_4  and  C5_5 
REMARK    3  A    between atoms: C6_6  and  C7_7 
REMARK    4  A    between atoms: C7_7  and  S1_8 
REMARK    5  A    between atoms: S1_8  and  C8_9 
REMARK    6  A    between atoms: C9_12  and  C10_13 
REMARK    7  A    between atoms: C16_19  and  O1_20 
ROOT
HETATM    1  C8  UNL     1      23.443   2.969  52.387  1.00  0.00     0.231 A 
HETATM    2  N1  UNL     1      22.866   1.762  52.228  1.00  0.00    -0.114 NA
HETATM    3  N2  UNL     1      23.807   0.881  52.409  1.00  0.00    -0.120 NA
HETATM    4  C9  UNL     1      24.986   1.499  52.683  1.00  0.00     0.206 A 
HETATM    5  O2  UNL     1      24.735   2.804  52.665  1.00  0.00    -0.263 OA
ENDROOT
BRANCH   4   6
HETATM    6  C10 UNL     1      26.215   0.751  52.931  1.00  0.00     0.052 A 
HETATM    7  C11 UNL     1      26.386  -0.578  52.557  1.00  0.00     0.019 A 
HETATM    8  C12 UNL     1      27.585  -1.203  52.833  1.00  0.00     0.008 A 
HETATM    9  C13 UNL     1      28.646  -0.570  53.474  1.00  0.00    -0.059 A 
HETATM   10  C14 UNL     1      29.881  -1.342  53.716  1.00  0.00     0.048 C 
HETATM   11  C15 UNL     1      28.445   0.750  53.833  1.00  0.00     0.044 A 
HETATM   12  C16 UNL     1      27.258   1.405  53.571  1.00  0.00     0.080 A 
BRANCH  12  13
HETATM   13  O1  UNL     1      27.190   2.731  53.985  1.00  0.00    -0.360 OA
HETATM   14  H16 UNL     1      27.732   3.128  54.715  1.00  0.00     0.217 HD
ENDBRANCH  12  13
ENDBRANCH   4   6
BRANCH   1  15
HETATM   15  S1  UNL     1      22.683   4.594  52.267  1.00  0.00    -0.079 SA
BRANCH  15  16
HETATM   16  C7  UNL     1      23.851   5.633  51.343  1.00  0.00     0.110 C 
BRANCH  16  17
HETATM   17  C6  UNL     1      23.775   5.430  49.882  1.00  0.00    -0.016 C 
HETATM   18  C5  UNL     1      24.477   4.684  49.048  1.00  0.00    -0.004 C 
BRANCH  18  19
HETATM   19  C4  UNL     1      25.571   3.840  49.496  1.00  0.00    -0.004 C 
HETATM   20  C3  UNL     1      26.849   4.123  49.292  1.00  0.00    -0.026 C 
BRANCH  20  21
HETATM   21  C2  UNL     1      27.417   5.279  48.612  1.00  0.00    -0.006 C 
HETATM   22  C1  UNL     1      28.713   5.460  48.297  1.00  0.00     0.037 C 
ENDBRANCH  20  21
ENDBRANCH  18  19
ENDBRANCH  16  17
ENDBRANCH  15  16
ENDBRANCH   1  15
TORSDOF 7
ENDMDL
MODEL 2
REMARK VINA RESULT:      -7.5      2.557      4.413
REMARK  7 active torsions:
REMARK  status: ('A' for Active; 'I' for Inactive)
REMARK    1  A    between atoms: C2_2  and  C3_3 
REMARK    2  A    between atoms: C4_4  and  C5_5 
REMARK    3  A    between atoms: C6_6  and  C7_7 
REMARK    4  A    between atoms: C7_7  and  S1_8 
REMARK    5  A    between atoms: S1_8  and  C8_9 
REMARK    6  A    between atoms: C9_12  and  C10_13 
REMARK    7  A    between atoms: C16_19  and  O1_20 
ROOT
HETATM    1  C8  UNL     1      23.699   2.861  51.424  1.00  0.00     0.231 A 
HETATM    2  N1  UNL     1      23.670   3.182  52.733  1.00  0.00    -0.114 NA
HETATM    3  N2  UNL     1      24.640   2.518  53.293  1.00  0.00    -0.120 NA
HETATM    4  C9  UNL     1      25.297   1.771  52.367  1.00  0.00     0.206 A 
HETATM    5  O2  UNL     1      24.693   2.001  51.206  1.00  0.00    -0.263 OA
ENDROOT
BRANCH   4   6
HETATM    6  C10 UNL     1      26.433   0.924  52.718  1.00  0.00     0.052 A 
HETATM    7  C11 UNL     1      26.522  -0.417  52.359  1.00  0.00     0.019 A 
HETATM    8  C12 UNL     1      27.636  -1.140  52.735  1.00  0.00     0.008 A 
HETATM    9  C13 UNL     1      28.689  -0.595  53.465  1.00  0.00    -0.059 A 
HETATM   10  C14 UNL     1      29.829  -1.466  53.810  1.00  0.00     0.048 C 
HETATM   11  C15 UNL     1      28.570   0.740  53.807  1.00  0.00     0.044 A 
HETATM   12  C16 UNL     1      27.470   1.491  53.446  1.00  0.00     0.080 A 
BRANCH  12  13
HETATM   13  O1  UNL     1      27.479   2.821  53.854  1.00  0.00    -0.360 OA
HETATM   14  H16 UNL     1      26.704   3.302  54.244  1.00  0.00     0.217 HD
ENDBRANCH  12  13
ENDBRANCH   4   6
BRANCH   1  15
HETATM   15  S1  UNL     1      22.621   3.442  50.109  1.00  0.00    -0.079 SA
BRANCH  15  16
HETATM   16  C7  UNL     1      21.129   2.411  50.182  1.00  0.00     0.110 C 
BRANCH  16  17
HETATM   17  C6  UNL     1      21.426   0.974  50.341  1.00  0.00    -0.016 C 
HETATM   18  C5  UNL     1      21.369   0.161  51.382  1.00  0.00    -0.004 C 
BRANCH  18  19
HETATM   19  C4  UNL     1      20.951   0.614  52.697  1.00  0.00    -0.004 C 
HETATM   20  C3  UNL     1      21.580   0.295  53.818  1.00  0.00    -0.026 C 
BRANCH  20  21
HETATM   21  C2  UNL     1      22.766  -0.534  53.980  1.00  0.00    -0.006 C 
HETATM   22  C1  UNL     1      23.114  -1.218  55.085  1.00  0.00     0.037 C 
ENDBRANCH  20  21
ENDBRANCH  18  19
ENDBRANCH  16  17
ENDBRANCH  15  16
ENDBRANCH   1  15
TORSDOF 7
ENDMDL
MODEL 3
REMARK VINA RESULT:      -7.4      1.563      1.856
REMARK  7 active torsions:
REMARK  status: ('A' for Active; 'I' for Inactive)
REMARK    1  A    between atoms: C2_2  and  C3_3 
REMARK    2  A    between atoms: C4_4  and  C5_5 
REMARK    3  A    between atoms: C6_6  and  C7_7 
REMARK    4  A    between atoms: C7_7  and  S1_8 
REMARK    5  A    between atoms: S1_8  and  C8_9 
REMARK    6  A    between atoms: C9_12  and  C10_13 
REMARK    7  A    between atoms: C16_19  and  O1_20 
ROOT
HETATM    1  C8  UNL     1      22.579   1.140  52.745  1.00  0.00     0.231 A 
HETATM    2  N1  UNL     1      22.349  -0.114  53.181  1.00  0.00    -0.114 NA
HETATM    3  N2  UNL     1      23.518  -0.649  53.387  1.00  0.00    -0.120 NA
HETATM    4  C9  UNL     1      24.503   0.240  53.091  1.00  0.00     0.206 A 
HETATM    5  O2  UNL     1      23.893   1.352  52.692  1.00  0.00    -0.263 OA
ENDROOT
BRANCH   4   6
HETATM    6  C10 UNL     1      25.917  -0.094  53.231  1.00  0.00     0.052 A 
HETATM    7  C11 UNL     1      26.474  -1.269  52.738  1.00  0.00     0.019 A 
HETATM    8  C12 UNL     1      27.823  -1.500  52.917  1.00  0.00     0.008 A 
HETATM    9  C13 UNL     1      28.668  -0.609  53.574  1.00  0.00    -0.059 A 
HETATM   10  C14 UNL     1      30.095  -0.964  53.705  1.00  0.00     0.048 C 
HETATM   11  C15 UNL     1      28.084   0.549  54.053  1.00  0.00     0.044 A 
HETATM   12  C16 UNL     1      26.738   0.810  53.890  1.00  0.00     0.080 A 
BRANCH  12  13
HETATM   13  O1  UNL     1      26.282   2.012  54.419  1.00  0.00    -0.360 OA
HETATM   14  H16 UNL     1      26.105   2.835  53.894  1.00  0.00     0.217 HD
ENDBRANCH  12  13
ENDBRANCH   4   6
BRANCH   1  15
HETATM   15  S1  UNL     1      21.382   2.400  52.285  1.00  0.00    -0.079 SA
BRANCH  15  16
HETATM   16  C7  UNL     1      22.262   3.569  51.212  1.00  0.00     0.110 C 
BRANCH  16  17
HETATM   17  C6  UNL     1      22.656   2.981  49.916  1.00  0.00    -0.016 C 
HETATM   18  C5  UNL     1      23.527   3.355  48.995  1.00  0.00    -0.004 C 
BRANCH  18  19
HETATM   19  C4  UNL     1      24.334   4.555  49.133  1.00  0.00    -0.004 C 
HETATM   20  C3  UNL     1      25.631   4.541  49.404  1.00  0.00    -0.026 C 
BRANCH  20  21
HETATM   21  C2  UNL     1      26.494   3.387  49.613  1.00  0.00    -0.006 C 
HETATM   22  C1  UNL     1      26.560   2.633  50.727  1.00  0.00     0.037 C 
ENDBRANCH  20  21
ENDBRANCH  18  19
ENDBRANCH  16  17
ENDBRANCH  15  16
ENDBRANCH   1  15
TORSDOF 7
ENDMDL
MODEL 4
REMARK VINA RESULT:      -6.9      1.966      3.157
REMARK  7 active torsions:
REMARK  status: ('A' for Active; 'I' for Inactive)
REMARK    1  A    between atoms: C2_2  and  C3_3 
REMARK    2  A    between atoms: C4_4  and  C5_5 
REMARK    3  A    between atoms: C6_6  and  C7_7 
REMARK    4  A    between atoms: C7_7  and  S1_8 
REMARK    5  A    between atoms: S1_8  and  C8_9 
REMARK    6  A    between atoms: C9_12  and  C10_13 
REMARK    7  A    between atoms: C16_19  and  O1_20 
ROOT
HETATM    1  C8  UNL     1      23.737   3.100  52.631  1.00  0.00     0.231 A 
HETATM    2  N1  UNL     1      23.097   1.941  52.886  1.00  0.00    -0.114 NA
HETATM    3  N2  UNL     1      24.023   1.049  53.086  1.00  0.00    -0.120 NA
HETATM    4  C9  UNL     1      25.254   1.611  52.964  1.00  0.00     0.206 A 
HETATM    5  O2  UNL     1      25.052   2.893  52.679  1.00  0.00    -0.263 OA
ENDROOT
BRANCH   4   6
HETATM    6  C10 UNL     1      26.481   0.838  53.138  1.00  0.00     0.052 A 
HETATM    7  C11 UNL     1      26.599  -0.497  52.764  1.00  0.00     0.019 A 
HETATM    8  C12 UNL     1      27.799  -1.147  52.968  1.00  0.00     0.008 A 
HETATM    9  C13 UNL     1      28.913  -0.533  53.534  1.00  0.00    -0.059 A 
HETATM   10  C14 UNL     1      30.144  -1.330  53.701  1.00  0.00     0.048 C 
HETATM   11  C15 UNL     1      28.763   0.794  53.895  1.00  0.00     0.044 A 
HETATM   12  C16 UNL     1      27.577   1.473  53.705  1.00  0.00     0.080 A 
BRANCH  12  13
HETATM   13  O1  UNL     1      27.564   2.803  54.112  1.00  0.00    -0.360 OA
HETATM   14  H16 UNL     1      27.050   3.156  54.884  1.00  0.00     0.217 HD
ENDBRANCH  12  13
ENDBRANCH   4   6
BRANCH   1  15
HETATM   15  S1  UNL     1      23.028   4.712  52.272  1.00  0.00    -0.079 SA
BRANCH  15  16
HETATM   16  C7  UNL     1      22.367   4.612  50.584  1.00  0.00     0.110 C 
BRANCH  16  17
HETATM   17  C6  UNL     1      23.311   4.001  49.628  1.00  0.00    -0.016 C 
HETATM   18  C5  UNL     1      23.134   3.352  48.491  1.00  0.00    -0.004 C 
BRANCH  18  19
HETATM   19  C4  UNL     1      21.815   3.110  47.933  1.00  0.00    -0.004 C 
HETATM   20  C3  UNL     1      21.097   2.027  48.190  1.00  0.00    -0.026 C 
BRANCH  20  21
HETATM   21  C2  UNL     1      21.445   0.897  49.039  1.00  0.00    -0.006 C 
HETATM   22  C1  UNL     1      21.022   0.689  50.301  1.00  0.00     0.037 C 
ENDBRANCH  20  21
ENDBRANCH  18  19
ENDBRANCH  16  17
ENDBRANCH  15  16
ENDBRANCH   1  15
TORSDOF 7
ENDMDL
MODEL 5
REMARK VINA RESULT:      -6.7      2.641      3.332
REMARK  7 active torsions:
REMARK  status: ('A' for Active; 'I' for Inactive)
REMARK    1  A    between atoms: C2_2  and  C3_3 
REMARK    2  A    between atoms: C4_4  and  C5_5 
REMARK    3  A    between atoms: C6_6  and  C7_7 
REMARK    4  A    between atoms: C7_7  and  S1_8 
REMARK    5  A    between atoms: S1_8  and  C8_9 
REMARK    6  A    between atoms: C9_12  and  C10_13 
REMARK    7  A    between atoms: C16_19  and  O1_20 
ROOT
HETATM    1  C8  UNL     1      21.722   0.594  52.900  1.00  0.00     0.231 A 
HETATM    2  N1  UNL     1      21.860  -0.708  53.221  1.00  0.00    -0.114 NA
HETATM    3  N2  UNL     1      23.137  -0.914  53.366  1.00  0.00    -0.120 NA
HETATM    4  C9  UNL     1      23.829   0.234  53.144  1.00  0.00     0.206 A 
HETATM    5  O2  UNL     1      22.925   1.164  52.855  1.00  0.00    -0.263 OA
ENDROOT
BRANCH   4   6
HETATM    6  C10 UNL     1      25.285   0.294  53.238  1.00  0.00     0.052 A 
HETATM    7  C11 UNL     1      26.085   0.916  52.285  1.00  0.00     0.019 A 
HETATM    8  C12 UNL     1      27.454   0.922  52.459  1.00  0.00     0.008 A 
HETATM    9  C13 UNL     1      28.087   0.333  53.550  1.00  0.00    -0.059 A 
HETATM   10  C14 UNL     1      29.559   0.403  53.628  1.00  0.00     0.048 C 
HETATM   11  C15 UNL     1      27.265  -0.278  54.479  1.00  0.00     0.044 A 
HETATM   12  C16 UNL     1      25.892  -0.301  54.335  1.00  0.00     0.080 A 
BRANCH  12  13
HETATM   13  O1  UNL     1      25.185  -0.948  55.343  1.00  0.00    -0.360 OA
HETATM   14  H16 UNL     1      25.336  -0.822  56.316  1.00  0.00     0.217 HD
ENDBRANCH  12  13
ENDBRANCH   4   6
BRANCH   1  15
HETATM   15  S1  UNL     1      20.209   1.507  52.570  1.00  0.00    -0.079 SA
BRANCH  15  16
HETATM   16  C7  UNL     1      20.288   2.006  50.826  1.00  0.00     0.110 C 
BRANCH  16  17
HETATM   17  C6  UNL     1      20.929   0.994  49.963  1.00  0.00    -0.016 C 
HETATM   18  C5  UNL     1      21.615   1.087  48.838  1.00  0.00    -0.004 C 
BRANCH  18  19
HETATM   19  C4  UNL     1      21.878   2.362  48.193  1.00  0.00    -0.004 C 
HETATM   20  C3  UNL     1      22.898   3.147  48.508  1.00  0.00    -0.026 C 
BRANCH  20  21
HETATM   21  C2  UNL     1      23.928   2.924  49.511  1.00  0.00    -0.006 C 
HETATM   22  C1  UNL     1      25.129   3.531  49.568  1.00  0.00     0.037 C 
ENDBRANCH  20  21
ENDBRANCH  18  19
ENDBRANCH  16  17
ENDBRANCH  15  16
ENDBRANCH   1  15
TORSDOF 7
ENDMDL
MODEL 6
REMARK VINA RESULT:      -6.7      2.139      6.473
REMARK  7 active torsions:
REMARK  status: ('A' for Active; 'I' for Inactive)
REMARK    1  A    between atoms: C2_2  and  C3_3 
REMARK    2  A    between atoms: C4_4  and  C5_5 
REMARK    3  A    between atoms: C6_6  and  C7_7 
REMARK    4  A    between atoms: C7_7  and  S1_8 
REMARK    5  A    between atoms: S1_8  and  C8_9 
REMARK    6  A    between atoms: C9_12  and  C10_13 
REMARK    7  A    between atoms: C16_19  and  O1_20 
ROOT
HETATM    1  C8  UNL     1      23.769   3.330  50.985  1.00  0.00     0.231 A 
HETATM    2  N1  UNL     1      23.082   3.282  49.826  1.00  0.00    -0.114 NA
HETATM    3  N2  UNL     1      23.701   4.078  49.003  1.00  0.00    -0.120 NA
HETATM    4  C9  UNL     1      24.779   4.641  49.610  1.00  0.00     0.206 A 
HETATM    5  O2  UNL     1      24.802   4.159  50.849  1.00  0.00    -0.263 OA
ENDROOT
BRANCH   4   6
HETATM    6  C10 UNL     1      25.658   5.579  48.918  1.00  0.00     0.052 A 
HETATM    7  C11 UNL     1      25.195   6.721  48.271  1.00  0.00     0.019 A 
HETATM    8  C12 UNL     1      26.101   7.549  47.643  1.00  0.00     0.008 A 
HETATM    9  C13 UNL     1      27.472   7.304  47.619  1.00  0.00    -0.059 A 
HETATM   10  C14 UNL     1      28.344   8.263  46.915  1.00  0.00     0.048 C 
HETATM   11  C15 UNL     1      27.900   6.161  48.270  1.00  0.00     0.044 A 
HETATM   12  C16 UNL     1      27.019   5.311  48.909  1.00  0.00     0.080 A 
BRANCH  12  13
HETATM   13  O1  UNL     1      27.584   4.199  49.524  1.00  0.00    -0.360 OA
HETATM   14  H16 UNL     1      27.967   3.418  49.047  1.00  0.00     0.217 HD
ENDBRANCH  12  13
ENDBRANCH   4   6
BRANCH   1  15
HETATM   15  S1  UNL     1      23.430   2.457  52.520  1.00  0.00    -0.079 SA
BRANCH  15  16
HETATM   16  C7  UNL     1      25.011   1.743  53.057  1.00  0.00     0.110 C 
BRANCH  16  17
HETATM   17  C6  UNL     1      25.694   0.983  51.992  1.00  0.00    -0.016 C 
HETATM   18  C5  UNL     1      26.589   0.011  52.023  1.00  0.00    -0.004 C 
BRANCH  18  19
HETATM   19  C4  UNL     1      27.104  -0.529  53.270  1.00  0.00    -0.004 C 
HETATM   20  C3  UNL     1      28.159  -0.038  53.902  1.00  0.00    -0.026 C 
BRANCH  20  21
HETATM   21  C2  UNL     1      28.996   1.088  53.516  1.00  0.00    -0.006 C 
HETATM   22  C1  UNL     1      28.708   2.392  53.691  1.00  0.00     0.037 C 
ENDBRANCH  20  21
ENDBRANCH  18  19
ENDBRANCH  16  17
ENDBRANCH  15  16
ENDBRANCH   1  15
TORSDOF 7
ENDMDL
MODEL 7
REMARK VINA RESULT:      -6.7      2.371      5.657
REMARK  7 active torsions:
REMARK  status: ('A' for Active; 'I' for Inactive)
REMARK    1  A    between atoms: C2_2  and  C3_3 
REMARK    2  A    between atoms: C4_4  and  C5_5 
REMARK    3  A    between atoms: C6_6  and  C7_7 
REMARK    4  A    between atoms: C7_7  and  S1_8 
REMARK    5  A    between atoms: S1_8  and  C8_9 
REMARK    6  A    between atoms: C9_12  and  C10_13 
REMARK    7  A    between atoms: C16_19  and  O1_20 
ROOT
HETATM    1  C8  UNL     1      21.598   3.344  51.744  1.00  0.00     0.231 A 
HETATM    2  N1  UNL     1      21.809   4.524  52.360  1.00  0.00    -0.114 NA
HETATM    3  N2  UNL     1      22.934   4.984  51.894  1.00  0.00    -0.120 NA
HETATM    4  C9  UNL     1      23.456   4.120  50.984  1.00  0.00     0.206 A 
HETATM    5  O2  UNL     1      22.605   3.102  50.905  1.00  0.00    -0.263 OA
ENDROOT
BRANCH   4   6
HETATM    6  C10 UNL     1      24.718   4.384  50.298  1.00  0.00     0.052 A 
HETATM    7  C11 UNL     1      25.689   3.411  50.090  1.00  0.00     0.019 A 
HETATM    8  C12 UNL     1      26.852   3.754  49.431  1.00  0.00     0.008 A 
HETATM    9  C13 UNL     1      27.111   5.037  48.956  1.00  0.00    -0.059 A 
HETATM   10  C14 UNL     1      28.391   5.285  48.266  1.00  0.00     0.048 C 
HETATM   11  C15 UNL     1      26.126   5.982  49.180  1.00  0.00     0.044 A 
HETATM   12  C16 UNL     1      24.951   5.672  49.835  1.00  0.00     0.080 A 
BRANCH  12  13
HETATM   13  O1  UNL     1      24.046   6.717  49.991  1.00  0.00    -0.360 OA
HETATM   14  H16 UNL     1      23.123   6.729  49.628  1.00  0.00     0.217 HD
ENDBRANCH  12  13
ENDBRANCH   4   6
BRANCH   1  15
HETATM   15  S1  UNL     1      20.220   2.209  51.947  1.00  0.00    -0.079 SA
BRANCH  15  16
HETATM   16  C7  UNL     1      20.745   0.990  53.185  1.00  0.00     0.110 C 
BRANCH  16  17
HETATM   17  C6  UNL     1      21.702  -0.000  52.653  1.00  0.00    -0.016 C 
HETATM   18  C5  UNL     1      23.021  -0.070  52.680  1.00  0.00    -0.004 C 
BRANCH  18  19
HETATM   19  C4  UNL     1      23.838   0.947  53.320  1.00  0.00    -0.004 C 
HETATM   20  C3  UNL     1      25.128   1.118  53.070  1.00  0.00    -0.026 C 
BRANCH  20  21
HETATM   21  C2  UNL     1      25.973   0.370  52.150  1.00  0.00    -0.006 C 
HETATM   22  C1  UNL     1      26.680  -0.738  52.441  1.00  0.00     0.037 C 
ENDBRANCH  20  21
ENDBRANCH  18  19
ENDBRANCH  16  17
ENDBRANCH  15  16
ENDBRANCH   1  15
TORSDOF 7
ENDMDL
MODEL 8
REMARK VINA RESULT:      -6.6      1.447      2.052
REMARK  7 active torsions:
REMARK  status: ('A' for Active; 'I' for Inactive)
REMARK    1  A    between atoms: C2_2  and  C3_3 
REMARK    2  A    between atoms: C4_4  and  C5_5 
REMARK    3  A    between atoms: C6_6  and  C7_7 
REMARK    4  A    between atoms: C7_7  and  S1_8 
REMARK    5  A    between atoms: S1_8  and  C8_9 
REMARK    6  A    between atoms: C9_12  and  C10_13 
REMARK    7  A    between atoms: C16_19  and  O1_20 
ROOT
HETATM    1  C8  UNL     1      23.847   3.666  51.648  1.00  0.00     0.231 A 
HETATM    2  N1  UNL     1      23.572   3.593  52.966  1.00  0.00    -0.114 NA
HETATM    3  N2  UNL     1      24.510   2.861  53.494  1.00  0.00    -0.120 NA
HETATM    4  C9  UNL     1      25.389   2.459  52.539  1.00  0.00     0.206 A 
HETATM    5  O2  UNL     1      24.956   2.973  51.393  1.00  0.00    -0.263 OA
ENDROOT
BRANCH   4   6
HETATM    6  C10 UNL     1      26.546   1.623  52.851  1.00  0.00     0.052 A 
HETATM    7  C11 UNL     1      27.825   2.135  53.039  1.00  0.00     0.019 A 
HETATM    8  C12 UNL     1      28.858   1.267  53.330  1.00  0.00     0.008 A 
HETATM    9  C13 UNL     1      28.688  -0.110  53.448  1.00  0.00    -0.059 A 
HETATM   10  C14 UNL     1      29.869  -0.938  53.763  1.00  0.00     0.048 C 
HETATM   11  C15 UNL     1      27.405  -0.587  53.254  1.00  0.00     0.044 A 
HETATM   12  C16 UNL     1      26.350   0.254  52.962  1.00  0.00     0.080 A 
BRANCH  12  13
HETATM   13  O1  UNL     1      25.112  -0.358  52.793  1.00  0.00    -0.360 OA
HETATM   14  H16 UNL     1      24.848  -0.900  52.005  1.00  0.00     0.217 HD
ENDBRANCH  12  13
ENDBRANCH   4   6
BRANCH   1  15
HETATM   15  S1  UNL     1      22.933   4.529  50.364  1.00  0.00    -0.079 SA
BRANCH  15  16
HETATM   16  C7  UNL     1      24.035   4.612  48.924  1.00  0.00     0.110 C 
BRANCH  16  17
HETATM   17  C6  UNL     1      24.823   5.859  48.870  1.00  0.00    -0.016 C 
HETATM   18  C5  UNL     1      26.122   6.091  48.802  1.00  0.00    -0.004 C 
BRANCH  18  19
HETATM   19  C4  UNL     1      27.101   5.018  48.766  1.00  0.00    -0.004 C 
HETATM   20  C3  UNL     1      28.375   5.197  48.454  1.00  0.00    -0.026 C 
BRANCH  20  21
HETATM   21  C2  UNL     1      29.049   6.437  48.097  1.00  0.00    -0.006 C 
HETATM   22  C1  UNL     1      30.179   6.549  47.373  1.00  0.00     0.037 C 
ENDBRANCH  20  21
ENDBRANCH  18  19
ENDBRANCH  16  17
ENDBRANCH  15  16
ENDBRANCH   1  15
TORSDOF 7
ENDMDL
MODEL 9
REMARK VINA RESULT:      -6.6      2.553      3.644
REMARK  7 active torsions:
REMARK  status: ('A' for Active; 'I' for Inactive)
REMARK    1  A    between atoms: C2_2  and  C3_3 
REMARK    2  A    between atoms: C4_4  and  C5_5 
REMARK    3  A    between atoms: C6_6  and  C7_7 
REMARK    4  A    between atoms: C7_7  and  S1_8 
REMARK    5  A    between atoms: S1_8  and  C8_9 
REMARK    6  A    between atoms: C9_12  and  C10_13 
REMARK    7  A    between atoms: C16_19  and  O1_20 
ROOT
HETATM    1  C8  UNL     1      23.834   5.454  51.247  1.00  0.00     0.231 A 
HETATM    2  N1  UNL     1      23.095   5.172  52.338  1.00  0.00    -0.114 NA
HETATM    3  N2  UNL     1      23.468   3.991  52.736  1.00  0.00    -0.120 NA
HETATM    4  C9  UNL     1      24.439   3.502  51.921  1.00  0.00     0.206 A 
HETATM    5  O2  UNL     1      24.653   4.433  50.996  1.00  0.00    -0.263 OA
ENDROOT
BRANCH   4   6
HETATM    6  C10 UNL     1      25.045   2.191  52.134  1.00  0.00     0.052 A 
HETATM    7  C11 UNL     1      24.340   1.097  52.626  1.00  0.00     0.019 A 
HETATM    8  C12 UNL     1      24.997  -0.104  52.795  1.00  0.00     0.008 A 
HETATM    9  C13 UNL     1      26.345  -0.285  52.498  1.00  0.00    -0.059 A 
HETATM   10  C14 UNL     1      26.940  -1.617  52.720  1.00  0.00     0.048 C 
HETATM   11  C15 UNL     1      27.019   0.821  52.012  1.00  0.00     0.044 A 
HETATM   12  C16 UNL     1      26.390   2.037  51.831  1.00  0.00     0.080 A 
BRANCH  12  13
HETATM   13  O1  UNL     1      27.185   3.065  51.334  1.00  0.00    -0.360 OA
HETATM   14  H16 UNL     1      27.824   2.978  50.580  1.00  0.00     0.217 HD
ENDBRANCH  12  13
ENDBRANCH   4   6
BRANCH   1  15
HETATM   15  S1  UNL     1      23.800   6.933  50.226  1.00  0.00    -0.079 SA
BRANCH  15  16
HETATM   16  C7  UNL     1      23.379   6.383  48.548  1.00  0.00     0.110 C 
BRANCH  16  17
HETATM   17  C6  UNL     1      22.065   5.714  48.472  1.00  0.00    -0.016 C 
HETATM   18  C5  UNL     1      21.715   4.455  48.276  1.00  0.00    -0.004 C 
BRANCH  18  19
HETATM   19  C4  UNL     1      22.694   3.400  48.081  1.00  0.00    -0.004 C 
HETATM   20  C3  UNL     1      22.754   2.307  48.827  1.00  0.00    -0.026 C 
BRANCH  20  21
HETATM   21  C2  UNL     1      21.900   1.933  49.945  1.00  0.00    -0.006 C 
HETATM   22  C1  UNL     1      21.295   0.743  50.123  1.00  0.00     0.037 C 
ENDBRANCH  20  21
ENDBRANCH  18  19
ENDBRANCH  16  17
ENDBRANCH  15  16
ENDBRANCH   1  15
TORSDOF 7
ENDMDL
