MODEL 1
REMARK VINA RESULT:      -8.8      0.000      0.000
REMARK  4 active torsions:
REMARK  status: ('A' for Active; 'I' for Inactive)
REMARK    1  A    between atoms: C4_5  and  C5_6 
REMARK    2  A    between atoms: C5_6  and  O1_7 
REMARK    3  A    between atoms: C6_8  and  S1_9 
REMARK    4  A    between atoms: S1_9  and  C7_10 
ROOT
HETATM    1  C7  UNL     1      24.531  -0.246  53.667  1.00  0.00     0.114 A 
HETATM    2  N2  UNL     1      25.145  -0.927  54.623  1.00  0.00    -0.234 NA
HETATM    3  C8  UNL     1      24.476  -1.474  55.641  1.00  0.00     0.235 A 
HETATM    4  N3  UNL     1      23.151  -1.309  55.666  1.00  0.00    -0.234 NA
HETATM    5  C9  UNL     1      22.490  -0.632  54.723  1.00  0.00     0.113 A 
HETATM    6  S2  UNL     1      20.762  -0.205  54.367  1.00  0.00    -0.073 SA
HETATM    7  C10 UNL     1      21.049   0.679  52.866  1.00  0.00    -0.008 A 
HETATM    8  C11 UNL     1      22.448   0.621  52.689  1.00  0.00    -0.029 A 
HETATM    9  C12 UNL     1      23.178  -0.037  53.622  1.00  0.00     0.043 A 
HETATM   10  C13 UNL     1      22.733   1.325  51.421  1.00  0.00     0.040 C 
HETATM   11  C14 UNL     1      21.908   0.744  50.292  1.00  0.00     0.005 C 
HETATM   12  C15 UNL     1      20.428   0.922  50.527  1.00  0.00     0.005 C 
HETATM   13  C16 UNL     1      20.136   1.341  51.952  1.00  0.00     0.047 C 
ENDROOT
BRANCH   1  14
HETATM   14  S1  UNL     1      25.700   0.341  52.455  1.00  0.00    -0.051 SA
BRANCH  14  15
HETATM   15  C6  UNL     1      27.378   0.191  53.039  1.00  0.00     0.086 A 
HETATM   16  N1  UNL     1      28.366   0.957  53.522  1.00  0.00    -0.355 N 
HETATM   17  C1  UNL     1      28.098   2.358  53.710  1.00  0.00     0.156 C 
HETATM   18  C2  UNL     1      29.501   0.311  53.787  1.00  0.00     0.092 A 
HETATM   19  C3  UNL     1      29.214  -0.989  53.443  1.00  0.00     0.029 A 
HETATM   20  C4  UNL     1      27.899  -1.099  52.973  1.00  0.00     0.001 A 
BRANCH  20  21
HETATM   21  C5  UNL     1      27.307  -2.396  52.530  1.00  0.00     0.205 C 
BRANCH  21  22
HETATM   22  O1  UNL     1      28.283  -3.379  52.823  1.00  0.00    -0.396 OA
HETATM   23  H8  UNL     1      28.929  -3.465  52.066  1.00  0.00     0.209 HD
ENDBRANCH  21  22
ENDBRANCH  20  21
ENDBRANCH  14  15
ENDBRANCH   1  14
TORSDOF 4
ENDMDL
MODEL 2
REMARK VINA RESULT:      -8.7      2.154      3.094
REMARK  4 active torsions:
REMARK  status: ('A' for Active; 'I' for Inactive)
REMARK    1  A    between atoms: C4_5  and  C5_6 
REMARK    2  A    between atoms: C5_6  and  O1_7 
REMARK    3  A    between atoms: C6_8  and  S1_9 
REMARK    4  A    between atoms: S1_9  and  C7_10 
ROOT
HETATM    1  C7  UNL     1      25.538   1.248  52.599  1.00  0.00     0.114 A 
HETATM    2  N2  UNL     1      26.471   2.030  52.078  1.00  0.00    -0.234 NA
HETATM    3  C8  UNL     1      26.215   2.847  51.052  1.00  0.00     0.235 A 
HETATM    4  N3  UNL     1      24.973   2.849  50.562  1.00  0.00    -0.234 NA
HETATM    5  C9  UNL     1      24.000   2.078  51.058  1.00  0.00     0.113 A 
HETATM    6  S2  UNL     1      22.238   1.797  50.726  1.00  0.00    -0.073 SA
HETATM    7  C10 UNL     1      21.954   0.600  51.994  1.00  0.00    -0.008 A 
HETATM    8  C11 UNL     1      23.210   0.456  52.623  1.00  0.00    -0.029 A 
HETATM    9  C12 UNL     1      24.244   1.196  52.154  1.00  0.00     0.043 A 
HETATM   10  C13 UNL     1      23.013  -0.518  53.717  1.00  0.00     0.040 C 
HETATM   11  C14 UNL     1      21.878  -0.083  54.620  1.00  0.00     0.005 C 
HETATM   12  C15 UNL     1      20.561  -0.033  53.883  1.00  0.00     0.005 C 
HETATM   13  C16 UNL     1      20.756  -0.120  52.384  1.00  0.00     0.047 C 
ENDROOT
BRANCH   1  14
HETATM   14  S1  UNL     1      26.195   0.295  53.956  1.00  0.00    -0.051 SA
BRANCH  14  15
HETATM   15  C6  UNL     1      27.946   0.018  53.772  1.00  0.00     0.086 A 
HETATM   16  N1  UNL     1      29.109   0.655  53.965  1.00  0.00    -0.355 N 
HETATM   17  C1  UNL     1      29.064   1.979  54.528  1.00  0.00     0.156 C 
HETATM   18  C2  UNL     1      30.194  -0.034  53.612  1.00  0.00     0.092 A 
HETATM   19  C3  UNL     1      29.679  -1.223  53.153  1.00  0.00     0.029 A 
HETATM   20  C4  UNL     1      28.281  -1.224  53.239  1.00  0.00     0.001 A 
BRANCH  20  21
HETATM   21  C5  UNL     1      27.448  -2.389  52.814  1.00  0.00     0.205 C 
BRANCH  21  22
HETATM   22  O1  UNL     1      28.310  -3.511  52.865  1.00  0.00    -0.396 OA
HETATM   23  H8  UNL     1      28.664  -3.637  53.791  1.00  0.00     0.209 HD
ENDBRANCH  21  22
ENDBRANCH  20  21
ENDBRANCH  14  15
ENDBRANCH   1  14
TORSDOF 4
ENDMDL
MODEL 3
REMARK VINA RESULT:      -8.7      1.480      2.174
REMARK  4 active torsions:
REMARK  status: ('A' for Active; 'I' for Inactive)
REMARK    1  A    between atoms: C4_5  and  C5_6 
REMARK    2  A    between atoms: C5_6  and  O1_7 
REMARK    3  A    between atoms: C6_8  and  S1_9 
REMARK    4  A    between atoms: S1_9  and  C7_10 
ROOT
HETATM    1  C7  UNL     1      24.480  -0.124  53.800  1.00  0.00     0.114 A 
HETATM    2  N2  UNL     1      25.057  -0.834  54.757  1.00  0.00    -0.234 NA
HETATM    3  C8  UNL     1      24.345  -1.506  55.666  1.00  0.00     0.235 A 
HETATM    4  N3  UNL     1      23.015  -1.438  55.577  1.00  0.00    -0.234 NA
HETATM    5  C9  UNL     1      22.389  -0.737  54.628  1.00  0.00     0.113 A 
HETATM    6  S2  UNL     1      20.672  -0.408  54.143  1.00  0.00    -0.073 SA
HETATM    7  C10 UNL     1      21.020   0.612  52.743  1.00  0.00    -0.008 A 
HETATM    8  C11 UNL     1      22.430   0.667  52.696  1.00  0.00    -0.029 A 
HETATM    9  C12 UNL     1      23.124  -0.009  53.643  1.00  0.00     0.043 A 
HETATM   10  C13 UNL     1      22.771   1.489  51.515  1.00  0.00     0.040 C 
HETATM   11  C14 UNL     1      22.097   0.942  50.273  1.00  0.00     0.005 C 
HETATM   12  C15 UNL     1      20.593   0.995  50.380  1.00  0.00     0.005 C 
HETATM   13  C16 UNL     1      20.143   1.278  51.798  1.00  0.00     0.047 C 
ENDROOT
BRANCH   1  14
HETATM   14  S1  UNL     1      25.702   0.639  52.750  1.00  0.00    -0.051 SA
BRANCH  14  15
HETATM   15  C6  UNL     1      27.325  -0.041  53.035  1.00  0.00     0.086 A 
HETATM   16  N1  UNL     1      27.966  -1.217  52.986  1.00  0.00    -0.355 N 
HETATM   17  C1  UNL     1      27.224  -2.367  52.540  1.00  0.00     0.156 C 
HETATM   18  C2  UNL     1      29.246  -1.177  53.354  1.00  0.00     0.092 A 
HETATM   19  C3  UNL     1      29.445   0.147  53.667  1.00  0.00     0.029 A 
HETATM   20  C4  UNL     1      28.268   0.883  53.480  1.00  0.00     0.001 A 
BRANCH  20  21
HETATM   21  C5  UNL     1      28.186   2.352  53.737  1.00  0.00     0.205 C 
BRANCH  21  22
HETATM   22  O1  UNL     1      29.248   2.927  52.999  1.00  0.00    -0.396 OA
HETATM   23  H8  UNL     1      29.813   3.501  53.590  1.00  0.00     0.209 HD
ENDBRANCH  21  22
ENDBRANCH  20  21
ENDBRANCH  14  15
ENDBRANCH   1  14
TORSDOF 4
ENDMDL
MODEL 4
REMARK VINA RESULT:      -8.6      2.553      3.973
REMARK  4 active torsions:
REMARK  status: ('A' for Active; 'I' for Inactive)
REMARK    1  A    between atoms: C4_5  and  C5_6 
REMARK    2  A    between atoms: C5_6  and  O1_7 
REMARK    3  A    between atoms: C6_8  and  S1_9 
REMARK    4  A    between atoms: S1_9  and  C7_10 
ROOT
HETATM    1  C7  UNL     1      25.622   1.845  52.158  1.00  0.00     0.114 A 
HETATM    2  N2  UNL     1      26.594   2.608  51.681  1.00  0.00    -0.234 NA
HETATM    3  C8  UNL     1      26.452   3.311  50.554  1.00  0.00     0.235 A 
HETATM    4  N3  UNL     1      25.282   3.220  49.916  1.00  0.00    -0.234 NA
HETATM    5  C9  UNL     1      24.273   2.465  50.361  1.00  0.00     0.113 A 
HETATM    6  S2  UNL     1      22.576   2.089  49.843  1.00  0.00    -0.073 SA
HETATM    7  C10 UNL     1      22.162   1.010  51.179  1.00  0.00    -0.008 A 
HETATM    8  C11 UNL     1      23.331   0.973  51.971  1.00  0.00    -0.029 A 
HETATM    9  C12 UNL     1      24.397   1.703  51.563  1.00  0.00     0.043 A 
HETATM   10  C13 UNL     1      23.019   0.103  53.125  1.00  0.00     0.040 C 
HETATM   11  C14 UNL     1      21.768   0.580  53.830  1.00  0.00     0.005 C 
HETATM   12  C15 UNL     1      20.555   0.511  52.935  1.00  0.00     0.005 C 
HETATM   13  C16 UNL     1      20.942   0.287  51.488  1.00  0.00     0.047 C 
ENDROOT
BRANCH   1  14
HETATM   14  S1  UNL     1      26.124   1.052  53.674  1.00  0.00    -0.051 SA
BRANCH  14  15
HETATM   15  C6  UNL     1      27.595   0.073  53.444  1.00  0.00     0.086 A 
HETATM   16  N1  UNL     1      27.955  -1.161  53.064  1.00  0.00    -0.355 N 
HETATM   17  C1  UNL     1      26.914  -2.067  52.654  1.00  0.00     0.156 C 
HETATM   18  C2  UNL     1      29.264  -1.404  53.104  1.00  0.00     0.092 A 
HETATM   19  C3  UNL     1      29.794  -0.215  53.548  1.00  0.00     0.029 A 
HETATM   20  C4  UNL     1      28.781   0.727  53.769  1.00  0.00     0.001 A 
BRANCH  20  21
HETATM   21  C5  UNL     1      29.060   2.112  54.251  1.00  0.00     0.205 C 
BRANCH  21  22
HETATM   22  O1  UNL     1      29.199   2.900  53.083  1.00  0.00    -0.396 OA
HETATM   23  H8  UNL     1      30.162   3.107  52.915  1.00  0.00     0.209 HD
ENDBRANCH  21  22
ENDBRANCH  20  21
ENDBRANCH  14  15
ENDBRANCH   1  14
TORSDOF 4
ENDMDL
MODEL 5
REMARK VINA RESULT:      -7.9      2.698      3.367
REMARK  4 active torsions:
REMARK  status: ('A' for Active; 'I' for Inactive)
REMARK    1  A    between atoms: C4_5  and  C5_6 
REMARK    2  A    between atoms: C5_6  and  O1_7 
REMARK    3  A    between atoms: C6_8  and  S1_9 
REMARK    4  A    between atoms: S1_9  and  C7_10 
ROOT
HETATM    1  C7  UNL     1      24.899   0.954  52.156  1.00  0.00     0.114 A 
HETATM    2  N2  UNL     1      24.305  -0.025  52.820  1.00  0.00    -0.234 NA
HETATM    3  C8  UNL     1      23.108   0.134  53.392  1.00  0.00     0.235 A 
HETATM    4  N3  UNL     1      22.523   1.329  53.272  1.00  0.00    -0.234 NA
HETATM    5  C9  UNL     1      23.084   2.345  52.610  1.00  0.00     0.113 A 
HETATM    6  S2  UNL     1      22.646   4.056  52.196  1.00  0.00    -0.073 SA
HETATM    7  C10 UNL     1      24.101   4.449  51.274  1.00  0.00    -0.008 A 
HETATM    8  C11 UNL     1      24.869   3.265  51.316  1.00  0.00    -0.029 A 
HETATM    9  C12 UNL     1      24.362   2.203  51.988  1.00  0.00     0.043 A 
HETATM   10  C13 UNL     1      26.088   3.538  50.525  1.00  0.00     0.040 C 
HETATM   11  C14 UNL     1      25.726   4.033  49.141  1.00  0.00     0.005 C 
HETATM   12  C15 UNL     1      24.977   5.342  49.190  1.00  0.00     0.005 C 
HETATM   13  C16 UNL     1      24.506   5.664  50.592  1.00  0.00     0.047 C 
ENDROOT
BRANCH   1  14
HETATM   14  S1  UNL     1      26.471   0.419  51.508  1.00  0.00    -0.051 SA
BRANCH  14  15
HETATM   15  C6  UNL     1      27.688   0.250  52.800  1.00  0.00     0.086 A 
HETATM   16  N1  UNL     1      28.460   1.014  53.585  1.00  0.00    -0.355 N 
HETATM   17  C1  UNL     1      28.331   2.443  53.467  1.00  0.00     0.156 C 
HETATM   18  C2  UNL     1      29.266   0.343  54.407  1.00  0.00     0.092 A 
HETATM   19  C3  UNL     1      28.983  -0.972  54.124  1.00  0.00     0.029 A 
HETATM   20  C4  UNL     1      28.004  -1.066  53.127  1.00  0.00     0.001 A 
BRANCH  20  21
HETATM   21  C5  UNL     1      27.494  -2.374  52.618  1.00  0.00     0.205 C 
BRANCH  21  22
HETATM   22  O1  UNL     1      28.481  -3.327  52.963  1.00  0.00    -0.396 OA
HETATM   23  H8  UNL     1      28.074  -4.236  53.050  1.00  0.00     0.209 HD
ENDBRANCH  21  22
ENDBRANCH  20  21
ENDBRANCH  14  15
ENDBRANCH   1  14
TORSDOF 4
ENDMDL
MODEL 6
REMARK VINA RESULT:      -7.7      4.250      5.637
REMARK  4 active torsions:
REMARK  status: ('A' for Active; 'I' for Inactive)
REMARK    1  A    between atoms: C4_5  and  C5_6 
REMARK    2  A    between atoms: C5_6  and  O1_7 
REMARK    3  A    between atoms: C6_8  and  S1_9 
REMARK    4  A    between atoms: S1_9  and  C7_10 
ROOT
HETATM    1  C7  UNL     1      25.618   2.564  50.982  1.00  0.00     0.114 A 
HETATM    2  N2  UNL     1      26.913   2.632  51.248  1.00  0.00    -0.234 NA
HETATM    3  C8  UNL     1      27.462   1.958  52.263  1.00  0.00     0.235 A 
HETATM    4  N3  UNL     1      26.652   1.204  53.010  1.00  0.00    -0.234 NA
HETATM    5  C9  UNL     1      25.340   1.104  52.777  1.00  0.00     0.113 A 
HETATM    6  S2  UNL     1      23.934   0.211  53.497  1.00  0.00    -0.073 SA
HETATM    7  C10 UNL     1      22.695   0.798  52.383  1.00  0.00    -0.008 A 
HETATM    8  C11 UNL     1      23.395   1.653  51.505  1.00  0.00    -0.029 A 
HETATM    9  C12 UNL     1      24.726   1.812  51.700  1.00  0.00     0.043 A 
HETATM   10  C13 UNL     1      22.398   2.145  50.529  1.00  0.00     0.040 C 
HETATM   11  C14 UNL     1      21.676   0.987  49.874  1.00  0.00     0.005 C 
HETATM   12  C15 UNL     1      20.892   0.175  50.876  1.00  0.00     0.005 C 
HETATM   13  C16 UNL     1      21.272   0.524  52.299  1.00  0.00     0.047 C 
ENDROOT
BRANCH   1  14
HETATM   14  S1  UNL     1      25.208   3.566  49.565  1.00  0.00    -0.051 SA
BRANCH  14  15
HETATM   15  C6  UNL     1      25.217   5.302  49.968  1.00  0.00     0.086 A 
HETATM   16  N1  UNL     1      24.501   6.195  50.666  1.00  0.00    -0.355 N 
HETATM   17  C1  UNL     1      23.358   5.714  51.396  1.00  0.00     0.156 C 
HETATM   18  C2  UNL     1      24.951   7.447  50.607  1.00  0.00     0.092 A 
HETATM   19  C3  UNL     1      26.059   7.349  49.797  1.00  0.00     0.029 A 
HETATM   20  C4  UNL     1      26.253   6.025  49.382  1.00  0.00     0.001 A 
BRANCH  20  21
HETATM   21  C5  UNL     1      27.384   5.616  48.497  1.00  0.00     0.205 C 
BRANCH  21  22
HETATM   22  O1  UNL     1      28.289   4.921  49.334  1.00  0.00    -0.396 OA
HETATM   23  H8  UNL     1      27.988   4.965  50.286  1.00  0.00     0.209 HD
ENDBRANCH  21  22
ENDBRANCH  20  21
ENDBRANCH  14  15
ENDBRANCH   1  14
TORSDOF 4
ENDMDL
MODEL 7
REMARK VINA RESULT:      -7.7      2.303      3.030
REMARK  4 active torsions:
REMARK  status: ('A' for Active; 'I' for Inactive)
REMARK    1  A    between atoms: C4_5  and  C5_6 
REMARK    2  A    between atoms: C5_6  and  O1_7 
REMARK    3  A    between atoms: C6_8  and  S1_9 
REMARK    4  A    between atoms: S1_9  and  C7_10 
ROOT
HETATM    1  C7  UNL     1      24.739   0.720  52.527  1.00  0.00     0.114 A 
HETATM    2  N2  UNL     1      24.768  -0.280  53.394  1.00  0.00    -0.234 NA
HETATM    3  C8  UNL     1      23.683  -0.654  54.078  1.00  0.00     0.235 A 
HETATM    4  N3  UNL     1      22.553   0.022  53.855  1.00  0.00    -0.234 NA
HETATM    5  C9  UNL     1      22.476   1.036  52.989  1.00  0.00     0.113 A 
HETATM    6  S2  UNL     1      21.190   2.164  52.385  1.00  0.00    -0.073 SA
HETATM    7  C10 UNL     1      22.193   3.067  51.246  1.00  0.00    -0.008 A 
HETATM    8  C11 UNL     1      23.471   2.480  51.367  1.00  0.00    -0.029 A 
HETATM    9  C12 UNL     1      23.619   1.457  52.244  1.00  0.00     0.043 A 
HETATM   10  C13 UNL     1      24.342   3.186  50.403  1.00  0.00     0.040 C 
HETATM   11  C14 UNL     1      23.738   3.154  49.015  1.00  0.00     0.005 C 
HETATM   12  C15 UNL     1      22.412   3.873  48.962  1.00  0.00     0.005 C 
HETATM   13  C16 UNL     1      21.878   4.164  50.349  1.00  0.00     0.047 C 
ENDROOT
BRANCH   1  14
HETATM   14  S1  UNL     1      26.339   0.959  51.778  1.00  0.00    -0.051 SA
BRANCH  14  15
HETATM   15  C6  UNL     1      27.622   0.133  52.701  1.00  0.00     0.086 A 
HETATM   16  N1  UNL     1      28.021  -1.107  53.014  1.00  0.00    -0.355 N 
HETATM   17  C1  UNL     1      27.281  -2.210  52.460  1.00  0.00     0.156 C 
HETATM   18  C2  UNL     1      29.087  -1.172  53.811  1.00  0.00     0.092 A 
HETATM   19  C3  UNL     1      29.401   0.149  54.027  1.00  0.00     0.029 A 
HETATM   20  C4  UNL     1      28.508   0.989  53.350  1.00  0.00     0.001 A 
BRANCH  20  21
HETATM   21  C5  UNL     1      28.608   2.478  53.398  1.00  0.00     0.205 C 
BRANCH  21  22
HETATM   22  O1  UNL     1      27.517   2.906  54.192  1.00  0.00    -0.396 OA
HETATM   23  H8  UNL     1      26.712   3.066  53.622  1.00  0.00     0.209 HD
ENDBRANCH  21  22
ENDBRANCH  20  21
ENDBRANCH  14  15
ENDBRANCH   1  14
TORSDOF 4
ENDMDL
MODEL 8
REMARK VINA RESULT:      -7.4      3.431      5.731
REMARK  4 active torsions:
REMARK  status: ('A' for Active; 'I' for Inactive)
REMARK    1  A    between atoms: C4_5  and  C5_6 
REMARK    2  A    between atoms: C5_6  and  O1_7 
REMARK    3  A    between atoms: C6_8  and  S1_9 
REMARK    4  A    between atoms: S1_9  and  C7_10 
ROOT
HETATM    1  C7  UNL     1      21.736   0.672  51.774  1.00  0.00     0.114 A 
HETATM    2  N2  UNL     1      20.421   0.625  51.626  1.00  0.00    -0.234 NA
HETATM    3  C8  UNL     1      19.635  -0.018  52.493  1.00  0.00     0.235 A 
HETATM    4  N3  UNL     1      20.225  -0.620  53.528  1.00  0.00    -0.234 NA
HETATM    5  C9  UNL     1      21.548  -0.598  53.720  1.00  0.00     0.113 A 
HETATM    6  S2  UNL     1      22.716  -1.234  54.953  1.00  0.00    -0.073 SA
HETATM    7  C10 UNL     1      24.191  -0.589  54.226  1.00  0.00    -0.008 A 
HETATM    8  C11 UNL     1      23.742   0.085  53.070  1.00  0.00    -0.029 A 
HETATM    9  C12 UNL     1      22.413   0.083  52.809  1.00  0.00     0.043 A 
HETATM   10  C13 UNL     1      24.946   0.671  52.442  1.00  0.00     0.040 C 
HETATM   11  C14 UNL     1      25.707   1.520  53.438  1.00  0.00     0.005 C 
HETATM   12  C15 UNL     1      26.217   0.703  54.600  1.00  0.00     0.005 C 
HETATM   13  C16 UNL     1      25.580  -0.670  54.639  1.00  0.00     0.047 C 
ENDROOT
BRANCH   1  14
HETATM   14  S1  UNL     1      22.490   1.613  50.461  1.00  0.00    -0.051 SA
BRANCH  14  15
HETATM   15  C6  UNL     1      22.636   3.337  50.891  1.00  0.00     0.086 A 
HETATM   16  N1  UNL     1      21.891   4.334  51.387  1.00  0.00    -0.355 N 
HETATM   17  C1  UNL     1      20.534   4.036  51.765  1.00  0.00     0.156 C 
HETATM   18  C2  UNL     1      22.514   5.508  51.483  1.00  0.00     0.092 A 
HETATM   19  C3  UNL     1      23.775   5.238  51.006  1.00  0.00     0.029 A 
HETATM   20  C4  UNL     1      23.885   3.894  50.629  1.00  0.00     0.001 A 
BRANCH  20  21
HETATM   21  C5  UNL     1      25.144   3.312  50.078  1.00  0.00     0.205 C 
BRANCH  21  22
HETATM   22  O1  UNL     1      26.194   3.912  50.814  1.00  0.00    -0.396 OA
HETATM   23  H8  UNL     1      26.412   4.813  50.441  1.00  0.00     0.209 HD
ENDBRANCH  21  22
ENDBRANCH  20  21
ENDBRANCH  14  15
ENDBRANCH   1  14
TORSDOF 4
ENDMDL
MODEL 9
REMARK VINA RESULT:      -7.4      3.782      6.221
REMARK  4 active torsions:
REMARK  status: ('A' for Active; 'I' for Inactive)
REMARK    1  A    between atoms: C4_5  and  C5_6 
REMARK    2  A    between atoms: C5_6  and  O1_7 
REMARK    3  A    between atoms: C6_8  and  S1_9 
REMARK    4  A    between atoms: S1_9  and  C7_10 
ROOT
HETATM    1  C7  UNL     1      24.286   2.340  51.540  1.00  0.00     0.114 A 
HETATM    2  N2  UNL     1      25.301   2.841  50.854  1.00  0.00    -0.234 NA
HETATM    3  C8  UNL     1      26.537   2.342  50.956  1.00  0.00     0.235 A 
HETATM    4  N3  UNL     1      26.717   1.310  51.783  1.00  0.00    -0.234 NA
HETATM    5  C9  UNL     1      25.722   0.771  52.493  1.00  0.00     0.113 A 
HETATM    6  S2  UNL     1      25.526  -0.599  53.667  1.00  0.00    -0.073 SA
HETATM    7  C10 UNL     1      23.791  -0.418  53.944  1.00  0.00    -0.008 A 
HETATM    8  C11 UNL     1      23.423   0.679  53.136  1.00  0.00    -0.029 A 
HETATM    9  C12 UNL     1      24.391   1.282  52.404  1.00  0.00     0.043 A 
HETATM   10  C13 UNL     1      21.965   0.849  53.311  1.00  0.00     0.040 C 
HETATM   11  C14 UNL     1      21.238  -0.447  53.022  1.00  0.00     0.005 C 
HETATM   12  C15 UNL     1      21.635  -1.541  53.984  1.00  0.00     0.005 C 
HETATM   13  C16 UNL     1      22.869  -1.166  54.778  1.00  0.00     0.047 C 
ENDROOT
BRANCH   1  14
HETATM   14  S1  UNL     1      22.778   3.217  51.173  1.00  0.00    -0.051 SA
BRANCH  14  15
HETATM   15  C6  UNL     1      22.553   3.426  49.417  1.00  0.00     0.086 A 
HETATM   16  N1  UNL     1      22.780   4.332  48.456  1.00  0.00    -0.355 N 
HETATM   17  C1  UNL     1      23.443   5.554  48.830  1.00  0.00     0.156 C 
HETATM   18  C2  UNL     1      22.364   3.980  47.240  1.00  0.00     0.092 A 
HETATM   19  C3  UNL     1      21.821   2.732  47.440  1.00  0.00     0.029 A 
HETATM   20  C4  UNL     1      21.923   2.356  48.785  1.00  0.00     0.001 A 
BRANCH  20  21
HETATM   21  C5  UNL     1      21.422   1.046  49.296  1.00  0.00     0.205 C 
BRANCH  21  22
HETATM   22  O1  UNL     1      20.011   1.117  49.204  1.00  0.00    -0.396 OA
HETATM   23  H8  UNL     1      19.724   1.124  48.247  1.00  0.00     0.209 HD
ENDBRANCH  21  22
ENDBRANCH  20  21
ENDBRANCH  14  15
ENDBRANCH   1  14
TORSDOF 4
ENDMDL
