MODEL 1
REMARK VINA RESULT:      -7.3      0.000      0.000
REMARK  6 active torsions:
REMARK  status: ('A' for Active; 'I' for Inactive)
REMARK    1  A    between atoms: C4_5  and  C5_6 
REMARK    2  A    between atoms: C5_6  and  N1_7 
REMARK    3  A    between atoms: N1_7  and  C6_8 
REMARK    4  A    between atoms: C6_8  and  C7_9 
REMARK    5  A    between atoms: C8_10  and  O1_11 
REMARK    6  A    between atoms: O1_11  and  C9_12 
ROOT
HETATM    1  C7  UNL     1      27.472   0.208  53.028  1.00  0.00     0.025 A 
HETATM    2  C8  UNL     1      27.290   1.327  52.377  1.00  0.00     0.177 A 
HETATM    3  N2  UNL     1      28.046   2.508  52.711  1.00  0.00    -0.240 NA
HETATM    4  C14 UNL     1      28.926   2.517  53.656  1.00  0.00     0.097 A 
HETATM    5  C15 UNL     1      29.508   1.569  54.669  1.00  0.00     0.083 A 
HETATM    6  P1  UNL     1      28.643  -0.053  54.396  1.00  0.00    -0.088 P 
HETATM    7  H16 UNL     1      27.848  -0.347  55.594  1.00  0.00     0.062 HD
ENDROOT
BRANCH   1   8
HETATM    8  C6  UNL     1      26.726  -1.030  52.726  1.00  0.00     0.313 C 
BRANCH   8   9
HETATM    9  N1  UNL     1      25.303  -0.681  52.711  1.00  0.00     0.091 N 
HETATM   10  H5  UNL     1      24.747  -1.417  52.210  1.00  0.00     0.316 HD
BRANCH   9  11
HETATM   11  C5  UNL     1      24.791  -0.616  54.068  1.00  0.00     0.304 C 
BRANCH  11  12
HETATM   12  C4  UNL     1      23.290  -0.716  54.077  1.00  0.00    -0.047 A 
HETATM   13  C3  UNL     1      22.478  -1.242  54.989  1.00  0.00     0.006 A 
HETATM   14  C2  UNL     1      21.079  -1.114  54.571  1.00  0.00     0.020 A 
HETATM   15  C1  UNL     1      21.095  -0.502  53.396  1.00  0.00     0.015 A 
HETATM   16 CL1  UNL     1      19.638  -0.113  52.470  1.00  0.00    -0.089 Cl
HETATM   17  C16 UNL     1      22.470  -0.175  52.936  1.00  0.00     0.087 A 
ENDBRANCH  11  12
ENDBRANCH   9  11
ENDBRANCH   8   9
ENDBRANCH   1   8
BRANCH   2  18
HETATM   18  O1  UNL     1      26.389   1.507  51.336  1.00  0.00    -0.291 OA
BRANCH  18  19
HETATM   19  C9  UNL     1      25.533   2.597  51.452  1.00  0.00     0.083 A 
HETATM   20  C10 UNL     1      25.581   3.513  50.478  1.00  0.00     0.082 A 
HETATM   21  S1  UNL     1      24.601   5.020  50.356  1.00  0.00    -0.135 SA
HETATM   22  C11 UNL     1      23.533   5.038  51.830  1.00  0.00     0.105 A 
HETATM   23  C12 UNL     1      23.794   3.818  52.672  1.00  0.00    -0.013 A 
HETATM   24  C13 UNL     1      24.603   2.802  52.550  1.00  0.00     0.034 A 
ENDBRANCH  18  19
ENDBRANCH   2  18
TORSDOF 6
ENDMDL
MODEL 2
REMARK VINA RESULT:      -6.8      3.851      6.758
REMARK  6 active torsions:
REMARK  status: ('A' for Active; 'I' for Inactive)
REMARK    1  A    between atoms: C4_5  and  C5_6 
REMARK    2  A    between atoms: C5_6  and  N1_7 
REMARK    3  A    between atoms: N1_7  and  C6_8 
REMARK    4  A    between atoms: C6_8  and  C7_9 
REMARK    5  A    between atoms: C8_10  and  O1_11 
REMARK    6  A    between atoms: O1_11  and  C9_12 
ROOT
HETATM    1  C7  UNL     1      23.515   1.191  52.011  1.00  0.00     0.025 A 
HETATM    2  C8  UNL     1      24.571   0.484  52.318  1.00  0.00     0.177 A 
HETATM    3  N2  UNL     1      24.530  -0.477  53.391  1.00  0.00    -0.240 NA
HETATM    4  C14 UNL     1      23.465  -0.682  54.091  1.00  0.00     0.097 A 
HETATM    5  C15 UNL     1      22.048  -0.180  54.170  1.00  0.00     0.083 A 
HETATM    6  P1  UNL     1      21.894   1.100  52.830  1.00  0.00    -0.088 P 
HETATM    7  H16 UNL     1      21.663   2.399  53.474  1.00  0.00     0.062 HD
ENDROOT
BRANCH   1   8
HETATM    8  C6  UNL     1      23.502   2.187  50.921  1.00  0.00     0.313 C 
BRANCH   8   9
HETATM    9  N1  UNL     1      24.443   3.246  51.295  1.00  0.00     0.091 N 
HETATM   10  H5  UNL     1      25.433   2.912  51.199  1.00  0.00     0.316 HD
BRANCH   9  11
HETATM   11  C5  UNL     1      24.293   4.383  50.405  1.00  0.00     0.304 C 
BRANCH  11  12
HETATM   12  C4  UNL     1      25.584   4.676  49.690  1.00  0.00    -0.047 A 
HETATM   13  C3  UNL     1      26.619   3.879  49.442  1.00  0.00     0.006 A 
HETATM   14  C2  UNL     1      27.664   4.602  48.712  1.00  0.00     0.020 A 
HETATM   15  C1  UNL     1      27.214   5.835  48.538  1.00  0.00     0.015 A 
HETATM   16 CL1  UNL     1      28.118   7.104  47.701  1.00  0.00    -0.089 Cl
HETATM   17  C16 UNL     1      25.863   6.042  49.124  1.00  0.00     0.087 A 
ENDBRANCH  11  12
ENDBRANCH   9  11
ENDBRANCH   8   9
ENDBRANCH   1   8
BRANCH   2  18
HETATM   18  O1  UNL     1      25.802   0.568  51.680  1.00  0.00    -0.291 OA
BRANCH  18  19
HETATM   19  C9  UNL     1      26.897   0.815  52.500  1.00  0.00     0.083 A 
HETATM   20  C10 UNL     1      27.593  -0.248  52.920  1.00  0.00     0.082 A 
HETATM   21  S1  UNL     1      29.048  -0.244  53.983  1.00  0.00    -0.135 SA
HETATM   22  C11 UNL     1      29.376   1.505  54.367  1.00  0.00     0.105 A 
HETATM   23  C12 UNL     1      28.355   2.382  53.694  1.00  0.00    -0.013 A 
HETATM   24  C13 UNL     1      27.330   2.136  52.925  1.00  0.00     0.034 A 
ENDBRANCH  18  19
ENDBRANCH   2  18
TORSDOF 6
ENDMDL
MODEL 3
REMARK VINA RESULT:      -6.6      3.004      4.622
REMARK  6 active torsions:
REMARK  status: ('A' for Active; 'I' for Inactive)
REMARK    1  A    between atoms: C4_5  and  C5_6 
REMARK    2  A    between atoms: C5_6  and  N1_7 
REMARK    3  A    between atoms: N1_7  and  C6_8 
REMARK    4  A    between atoms: C6_8  and  C7_9 
REMARK    5  A    between atoms: C8_10  and  O1_11 
REMARK    6  A    between atoms: O1_11  and  C9_12 
ROOT
HETATM    1  C7  UNL     1      24.764   3.468  51.171  1.00  0.00     0.025 A 
HETATM    2  C8  UNL     1      25.728   2.621  50.923  1.00  0.00     0.177 A 
HETATM    3  N2  UNL     1      26.761   2.937  49.969  1.00  0.00    -0.240 NA
HETATM    4  C14 UNL     1      26.784   4.055  49.324  1.00  0.00     0.097 A 
HETATM    5  C15 UNL     1      25.974   5.319  49.221  1.00  0.00     0.083 A 
HETATM    6  P1  UNL     1      24.558   5.106  50.406  1.00  0.00    -0.088 P 
HETATM    7  H16 UNL     1      23.318   5.063  49.622  1.00  0.00     0.062 HD
ENDROOT
BRANCH   1   8
HETATM    8  C6  UNL     1      23.682   3.196  52.138  1.00  0.00     0.313 C 
BRANCH   8   9
HETATM    9  N1  UNL     1      22.473   2.907  51.361  1.00  0.00     0.091 N 
HETATM   10  H5  UNL     1      22.543   3.324  50.401  1.00  0.00     0.316 HD
BRANCH   9  11
HETATM   11  C5  UNL     1      22.322   1.474  51.189  1.00  0.00     0.304 C 
BRANCH  11  12
HETATM   12  C4  UNL     1      22.062   0.802  52.509  1.00  0.00    -0.047 A 
HETATM   13  C3  UNL     1      20.999   0.871  53.305  1.00  0.00     0.006 A 
HETATM   14  C2  UNL     1      21.191   0.042  54.498  1.00  0.00     0.020 A 
HETATM   15  C1  UNL     1      22.388  -0.513  54.379  1.00  0.00     0.015 A 
HETATM   16 CL1  UNL     1      23.087  -1.612  55.576  1.00  0.00    -0.089 Cl
HETATM   17  C16 UNL     1      23.086  -0.113  53.128  1.00  0.00     0.087 A 
ENDBRANCH  11  12
ENDBRANCH   9  11
ENDBRANCH   8   9
ENDBRANCH   1   8
BRANCH   2  18
HETATM   18  O1  UNL     1      25.867   1.374  51.517  1.00  0.00    -0.291 OA
BRANCH  18  19
HETATM   19  C9  UNL     1      26.943   1.230  52.386  1.00  0.00     0.083 A 
HETATM   20  C10 UNL     1      27.327  -0.018  52.677  1.00  0.00     0.082 A 
HETATM   21  S1  UNL     1      28.676  -0.515  53.762  1.00  0.00    -0.135 SA
HETATM   22  C11 UNL     1      29.410   1.032  54.381  1.00  0.00     0.105 A 
HETATM   23  C12 UNL     1      28.680   2.215  53.807  1.00  0.00    -0.013 A 
HETATM   24  C13 UNL     1      27.669   2.335  52.991  1.00  0.00     0.034 A 
ENDBRANCH  18  19
ENDBRANCH   2  18
TORSDOF 6
ENDMDL
MODEL 4
REMARK VINA RESULT:      -6.6      3.871      5.768
REMARK  6 active torsions:
REMARK  status: ('A' for Active; 'I' for Inactive)
REMARK    1  A    between atoms: C4_5  and  C5_6 
REMARK    2  A    between atoms: C5_6  and  N1_7 
REMARK    3  A    between atoms: N1_7  and  C6_8 
REMARK    4  A    between atoms: C6_8  and  C7_9 
REMARK    5  A    between atoms: C8_10  and  O1_11 
REMARK    6  A    between atoms: O1_11  and  C9_12 
ROOT
HETATM    1  C7  UNL     1      22.612   2.231  51.235  1.00  0.00     0.025 A 
HETATM    2  C8  UNL     1      22.971   3.303  50.580  1.00  0.00     0.177 A 
HETATM    3  N2  UNL     1      22.537   3.521  49.224  1.00  0.00    -0.240 NA
HETATM    4  C14 UNL     1      21.783   2.680  48.599  1.00  0.00     0.097 A 
HETATM    5  C15 UNL     1      21.111   1.357  48.852  1.00  0.00     0.083 A 
HETATM    6  P1  UNL     1      21.559   0.892  50.595  1.00  0.00    -0.088 P 
HETATM    7  H16 UNL     1      22.387  -0.318  50.539  1.00  0.00     0.062 HD
ENDROOT
BRANCH   1   8
HETATM    8  C6  UNL     1      23.027   1.959  52.625  1.00  0.00     0.313 C 
BRANCH   8   9
HETATM    9  N1  UNL     1      24.470   1.701  52.601  1.00  0.00     0.091 N 
HETATM   10  H5  UNL     1      24.961   2.281  53.324  1.00  0.00     0.316 HD
BRANCH   9  11
HETATM   11  C5  UNL     1      24.733   0.311  52.923  1.00  0.00     0.304 C 
BRANCH  11  12
HETATM   12  C4  UNL     1      26.109   0.150  53.509  1.00  0.00    -0.047 A 
HETATM   13  C3  UNL     1      26.567   0.487  54.711  1.00  0.00     0.006 A 
HETATM   14  C2  UNL     1      27.985   0.139  54.840  1.00  0.00     0.020 A 
HETATM   15  C1  UNL     1      28.341  -0.410  53.688  1.00  0.00     0.015 A 
HETATM   16 CL1  UNL     1      29.972  -1.004  53.344  1.00  0.00    -0.089 Cl
HETATM   17  C16 UNL     1      27.223  -0.475  52.711  1.00  0.00     0.087 A 
ENDBRANCH  11  12
ENDBRANCH   9  11
ENDBRANCH   8   9
ENDBRANCH   1   8
BRANCH   2  18
HETATM   18  O1  UNL     1      23.777   4.315  51.086  1.00  0.00    -0.291 OA
BRANCH  18  19
HETATM   19  C9  UNL     1      24.903   4.631  50.332  1.00  0.00     0.083 A 
HETATM   20  C10 UNL     1      25.052   5.910  49.970  1.00  0.00     0.082 A 
HETATM   21  S1  UNL     1      26.396   6.616  49.000  1.00  0.00    -0.135 SA
HETATM   22  C11 UNL     1      27.510   5.229  48.616  1.00  0.00     0.105 A 
HETATM   23  C12 UNL     1      26.975   3.955  49.213  1.00  0.00    -0.013 A 
HETATM   24  C13 UNL     1      25.915   3.673  49.919  1.00  0.00     0.034 A 
ENDBRANCH  18  19
ENDBRANCH   2  18
TORSDOF 6
ENDMDL
MODEL 5
REMARK VINA RESULT:      -6.6      4.422      7.640
REMARK  6 active torsions:
REMARK  status: ('A' for Active; 'I' for Inactive)
REMARK    1  A    between atoms: C4_5  and  C5_6 
REMARK    2  A    between atoms: C5_6  and  N1_7 
REMARK    3  A    between atoms: N1_7  and  C6_8 
REMARK    4  A    between atoms: C6_8  and  C7_9 
REMARK    5  A    between atoms: C8_10  and  O1_11 
REMARK    6  A    between atoms: O1_11  and  C9_12 
ROOT
HETATM    1  C7  UNL     1      23.052   3.852  51.703  1.00  0.00     0.025 A 
HETATM    2  C8  UNL     1      23.513   2.971  52.551  1.00  0.00     0.177 A 
HETATM    3  N2  UNL     1      22.776   1.766  52.838  1.00  0.00    -0.240 NA
HETATM    4  C14 UNL     1      21.642   1.503  52.279  1.00  0.00     0.097 A 
HETATM    5  C15 UNL     1      20.699   2.125  51.285  1.00  0.00     0.083 A 
HETATM    6  P1  UNL     1      21.490   3.730  50.779  1.00  0.00    -0.088 P 
HETATM    7  H16 UNL     1      20.628   4.823  51.245  1.00  0.00     0.062 HD
ENDROOT
BRANCH   1   8
HETATM    8  C6  UNL     1      23.767   5.101  51.372  1.00  0.00     0.313 C 
BRANCH   8   9
HETATM    9  N1  UNL     1      25.088   4.718  50.864  1.00  0.00     0.091 N 
HETATM   10  H5  UNL     1      25.322   3.735  51.146  1.00  0.00     0.316 HD
BRANCH   9  11
HETATM   11  C5  UNL     1      25.094   4.755  49.413  1.00  0.00     0.304 C 
BRANCH  11  12
HETATM   12  C4  UNL     1      26.356   5.392  48.900  1.00  0.00    -0.047 A 
HETATM   13  C3  UNL     1      26.578   6.641  48.502  1.00  0.00     0.006 A 
HETATM   14  C2  UNL     1      27.971   6.809  48.079  1.00  0.00     0.020 A 
HETATM   15  C1  UNL     1      28.556   5.632  48.242  1.00  0.00     0.015 A 
HETATM   16 CL1  UNL     1      30.256   5.317  47.869  1.00  0.00    -0.089 Cl
HETATM   17  C16 UNL     1      27.629   4.598  48.773  1.00  0.00     0.087 A 
ENDBRANCH  11  12
ENDBRANCH   9  11
ENDBRANCH   8   9
ENDBRANCH   1   8
BRANCH   2  18
HETATM   18  O1  UNL     1      24.709   3.082  53.248  1.00  0.00    -0.291 OA
BRANCH  18  19
HETATM   19  C9  UNL     1      25.570   1.994  53.156  1.00  0.00     0.083 A 
HETATM   20  C10 UNL     1      26.133   1.568  54.292  1.00  0.00     0.082 A 
HETATM   21  S1  UNL     1      27.282   0.193  54.487  1.00  0.00    -0.135 SA
HETATM   22  C11 UNL     1      27.517  -0.496  52.819  1.00  0.00     0.105 A 
HETATM   23  C12 UNL     1      26.699   0.277  51.820  1.00  0.00    -0.013 A 
HETATM   24  C13 UNL     1      25.894   1.299  51.921  1.00  0.00     0.034 A 
ENDBRANCH  18  19
ENDBRANCH   2  18
TORSDOF 6
ENDMDL
MODEL 6
REMARK VINA RESULT:      -6.5      3.803      6.777
REMARK  6 active torsions:
REMARK  status: ('A' for Active; 'I' for Inactive)
REMARK    1  A    between atoms: C4_5  and  C5_6 
REMARK    2  A    between atoms: C5_6  and  N1_7 
REMARK    3  A    between atoms: N1_7  and  C6_8 
REMARK    4  A    between atoms: C6_8  and  C7_9 
REMARK    5  A    between atoms: C8_10  and  O1_11 
REMARK    6  A    between atoms: O1_11  and  C9_12 
ROOT
HETATM    1  C7  UNL     1      22.957   0.974  51.941  1.00  0.00     0.025 A 
HETATM    2  C8  UNL     1      24.033   0.800  52.661  1.00  0.00     0.177 A 
HETATM    3  N2  UNL     1      24.015  -0.055  53.822  1.00  0.00    -0.240 NA
HETATM    4  C14 UNL     1      22.951  -0.679  54.200  1.00  0.00     0.097 A 
HETATM    5  C15 UNL     1      21.517  -0.834  53.771  1.00  0.00     0.083 A 
HETATM    6  P1  UNL     1      21.332   0.216  52.249  1.00  0.00    -0.088 P 
HETATM    7  H16 UNL     1      20.401   1.307  52.565  1.00  0.00     0.062 HD
ENDROOT
BRANCH   1   8
HETATM    8  C6  UNL     1      22.921   1.836  50.743  1.00  0.00     0.313 C 
BRANCH   8   9
HETATM    9  N1  UNL     1      23.431   3.150  51.144  1.00  0.00     0.091 N 
HETATM   10  H5  UNL     1      24.408   3.069  51.516  1.00  0.00     0.316 HD
BRANCH   9  11
HETATM   11  C5  UNL     1      23.490   4.034  49.994  1.00  0.00     0.304 C 
BRANCH  11  12
HETATM   12  C4  UNL     1      24.915   4.275  49.578  1.00  0.00    -0.047 A 
HETATM   13  C3  UNL     1      25.963   3.458  49.618  1.00  0.00     0.006 A 
HETATM   14  C2  UNL     1      27.162   4.130  49.108  1.00  0.00     0.020 A 
HETATM   15  C1  UNL     1      26.788   5.355  48.768  1.00  0.00     0.015 A 
HETATM   16 CL1  UNL     1      27.885   6.567  48.092  1.00  0.00    -0.089 Cl
HETATM   17  C16 UNL     1      25.343   5.605  49.017  1.00  0.00     0.087 A 
ENDBRANCH  11  12
ENDBRANCH   9  11
ENDBRANCH   8   9
ENDBRANCH   1   8
BRANCH   2  18
HETATM   18  O1  UNL     1      25.266   1.388  52.411  1.00  0.00    -0.291 OA
BRANCH  18  19
HETATM   19  C9  UNL     1      26.380   0.670  52.832  1.00  0.00     0.083 A 
HETATM   20  C10 UNL     1      27.164   1.250  53.749  1.00  0.00     0.082 A 
HETATM   21  S1  UNL     1      28.664   0.571  54.481  1.00  0.00    -0.135 SA
HETATM   22  C11 UNL     1      28.892  -1.065  53.716  1.00  0.00     0.105 A 
HETATM   23  C12 UNL     1      27.784  -1.336  52.735  1.00  0.00    -0.013 A 
HETATM   24  C13 UNL     1      26.743  -0.651  52.348  1.00  0.00     0.034 A 
ENDBRANCH  18  19
ENDBRANCH   2  18
TORSDOF 6
ENDMDL
MODEL 7
REMARK VINA RESULT:      -6.5      3.586      5.991
REMARK  6 active torsions:
REMARK  status: ('A' for Active; 'I' for Inactive)
REMARK    1  A    between atoms: C4_5  and  C5_6 
REMARK    2  A    between atoms: C5_6  and  N1_7 
REMARK    3  A    between atoms: N1_7  and  C6_8 
REMARK    4  A    between atoms: C6_8  and  C7_9 
REMARK    5  A    between atoms: C8_10  and  O1_11 
REMARK    6  A    between atoms: O1_11  and  C9_12 
ROOT
HETATM    1  C7  UNL     1      23.315   3.418  50.765  1.00  0.00     0.025 A 
HETATM    2  C8  UNL     1      22.160   2.805  50.774  1.00  0.00     0.177 A 
HETATM    3  N2  UNL     1      20.937   3.536  50.988  1.00  0.00    -0.240 NA
HETATM    4  C14 UNL     1      20.923   4.813  51.179  1.00  0.00     0.097 A 
HETATM    5  C15 UNL     1      21.899   5.955  51.265  1.00  0.00     0.083 A 
HETATM    6  P1  UNL     1      23.578   5.202  51.007  1.00  0.00    -0.088 P 
HETATM    7  H16 UNL     1      24.338   5.360  52.253  1.00  0.00     0.062 HD
ENDROOT
BRANCH   1   8
HETATM    8  C6  UNL     1      24.596   2.718  50.549  1.00  0.00     0.313 C 
BRANCH   8   9
HETATM    9  N1  UNL     1      25.553   3.266  51.515  1.00  0.00     0.091 N 
HETATM   10  H5  UNL     1      25.150   3.252  52.483  1.00  0.00     0.316 HD
BRANCH   9  11
HETATM   11  C5  UNL     1      26.753   2.449  51.546  1.00  0.00     0.304 C 
BRANCH  11  12
HETATM   12  C4  UNL     1      26.533   1.209  52.369  1.00  0.00    -0.047 A 
HETATM   13  C3  UNL     1      26.658  -0.071  52.030  1.00  0.00     0.006 A 
HETATM   14  C2  UNL     1      26.337  -0.940  53.166  1.00  0.00     0.020 A 
HETATM   15  C1  UNL     1      26.025  -0.138  54.173  1.00  0.00     0.015 A 
HETATM   16 CL1  UNL     1      25.560  -0.713  55.781  1.00  0.00    -0.089 Cl
HETATM   17  C16 UNL     1      26.105   1.301  53.810  1.00  0.00     0.087 A 
ENDBRANCH  11  12
ENDBRANCH   9  11
ENDBRANCH   8   9
ENDBRANCH   1   8
BRANCH   2  18
HETATM   18  O1  UNL     1      21.979   1.441  50.588  1.00  0.00    -0.291 OA
BRANCH  18  19
HETATM   19  C9  UNL     1      21.693   0.703  51.731  1.00  0.00     0.083 A 
HETATM   20  C10 UNL     1      20.411   0.384  51.943  1.00  0.00     0.082 A 
HETATM   21  S1  UNL     1      19.740  -0.556  53.326  1.00  0.00    -0.135 SA
HETATM   22  C11 UNL     1      21.166  -0.984  54.373  1.00  0.00     0.105 A 
HETATM   23  C12 UNL     1      22.431  -0.433  53.773  1.00  0.00    -0.013 A 
HETATM   24  C13 UNL     1      22.685   0.261  52.697  1.00  0.00     0.034 A 
ENDBRANCH  18  19
ENDBRANCH   2  18
TORSDOF 6
ENDMDL
MODEL 8
REMARK VINA RESULT:      -6.5      3.531      6.454
REMARK  6 active torsions:
REMARK  status: ('A' for Active; 'I' for Inactive)
REMARK    1  A    between atoms: C4_5  and  C5_6 
REMARK    2  A    between atoms: C5_6  and  N1_7 
REMARK    3  A    between atoms: N1_7  and  C6_8 
REMARK    4  A    between atoms: C6_8  and  C7_9 
REMARK    5  A    between atoms: C8_10  and  O1_11 
REMARK    6  A    between atoms: O1_11  and  C9_12 
ROOT
HETATM    1  C7  UNL     1      26.602   1.604  52.729  1.00  0.00     0.025 A 
HETATM    2  C8  UNL     1      26.137   0.386  52.820  1.00  0.00     0.177 A 
HETATM    3  N2  UNL     1      26.821  -0.608  53.608  1.00  0.00    -0.240 NA
HETATM    4  C14 UNL     1      27.909  -0.347  54.252  1.00  0.00     0.097 A 
HETATM    5  C15 UNL     1      28.834   0.817  54.486  1.00  0.00     0.083 A 
HETATM    6  P1  UNL     1      28.107   2.236  53.531  1.00  0.00    -0.088 P 
HETATM    7  H16 UNL     1      29.050   2.588  52.462  1.00  0.00     0.062 HD
ENDROOT
BRANCH   1   8
HETATM    8  C6  UNL     1      25.941   2.660  51.937  1.00  0.00     0.313 C 
BRANCH   8   9
HETATM    9  N1  UNL     1      26.949   3.210  51.027  1.00  0.00     0.091 N 
HETATM   10  H5  UNL     1      27.752   2.544  50.919  1.00  0.00     0.316 HD
BRANCH   9  11
HETATM   11  C5  UNL     1      26.377   3.399  49.706  1.00  0.00     0.304 C 
BRANCH  11  12
HETATM   12  C4  UNL     1      26.906   4.655  49.070  1.00  0.00    -0.047 A 
HETATM   13  C3  UNL     1      28.113   4.916  48.576  1.00  0.00     0.006 A 
HETATM   14  C2  UNL     1      28.174   6.285  48.055  1.00  0.00     0.020 A 
HETATM   15  C1  UNL     1      26.975   6.814  48.254  1.00  0.00     0.015 A 
HETATM   16 CL1  UNL     1      26.539   8.464  47.791  1.00  0.00    -0.089 Cl
HETATM   17  C16 UNL     1      26.032   5.870  48.911  1.00  0.00     0.087 A 
ENDBRANCH  11  12
ENDBRANCH   9  11
ENDBRANCH   8   9
ENDBRANCH   1   8
BRANCH   2  18
HETATM   18  O1  UNL     1      24.985  -0.079  52.199  1.00  0.00    -0.291 OA
BRANCH  18  19
HETATM   19  C9  UNL     1      23.830  -0.071  52.974  1.00  0.00     0.083 A 
HETATM   20  C10 UNL     1      22.824   0.706  52.556  1.00  0.00     0.082 A 
HETATM   21  S1  UNL     1      21.218   0.920  53.345  1.00  0.00    -0.135 SA
HETATM   22  C11 UNL     1      21.248  -0.139  54.825  1.00  0.00     0.105 A 
HETATM   23  C12 UNL     1      22.571  -0.847  54.927  1.00  0.00    -0.013 A 
HETATM   24  C13 UNL     1      23.649  -0.843  54.191  1.00  0.00     0.034 A 
ENDBRANCH  18  19
ENDBRANCH   2  18
TORSDOF 6
ENDMDL
MODEL 9
REMARK VINA RESULT:      -6.4      1.971      2.479
REMARK  6 active torsions:
REMARK  status: ('A' for Active; 'I' for Inactive)
REMARK    1  A    between atoms: C4_5  and  C5_6 
REMARK    2  A    between atoms: C5_6  and  N1_7 
REMARK    3  A    between atoms: N1_7  and  C6_8 
REMARK    4  A    between atoms: C6_8  and  C7_9 
REMARK    5  A    between atoms: C8_10  and  O1_11 
REMARK    6  A    between atoms: O1_11  and  C9_12 
ROOT
HETATM    1  C7  UNL     1      25.630   0.390  53.102  1.00  0.00     0.025 A 
HETATM    2  C8  UNL     1      25.575   1.302  52.169  1.00  0.00     0.177 A 
HETATM    3  N2  UNL     1      26.650   2.246  51.993  1.00  0.00    -0.240 NA
HETATM    4  C14 UNL     1      27.703   2.235  52.739  1.00  0.00     0.097 A 
HETATM    5  C15 UNL     1      28.262   1.453  53.897  1.00  0.00     0.083 A 
HETATM    6  P1  UNL     1      26.992   0.152  54.284  1.00  0.00    -0.088 P 
HETATM    7  H16 UNL     1      26.456   0.432  55.622  1.00  0.00     0.062 HD
ENDROOT
BRANCH   1   8
HETATM    8  C6  UNL     1      24.558  -0.601  53.324  1.00  0.00     0.313 C 
BRANCH   8   9
HETATM    9  N1  UNL     1      23.367   0.141  53.747  1.00  0.00     0.091 N 
HETATM   10  H5  UNL     1      23.363   1.103  53.327  1.00  0.00     0.316 HD
BRANCH   9  11
HETATM   11  C5  UNL     1      22.169  -0.530  53.278  1.00  0.00     0.304 C 
BRANCH  11  12
HETATM   12  C4  UNL     1      21.380   0.364  52.361  1.00  0.00    -0.047 A 
HETATM   13  C3  UNL     1      21.180   0.275  51.050  1.00  0.00     0.006 A 
HETATM   14  C2  UNL     1      20.339   1.379  50.579  1.00  0.00     0.020 A 
HETATM   15  C1  UNL     1      20.053   2.112  51.644  1.00  0.00     0.015 A 
HETATM   16 CL1  UNL     1      19.054   3.571  51.596  1.00  0.00    -0.089 Cl
HETATM   17  C16 UNL     1      20.663   1.578  52.891  1.00  0.00     0.087 A 
ENDBRANCH  11  12
ENDBRANCH   9  11
ENDBRANCH   8   9
ENDBRANCH   1   8
BRANCH   2  18
HETATM   18  O1  UNL     1      24.524   1.468  51.275  1.00  0.00    -0.291 OA
BRANCH  18  19
HETATM   19  C9  UNL     1      23.899   2.711  51.293  1.00  0.00     0.083 A 
HETATM   20  C10 UNL     1      23.541   3.227  50.113  1.00  0.00     0.082 A 
HETATM   21  S1  UNL     1      22.721   4.806  49.821  1.00  0.00    -0.135 SA
HETATM   22  C11 UNL     1      22.481   5.550  51.465  1.00  0.00     0.105 A 
HETATM   23  C12 UNL     1      23.028   4.638  52.530  1.00  0.00    -0.013 A 
HETATM   24  C13 UNL     1      23.614   3.473  52.497  1.00  0.00     0.034 A 
ENDBRANCH  18  19
ENDBRANCH   2  18
TORSDOF 6
ENDMDL
