MODEL 1
REMARK VINA RESULT:      -7.6      0.000      0.000
REMARK  6 active torsions:
REMARK  status: ('A' for Active; 'I' for Inactive)
REMARK    1  A    between atoms: N1_1  and  C1_2 
REMARK    2  A    between atoms: C1_2  and  N2_4 
REMARK    3  A    between atoms: N2_4  and  C2_5 
REMARK    4  A    between atoms: C2_5  and  C3_6 
REMARK    5  A    between atoms: C2_5  and  C11_15 
REMARK    6  A    between atoms: C4_7  and  C5_8 
ROOT
HETATM    1  C2  UNL     1      26.168   1.628  51.666  1.00  0.00     0.140 C 
ENDROOT
BRANCH   1   2
HETATM    2  N2  UNL     1      25.889   3.061  51.662  1.00  0.00    -0.355 N 
HETATM    3  H3  UNL     1      25.759   3.615  52.518  1.00  0.00     0.163 HD
BRANCH   2   4
HETATM    4  C1  UNL     1      25.789   3.718  50.410  1.00  0.00     0.166 C 
HETATM    5  S1  UNL     1      24.393   3.767  49.576  1.00  0.00    -0.041 SA
BRANCH   4   6
HETATM    6  N1  UNL     1      26.892   4.365  49.824  1.00  0.00    -0.376 N 
HETATM    7  H1  UNL     1      27.234   3.483  49.398  1.00  0.00     0.158 HD
HETATM    8  H2  UNL     1      27.701   4.849  49.396  1.00  0.00     0.158 HD
ENDBRANCH   4   6
ENDBRANCH   2   4
ENDBRANCH   1   2
BRANCH   1   9
HETATM    9  C3  UNL     1      24.977   0.835  52.064  1.00  0.00     0.004 C 
HETATM   10  C4  UNL     1      24.005   1.111  52.917  1.00  0.00     0.010 C 
BRANCH  10  11
HETATM   11  C5  UNL     1      22.853   0.292  53.272  1.00  0.00    -0.036 A 
HETATM   12  C6  UNL     1      21.630   0.569  52.702  1.00  0.00     0.014 A 
HETATM   13  C7  UNL     1      20.541  -0.210  53.040  1.00  0.00     0.043 A 
HETATM   14  C8  UNL     1      20.709  -1.246  53.940  1.00  0.00     0.116 A 
HETATM   15  F1  UNL     1      19.616  -1.986  54.245  1.00  0.00    -0.206 F 
HETATM   16  C9  UNL     1      21.967  -1.495  54.496  1.00  0.00     0.043 A 
HETATM   17  C10 UNL     1      23.078  -0.727  54.173  1.00  0.00     0.014 A 
ENDBRANCH  10  11
ENDBRANCH   1   9
BRANCH   1  18
HETATM   18  C11 UNL     1      27.269   1.294  52.590  1.00  0.00    -0.032 A 
HETATM   19  C12 UNL     1      27.511  -0.051  52.801  1.00  0.00     0.009 A 
HETATM   20  C13 UNL     1      28.531  -0.442  53.657  1.00  0.00     0.001 A 
HETATM   21  C14 UNL     1      29.299   0.496  54.296  1.00  0.00     0.000 A 
HETATM   22  C15 UNL     1      29.040   1.824  54.072  1.00  0.00     0.001 A 
HETATM   23  C16 UNL     1      28.037   2.255  53.228  1.00  0.00     0.009 A 
ENDBRANCH   1  18
TORSDOF 6
ENDMDL
MODEL 2
REMARK VINA RESULT:      -7.6      3.088      6.034
REMARK  6 active torsions:
REMARK  status: ('A' for Active; 'I' for Inactive)
REMARK    1  A    between atoms: N1_1  and  C1_2 
REMARK    2  A    between atoms: C1_2  and  N2_4 
REMARK    3  A    between atoms: N2_4  and  C2_5 
REMARK    4  A    between atoms: C2_5  and  C3_6 
REMARK    5  A    between atoms: C2_5  and  C11_15 
REMARK    6  A    between atoms: C4_7  and  C5_8 
ROOT
HETATM    1  C2  UNL     1      24.049   3.069  52.590  1.00  0.00     0.140 C 
ENDROOT
BRANCH   1   2
HETATM    2  N2  UNL     1      24.373   4.155  51.671  1.00  0.00    -0.355 N 
HETATM    3  H3  UNL     1      25.076   4.076  50.925  1.00  0.00     0.163 HD
BRANCH   2   4
HETATM    4  C1  UNL     1      23.681   5.383  51.819  1.00  0.00     0.166 C 
HETATM    5  S1  UNL     1      22.087   5.511  51.523  1.00  0.00    -0.041 SA
BRANCH   4   6
HETATM    6  N1  UNL     1      24.338   6.557  52.232  1.00  0.00    -0.376 N 
HETATM    7  H1  UNL     1      23.446   7.084  52.289  1.00  0.00     0.158 HD
HETATM    8  H2  UNL     1      24.829   7.416  52.536  1.00  0.00     0.158 HD
ENDBRANCH   4   6
ENDBRANCH   2   4
ENDBRANCH   1   2
BRANCH   1   9
HETATM    9  C3  UNL     1      25.260   2.309  52.994  1.00  0.00     0.004 C 
HETATM   10  C4  UNL     1      25.976   1.416  52.333  1.00  0.00     0.010 C 
BRANCH  10  11
HETATM   11  C5  UNL     1      27.163   0.697  52.781  1.00  0.00    -0.036 A 
HETATM   12  C6  UNL     1      27.201  -0.675  52.663  1.00  0.00     0.014 A 
HETATM   13  C7  UNL     1      28.327  -1.353  53.088  1.00  0.00     0.043 A 
HETATM   14  C8  UNL     1      29.383  -0.635  53.619  1.00  0.00     0.116 A 
HETATM   15  F1  UNL     1      30.469  -1.337  54.024  1.00  0.00    -0.206 F 
HETATM   16  C9  UNL     1      29.305   0.757  53.720  1.00  0.00     0.043 A 
HETATM   17  C10 UNL     1      28.185   1.462  53.301  1.00  0.00     0.014 A 
ENDBRANCH  10  11
ENDBRANCH   1   9
BRANCH   1  18
HETATM   18  C11 UNL     1      23.094   2.118  51.989  1.00  0.00    -0.032 A 
HETATM   19  C12 UNL     1      22.416   1.289  52.863  1.00  0.00     0.009 A 
HETATM   20  C13 UNL     1      21.501   0.368  52.372  1.00  0.00     0.001 A 
HETATM   21  C14 UNL     1      21.266   0.275  51.025  1.00  0.00     0.000 A 
HETATM   22  C15 UNL     1      21.950   1.108  50.177  1.00  0.00     0.001 A 
HETATM   23  C16 UNL     1      22.867   2.037  50.624  1.00  0.00     0.009 A 
ENDBRANCH   1  18
TORSDOF 6
ENDMDL
MODEL 3
REMARK VINA RESULT:      -7.6      2.937      6.202
REMARK  6 active torsions:
REMARK  status: ('A' for Active; 'I' for Inactive)
REMARK    1  A    between atoms: N1_1  and  C1_2 
REMARK    2  A    between atoms: C1_2  and  N2_4 
REMARK    3  A    between atoms: N2_4  and  C2_5 
REMARK    4  A    between atoms: C2_5  and  C3_6 
REMARK    5  A    between atoms: C2_5  and  C11_15 
REMARK    6  A    between atoms: C4_7  and  C5_8 
ROOT
HETATM    1  C2  UNL     1      23.518   1.259  52.703  1.00  0.00     0.140 C 
ENDROOT
BRANCH   1   2
HETATM    2  N2  UNL     1      23.410   1.445  51.259  1.00  0.00    -0.355 N 
HETATM    3  H3  UNL     1      23.351   0.666  50.591  1.00  0.00     0.163 HD
BRANCH   2   4
HETATM    4  C1  UNL     1      23.388   2.769  50.756  1.00  0.00     0.166 C 
HETATM    5  S1  UNL     1      22.981   4.036  51.693  1.00  0.00    -0.041 SA
BRANCH   4   6
HETATM    6  N1  UNL     1      23.720   3.059  49.420  1.00  0.00    -0.376 N 
HETATM    7  H1  UNL     1      23.065   2.340  49.059  1.00  0.00     0.158 HD
HETATM    8  H2  UNL     1      23.970   3.278  48.440  1.00  0.00     0.158 HD
ENDBRANCH   4   6
ENDBRANCH   2   4
ENDBRANCH   1   2
BRANCH   1   9
HETATM    9  C3  UNL     1      24.852   0.736  53.094  1.00  0.00     0.004 C 
HETATM   10  C4  UNL     1      25.973   0.631  52.400  1.00  0.00     0.010 C 
BRANCH  10  11
HETATM   11  C5  UNL     1      27.261   0.107  52.836  1.00  0.00    -0.036 A 
HETATM   12  C6  UNL     1      28.251   0.987  53.215  1.00  0.00     0.014 A 
HETATM   13  C7  UNL     1      29.470   0.488  53.628  1.00  0.00     0.043 A 
HETATM   14  C8  UNL     1      29.663  -0.881  53.650  1.00  0.00     0.116 A 
HETATM   15  F1  UNL     1      30.873  -1.331  54.061  1.00  0.00    -0.206 F 
HETATM   16  C9  UNL     1      28.633  -1.741  53.258  1.00  0.00     0.043 A 
HETATM   17  C10 UNL     1      27.398  -1.265  52.838  1.00  0.00     0.014 A 
ENDBRANCH  10  11
ENDBRANCH   1   9
BRANCH   1  18
HETATM   18  C11 UNL     1      22.496   0.322  53.206  1.00  0.00    -0.032 A 
HETATM   19  C12 UNL     1      22.938  -0.682  54.048  1.00  0.00     0.009 A 
HETATM   20  C13 UNL     1      22.034  -1.602  54.561  1.00  0.00     0.001 A 
HETATM   21  C14 UNL     1      20.705  -1.522  54.238  1.00  0.00     0.000 A 
HETATM   22  C15 UNL     1      20.288  -0.518  53.401  1.00  0.00     0.001 A 
HETATM   23  C16 UNL     1      21.154   0.416  52.870  1.00  0.00     0.009 A 
ENDBRANCH   1  18
TORSDOF 6
ENDMDL
MODEL 4
REMARK VINA RESULT:      -7.5      3.759      5.923
REMARK  6 active torsions:
REMARK  status: ('A' for Active; 'I' for Inactive)
REMARK    1  A    between atoms: N1_1  and  C1_2 
REMARK    2  A    between atoms: C1_2  and  N2_4 
REMARK    3  A    between atoms: N2_4  and  C2_5 
REMARK    4  A    between atoms: C2_5  and  C3_6 
REMARK    5  A    between atoms: C2_5  and  C11_15 
REMARK    6  A    between atoms: C4_7  and  C5_8 
ROOT
HETATM    1  C2  UNL     1      25.171   3.711  50.475  1.00  0.00     0.140 C 
ENDROOT
BRANCH   1   2
HETATM    2  N2  UNL     1      24.477   4.375  51.575  1.00  0.00    -0.355 N 
HETATM    3  H3  UNL     1      24.963   4.819  52.365  1.00  0.00     0.163 HD
BRANCH   2   4
HETATM    4  C1  UNL     1      23.061   4.405  51.550  1.00  0.00     0.166 C 
HETATM    5  S1  UNL     1      22.197   3.360  50.650  1.00  0.00    -0.041 SA
BRANCH   4   6
HETATM    6  N1  UNL     1      22.326   5.338  52.304  1.00  0.00    -0.376 N 
HETATM    7  H1  UNL     1      21.912   4.594  52.896  1.00  0.00     0.158 HD
HETATM    8  H2  UNL     1      21.789   6.031  52.854  1.00  0.00     0.158 HD
ENDBRANCH   4   6
ENDBRANCH   2   4
ENDBRANCH   1   2
BRANCH   1   9
HETATM    9  C3  UNL     1      26.067   2.631  50.961  1.00  0.00     0.004 C 
HETATM   10  C4  UNL     1      26.228   2.125  52.172  1.00  0.00     0.010 C 
BRANCH  10  11
HETATM   11  C5  UNL     1      27.127   1.059  52.594  1.00  0.00    -0.036 A 
HETATM   12  C6  UNL     1      28.338   1.387  53.165  1.00  0.00     0.014 A 
HETATM   13  C7  UNL     1      29.188   0.375  53.564  1.00  0.00     0.043 A 
HETATM   14  C8  UNL     1      28.799  -0.940  53.381  1.00  0.00     0.116 A 
HETATM   15  F1  UNL     1      29.661  -1.904  53.786  1.00  0.00    -0.206 F 
HETATM   16  C9  UNL     1      27.562  -1.231  52.799  1.00  0.00     0.043 A 
HETATM   17  C10 UNL     1      26.689  -0.233  52.388  1.00  0.00     0.014 A 
ENDBRANCH  10  11
ENDBRANCH   1   9
BRANCH   1  18
HETATM   18  C11 UNL     1      25.985   4.663  49.696  1.00  0.00    -0.032 A 
HETATM   19  C12 UNL     1      27.185   4.188  49.200  1.00  0.00     0.009 A 
HETATM   20  C13 UNL     1      28.005   5.027  48.457  1.00  0.00     0.001 A 
HETATM   21  C14 UNL     1      27.633   6.323  48.212  1.00  0.00     0.000 A 
HETATM   22  C15 UNL     1      26.439   6.772  48.714  1.00  0.00     0.001 A 
HETATM   23  C16 UNL     1      25.594   5.972  49.457  1.00  0.00     0.009 A 
ENDBRANCH   1  18
TORSDOF 6
ENDMDL
MODEL 5
REMARK VINA RESULT:      -7.2      3.623      6.530
REMARK  6 active torsions:
REMARK  status: ('A' for Active; 'I' for Inactive)
REMARK    1  A    between atoms: N1_1  and  C1_2 
REMARK    2  A    between atoms: C1_2  and  N2_4 
REMARK    3  A    between atoms: N2_4  and  C2_5 
REMARK    4  A    between atoms: C2_5  and  C3_6 
REMARK    5  A    between atoms: C2_5  and  C11_15 
REMARK    6  A    between atoms: C4_7  and  C5_8 
ROOT
HETATM    1  C2  UNL     1      25.334   0.311  53.172  1.00  0.00     0.140 C 
ENDROOT
BRANCH   1   2
HETATM    2  N2  UNL     1      26.193   0.603  54.316  1.00  0.00    -0.355 N 
HETATM    3  H3  UNL     1      25.849   1.026  55.188  1.00  0.00     0.163 HD
BRANCH   2   4
HETATM    4  C1  UNL     1      27.570   0.288  54.215  1.00  0.00     0.166 C 
HETATM    5  S1  UNL     1      28.115  -0.861  53.200  1.00  0.00    -0.041 SA
BRANCH   4   6
HETATM    6  N1  UNL     1      28.541   0.954  54.986  1.00  0.00    -0.376 N 
HETATM    7  H1  UNL     1      27.846   1.637  55.343  1.00  0.00     0.158 HD
HETATM    8  H2  UNL     1      29.260   1.438  55.551  1.00  0.00     0.158 HD
ENDBRANCH   4   6
ENDBRANCH   2   4
ENDBRANCH   1   2
BRANCH   1   9
HETATM    9  C3  UNL     1      25.169   1.495  52.290  1.00  0.00     0.004 C 
HETATM   10  C4  UNL     1      25.933   1.955  51.314  1.00  0.00     0.010 C 
BRANCH  10  11
HETATM   11  C5  UNL     1      25.721   3.128  50.476  1.00  0.00    -0.036 A 
HETATM   12  C6  UNL     1      26.799   3.698  49.832  1.00  0.00     0.014 A 
HETATM   13  C7  UNL     1      26.595   4.810  49.039  1.00  0.00     0.043 A 
HETATM   14  C8  UNL     1      25.316   5.319  48.912  1.00  0.00     0.116 A 
HETATM   15  F1  UNL     1      25.158   6.410  48.125  1.00  0.00    -0.206 F 
HETATM   16  C9  UNL     1      24.249   4.711  49.580  1.00  0.00     0.043 A 
HETATM   17  C10 UNL     1      24.426   3.593  50.385  1.00  0.00     0.014 A 
ENDBRANCH  10  11
ENDBRANCH   1   9
BRANCH   1  18
HETATM   18  C11 UNL     1      23.993  -0.129  53.600  1.00  0.00    -0.032 A 
HETATM   19  C12 UNL     1      22.928   0.292  52.825  1.00  0.00     0.009 A 
HETATM   20  C13 UNL     1      21.636  -0.083  53.166  1.00  0.00     0.001 A 
HETATM   21  C14 UNL     1      21.408  -0.867  54.266  1.00  0.00     0.000 A 
HETATM   22  C15 UNL     1      22.480  -1.273  55.020  1.00  0.00     0.001 A 
HETATM   23  C16 UNL     1      23.779  -0.924  54.716  1.00  0.00     0.009 A 
ENDBRANCH   1  18
TORSDOF 6
ENDMDL
MODEL 6
REMARK VINA RESULT:      -7.2      3.385      6.089
REMARK  6 active torsions:
REMARK  status: ('A' for Active; 'I' for Inactive)
REMARK    1  A    between atoms: N1_1  and  C1_2 
REMARK    2  A    between atoms: C1_2  and  N2_4 
REMARK    3  A    between atoms: N2_4  and  C2_5 
REMARK    4  A    between atoms: C2_5  and  C3_6 
REMARK    5  A    between atoms: C2_5  and  C11_15 
REMARK    6  A    between atoms: C4_7  and  C5_8 
ROOT
HETATM    1  C2  UNL     1      23.921   3.320  51.301  1.00  0.00     0.140 C 
ENDROOT
BRANCH   1   2
HETATM    2  N2  UNL     1      24.298   4.614  50.740  1.00  0.00    -0.355 N 
HETATM    3  H3  UNL     1      24.977   4.723  49.976  1.00  0.00     0.163 HD
BRANCH   2   4
HETATM    4  C1  UNL     1      23.697   5.777  51.281  1.00  0.00     0.166 C 
HETATM    5  S1  UNL     1      22.241   6.303  50.779  1.00  0.00    -0.041 SA
BRANCH   4   6
HETATM    6  N1  UNL     1      24.326   6.537  52.284  1.00  0.00    -0.376 N 
HETATM    7  H1  UNL     1      23.998   7.430  51.869  1.00  0.00     0.158 HD
HETATM    8  H2  UNL     1      24.792   7.089  53.025  1.00  0.00     0.158 HD
ENDBRANCH   4   6
ENDBRANCH   2   4
ENDBRANCH   1   2
BRANCH   1   9
HETATM    9  C3  UNL     1      25.111   2.496  51.636  1.00  0.00     0.004 C 
HETATM   10  C4  UNL     1      25.246   1.476  52.467  1.00  0.00     0.010 C 
BRANCH  10  11
HETATM   11  C5  UNL     1      26.444   0.699  52.758  1.00  0.00    -0.036 A 
HETATM   12  C6  UNL     1      27.573   1.348  53.209  1.00  0.00     0.014 A 
HETATM   13  C7  UNL     1      28.707   0.610  53.484  1.00  0.00     0.043 A 
HETATM   14  C8  UNL     1      28.677  -0.761  53.299  1.00  0.00     0.116 A 
HETATM   15  F1  UNL     1      29.810  -1.449  53.580  1.00  0.00    -0.206 F 
HETATM   16  C9  UNL     1      27.512  -1.382  52.840  1.00  0.00     0.043 A 
HETATM   17  C10 UNL     1      26.359  -0.662  52.556  1.00  0.00     0.014 A 
ENDBRANCH  10  11
ENDBRANCH   1   9
BRANCH   1  18
HETATM   18  C11 UNL     1      23.081   2.549  50.366  1.00  0.00    -0.032 A 
HETATM   19  C12 UNL     1      23.220   2.845  49.023  1.00  0.00     0.009 A 
HETATM   20  C13 UNL     1      22.462   2.160  48.083  1.00  0.00     0.001 A 
HETATM   21  C14 UNL     1      21.575   1.194  48.478  1.00  0.00     0.000 A 
HETATM   22  C15 UNL     1      21.452   0.917  49.816  1.00  0.00     0.001 A 
HETATM   23  C16 UNL     1      22.187   1.574  50.782  1.00  0.00     0.009 A 
ENDBRANCH   1  18
TORSDOF 6
ENDMDL
MODEL 7
REMARK VINA RESULT:      -7.0      2.936      5.216
REMARK  6 active torsions:
REMARK  status: ('A' for Active; 'I' for Inactive)
REMARK    1  A    between atoms: N1_1  and  C1_2 
REMARK    2  A    between atoms: C1_2  and  N2_4 
REMARK    3  A    between atoms: N2_4  and  C2_5 
REMARK    4  A    between atoms: C2_5  and  C3_6 
REMARK    5  A    between atoms: C2_5  and  C11_15 
REMARK    6  A    between atoms: C4_7  and  C5_8 
ROOT
HETATM    1  C2  UNL     1      24.673   4.781  49.349  1.00  0.00     0.140 C 
ENDROOT
BRANCH   1   2
HETATM    2  N2  UNL     1      23.799   5.859  49.803  1.00  0.00    -0.355 N 
HETATM    3  H3  UNL     1      23.381   6.553  49.170  1.00  0.00     0.163 HD
BRANCH   2   4
HETATM    4  C1  UNL     1      23.518   5.952  51.188  1.00  0.00     0.166 C 
HETATM    5  S1  UNL     1      22.206   5.250  51.847  1.00  0.00    -0.041 SA
BRANCH   4   6
HETATM    6  N1  UNL     1      24.360   6.657  52.069  1.00  0.00    -0.376 N 
HETATM    7  H1  UNL     1      25.101   5.933  52.002  1.00  0.00     0.158 HD
HETATM    8  H2  UNL     1      24.974   7.181  52.717  1.00  0.00     0.158 HD
ENDBRANCH   4   6
ENDBRANCH   2   4
ENDBRANCH   1   2
BRANCH   1   9
HETATM    9  C3  UNL     1      24.904   3.773  50.416  1.00  0.00     0.004 C 
HETATM   10  C4  UNL     1      24.468   2.530  50.535  1.00  0.00     0.010 C 
BRANCH  10  11
HETATM   11  C5  UNL     1      24.728   1.580  51.609  1.00  0.00    -0.036 A 
HETATM   12  C6  UNL     1      23.673   1.113  52.362  1.00  0.00     0.014 A 
HETATM   13  C7  UNL     1      23.922   0.212  53.379  1.00  0.00     0.043 A 
HETATM   14  C8  UNL     1      25.222  -0.196  53.611  1.00  0.00     0.116 A 
HETATM   15  F1  UNL     1      25.425  -1.080  54.618  1.00  0.00    -0.206 F 
HETATM   16  C9  UNL     1      26.265   0.301  52.824  1.00  0.00     0.043 A 
HETATM   17  C10 UNL     1      26.042   1.208  51.796  1.00  0.00     0.014 A 
ENDBRANCH  10  11
ENDBRANCH   1   9
BRANCH   1  18
HETATM   18  C11 UNL     1      25.985   5.294  48.915  1.00  0.00    -0.032 A 
HETATM   19  C12 UNL     1      26.019   6.602  48.466  1.00  0.00     0.009 A 
HETATM   20  C13 UNL     1      27.219   7.155  48.040  1.00  0.00     0.001 A 
HETATM   21  C14 UNL     1      28.371   6.413  48.061  1.00  0.00     0.000 A 
HETATM   22  C15 UNL     1      28.314   5.119  48.510  1.00  0.00     0.001 A 
HETATM   23  C16 UNL     1      27.142   4.531  48.943  1.00  0.00     0.009 A 
ENDBRANCH   1  18
TORSDOF 6
ENDMDL
MODEL 8
REMARK VINA RESULT:      -6.7      3.463      6.867
REMARK  6 active torsions:
REMARK  status: ('A' for Active; 'I' for Inactive)
REMARK    1  A    between atoms: N1_1  and  C1_2 
REMARK    2  A    between atoms: C1_2  and  N2_4 
REMARK    3  A    between atoms: N2_4  and  C2_5 
REMARK    4  A    between atoms: C2_5  and  C3_6 
REMARK    5  A    between atoms: C2_5  and  C11_15 
REMARK    6  A    between atoms: C4_7  and  C5_8 
ROOT
HETATM    1  C2  UNL     1      20.912   1.050  50.871  1.00  0.00     0.140 C 
ENDROOT
BRANCH   1   2
HETATM    2  N2  UNL     1      21.103   0.677  49.472  1.00  0.00    -0.355 N 
HETATM    3  H3  UNL     1      21.261  -0.290  49.160  1.00  0.00     0.163 HD
BRANCH   2   4
HETATM    4  C1  UNL     1      21.069   1.705  48.497  1.00  0.00     0.166 C 
HETATM    5  S1  UNL     1      22.429   2.320  47.851  1.00  0.00    -0.041 SA
BRANCH   4   6
HETATM    6  N1  UNL     1      19.855   2.245  48.033  1.00  0.00    -0.376 N 
HETATM    7  H1  UNL     1      20.022   1.899  47.070  1.00  0.00     0.158 HD
HETATM    8  H2  UNL     1      18.961   2.646  47.701  1.00  0.00     0.158 HD
ENDBRANCH   4   6
ENDBRANCH   2   4
ENDBRANCH   1   2
BRANCH   1   9
HETATM    9  C3  UNL     1      22.105   0.727  51.695  1.00  0.00     0.004 C 
HETATM   10  C4  UNL     1      23.082   1.501  52.135  1.00  0.00     0.010 C 
BRANCH  10  11
HETATM   11  C5  UNL     1      24.235   1.129  52.945  1.00  0.00    -0.036 A 
HETATM   12  C6  UNL     1      24.344  -0.166  53.404  1.00  0.00     0.014 A 
HETATM   13  C7  UNL     1      25.437  -0.515  54.172  1.00  0.00     0.043 A 
HETATM   14  C8  UNL     1      26.392   0.444  54.458  1.00  0.00     0.116 A 
HETATM   15  F1  UNL     1      27.450   0.061  55.214  1.00  0.00    -0.206 F 
HETATM   16  C9  UNL     1      26.245   1.747  53.972  1.00  0.00     0.043 A 
HETATM   17  C10 UNL     1      25.155   2.124  53.199  1.00  0.00     0.014 A 
ENDBRANCH  10  11
ENDBRANCH   1   9
BRANCH   1  18
HETATM   18  C11 UNL     1      19.749   0.360  51.461  1.00  0.00    -0.032 A 
HETATM   19  C12 UNL     1      19.949  -0.248  52.687  1.00  0.00     0.009 A 
HETATM   20  C13 UNL     1      18.901  -0.916  53.304  1.00  0.00     0.001 A 
HETATM   21  C14 UNL     1      17.669  -0.979  52.706  1.00  0.00     0.000 A 
HETATM   22  C15 UNL     1      17.495  -0.370  51.490  1.00  0.00     0.001 A 
HETATM   23  C16 UNL     1      18.510   0.306  50.843  1.00  0.00     0.009 A 
ENDBRANCH   1  18
TORSDOF 6
ENDMDL
MODEL 9
REMARK VINA RESULT:      -6.7      4.389      7.164
REMARK  6 active torsions:
REMARK  status: ('A' for Active; 'I' for Inactive)
REMARK    1  A    between atoms: N1_1  and  C1_2 
REMARK    2  A    between atoms: C1_2  and  N2_4 
REMARK    3  A    between atoms: N2_4  and  C2_5 
REMARK    4  A    between atoms: C2_5  and  C3_6 
REMARK    5  A    between atoms: C2_5  and  C11_15 
REMARK    6  A    between atoms: C4_7  and  C5_8 
ROOT
HETATM    1  C2  UNL     1      22.630   2.107  50.418  1.00  0.00     0.140 C 
ENDROOT
BRANCH   1   2
HETATM    2  N2  UNL     1      21.976   1.335  49.365  1.00  0.00    -0.355 N 
HETATM    3  H3  UNL     1      22.365   0.468  48.974  1.00  0.00     0.163 HD
BRANCH   2   4
HETATM    4  C1  UNL     1      20.742   1.812  48.857  1.00  0.00     0.166 C 
HETATM    5  S1  UNL     1      20.673   2.989  47.736  1.00  0.00    -0.041 SA
BRANCH   4   6
HETATM    6  N1  UNL     1      19.511   1.290  49.294  1.00  0.00    -0.376 N 
HETATM    7  H1  UNL     1      19.684   1.592  50.271  1.00  0.00     0.158 HD
HETATM    8  H2  UNL     1      18.603   0.903  49.607  1.00  0.00     0.158 HD
ENDBRANCH   4   6
ENDBRANCH   2   4
ENDBRANCH   1   2
BRANCH   1   9
HETATM    9  C3  UNL     1      23.837   2.812  49.916  1.00  0.00     0.004 C 
HETATM   10  C4  UNL     1      24.083   4.104  49.776  1.00  0.00     0.010 C 
BRANCH  10  11
HETATM   11  C5  UNL     1      25.293   4.745  49.276  1.00  0.00    -0.036 A 
HETATM   12  C6  UNL     1      25.226   6.044  48.821  1.00  0.00     0.014 A 
HETATM   13  C7  UNL     1      26.373   6.649  48.348  1.00  0.00     0.043 A 
HETATM   14  C8  UNL     1      27.557   5.934  48.345  1.00  0.00     0.116 A 
HETATM   15  F1  UNL     1      28.661   6.563  47.873  1.00  0.00    -0.206 F 
HETATM   16  C9  UNL     1      27.584   4.618  48.816  1.00  0.00     0.043 A 
HETATM   17  C10 UNL     1      26.444   3.987  49.297  1.00  0.00     0.014 A 
ENDBRANCH  10  11
ENDBRANCH   1   9
BRANCH   1  18
HETATM   18  C11 UNL     1      23.040   1.246  51.544  1.00  0.00    -0.032 A 
HETATM   19  C12 UNL     1      22.066   0.422  52.077  1.00  0.00     0.009 A 
HETATM   20  C13 UNL     1      22.376  -0.416  53.139  1.00  0.00     0.001 A 
HETATM   21  C14 UNL     1      23.643  -0.432  53.663  1.00  0.00     0.000 A 
HETATM   22  C15 UNL     1      24.592   0.394  53.118  1.00  0.00     0.001 A 
HETATM   23  C16 UNL     1      24.325   1.242  52.062  1.00  0.00     0.009 A 
ENDBRANCH   1  18
TORSDOF 6
ENDMDL
