MODEL 1
REMARK VINA RESULT:      -9.3      0.000      0.000
REMARK  1 active torsions:
REMARK  status: ('A' for Active; 'I' for Inactive)
REMARK    1  A    between atoms: O1_2  and  C2_3 
ROOT
HETATM    1  C2  UNL     1      25.944  -0.342  53.162  1.00  0.00     0.056 C 
HETATM    2  C3  UNL     1      25.098  -0.527  54.125  1.00  0.00    -0.033 C 
HETATM    3  C4  UNL     1      25.156  -0.798  55.569  1.00  0.00     0.050 C 
HETATM    4  C5  UNL     1      23.685  -0.410  53.819  1.00  0.00     0.005 C 
HETATM    5  C6  UNL     1      23.047  -0.151  52.690  1.00  0.00    -0.022 C 
HETATM    6  C7  UNL     1      21.902   0.084  51.800  1.00  0.00     0.062 C 
HETATM    7  C8  UNL     1      21.996   1.412  51.051  1.00  0.00    -0.063 C 
HETATM    8  C9  UNL     1      21.977   1.321  49.738  1.00  0.00     0.005 C 
HETATM    9  C10 UNL     1      21.976   1.453  48.311  1.00  0.00     0.018 C 
HETATM   10  C11 UNL     1      22.099   2.667  47.691  1.00  0.00     0.094 C 
HETATM   11  N1  UNL     1      22.222   3.672  48.711  1.00  0.00    -0.322 N 
HETATM   12  C12 UNL     1      23.365   4.561  48.787  1.00  0.00     0.190 C 
HETATM   13  C13 UNL     1      24.330   3.983  49.843  1.00  0.00     0.054 C 
HETATM   14  C14 UNL     1      23.306   4.047  50.730  1.00  0.00     0.023 C 
HETATM   15  C15 UNL     1      21.990   4.013  51.057  1.00  0.00     0.081 A 
HETATM   16  C16 UNL     1      21.456   3.942  52.309  1.00  0.00     0.032 A 
HETATM   17  C17 UNL     1      21.915   2.579  51.963  1.00  0.00     0.038 A 
HETATM   18  C18 UNL     1      22.962   2.400  52.945  1.00  0.00     0.177 C 
HETATM   19  O2  UNL     1      24.221   2.429  52.677  1.00  0.00    -0.312 OA
HETATM   20  C19 UNL     1      25.064   2.785  51.779  1.00  0.00     0.236 C 
HETATM   21  N2  UNL     1      25.386   3.453  50.586  1.00  0.00    -0.213 NA
HETATM   22  N3  UNL     1      26.441   2.463  51.753  1.00  0.00    -0.355 NA
HETATM   23  C20 UNL     1      27.004   1.319  51.774  1.00  0.00     0.269 C 
HETATM   24  C21 UNL     1      26.446  -0.096  51.832  1.00  0.00     0.111 C 
HETATM   25  C22 UNL     1      21.217   3.791  49.779  1.00  0.00     0.238 C 
HETATM   26  O3  UNL     1      20.314   3.646  49.039  1.00  0.00    -0.272 OA
ENDROOT
BRANCH   1  27
HETATM   27  O1  UNL     1      26.962  -0.511  54.117  1.00  0.00    -0.359 OA
HETATM   28  C1  UNL     1      28.255  -0.871  53.737  1.00  0.00     0.209 C 
ENDBRANCH   1  27
TORSDOF 1
ENDMDL
MODEL 2
REMARK VINA RESULT:      -8.8      1.790      6.479
REMARK  1 active torsions:
REMARK  status: ('A' for Active; 'I' for Inactive)
REMARK    1  A    between atoms: O1_2  and  C2_3 
ROOT
HETATM    1  C2  UNL     1      22.281   3.808  47.240  1.00  0.00     0.056 C 
HETATM    2  C3  UNL     1      22.463   5.076  47.428  1.00  0.00    -0.033 C 
HETATM    3  C4  UNL     1      21.808   6.329  47.021  1.00  0.00     0.050 C 
HETATM    4  C5  UNL     1      23.551   5.485  48.296  1.00  0.00     0.005 C 
HETATM    5  C6  UNL     1      24.454   4.787  48.964  1.00  0.00    -0.022 C 
HETATM    6  C7  UNL     1      25.599   4.544  49.852  1.00  0.00     0.062 C 
HETATM    7  C8  UNL     1      25.266   3.597  51.003  1.00  0.00    -0.063 C 
HETATM    8  C9  UNL     1      26.005   2.509  51.069  1.00  0.00     0.005 C 
HETATM    9  C10 UNL     1      26.681   1.271  51.326  1.00  0.00     0.018 C 
HETATM   10  C11 UNL     1      26.317   0.442  52.353  1.00  0.00     0.094 C 
HETATM   11  N1  UNL     1      25.207   1.047  53.036  1.00  0.00    -0.322 N 
HETATM   12  C12 UNL     1      23.931   0.375  53.183  1.00  0.00     0.190 C 
HETATM   13  C13 UNL     1      22.995   0.915  52.082  1.00  0.00     0.054 C 
HETATM   14  C14 UNL     1      23.218   2.156  52.582  1.00  0.00     0.023 C 
HETATM   15  C15 UNL     1      23.984   3.084  53.207  1.00  0.00     0.081 A 
HETATM   16  C16 UNL     1      23.742   4.422  53.299  1.00  0.00     0.032 A 
HETATM   17  C17 UNL     1      24.274   4.176  51.941  1.00  0.00     0.038 A 
HETATM   18  C18 UNL     1      23.122   4.535  51.142  1.00  0.00     0.177 C 
HETATM   19  O2  UNL     1      22.367   3.685  50.536  1.00  0.00    -0.312 OA
HETATM   20  C19 UNL     1      22.069   2.439  50.487  1.00  0.00     0.236 C 
HETATM   21  N2  UNL     1      22.133   1.136  51.006  1.00  0.00    -0.213 NA
HETATM   22  N3  UNL     1      21.280   1.808  49.498  1.00  0.00    -0.355 NA
HETATM   23  C20 UNL     1      21.440   1.780  48.233  1.00  0.00     0.269 C 
HETATM   24  C21 UNL     1      22.498   2.385  47.321  1.00  0.00     0.111 C 
HETATM   25  C22 UNL     1      25.296   2.422  53.553  1.00  0.00     0.238 C 
HETATM   26  O3  UNL     1      26.382   2.264  53.978  1.00  0.00    -0.272 OA
ENDROOT
BRANCH   1  27
HETATM   27  O1  UNL     1      21.157   4.156  46.468  1.00  0.00    -0.359 OA
HETATM   28  C1  UNL     1      21.016   3.701  45.157  1.00  0.00     0.209 C 
ENDBRANCH   1  27
TORSDOF 1
ENDMDL
MODEL 3
REMARK VINA RESULT:      -8.7      1.662      2.211
REMARK  1 active torsions:
REMARK  status: ('A' for Active; 'I' for Inactive)
REMARK    1  A    between atoms: O1_2  and  C2_3 
ROOT
HETATM    1  C2  UNL     1      23.887   0.191  53.088  1.00  0.00     0.056 C 
HETATM    2  C3  UNL     1      22.779  -0.410  53.380  1.00  0.00    -0.033 C 
HETATM    3  C4  UNL     1      22.241  -1.187  54.507  1.00  0.00     0.050 C 
HETATM    4  C5  UNL     1      21.685  -0.318  52.430  1.00  0.00     0.005 C 
HETATM    5  C6  UNL     1      21.590   0.279  51.254  1.00  0.00    -0.022 C 
HETATM    6  C7  UNL     1      20.960   0.720  50.002  1.00  0.00     0.062 C 
HETATM    7  C8  UNL     1      21.031   2.233  49.804  1.00  0.00    -0.063 C 
HETATM    8  C9  UNL     1      21.638   2.630  48.705  1.00  0.00     0.005 C 
HETATM    9  C10 UNL     1      22.253   3.276  47.583  1.00  0.00     0.018 C 
HETATM   10  C11 UNL     1      22.319   4.639  47.474  1.00  0.00     0.094 C 
HETATM   11  N1  UNL     1      21.693   5.205  48.637  1.00  0.00    -0.322 N 
HETATM   12  C12 UNL     1      22.395   6.104  49.533  1.00  0.00     0.190 C 
HETATM   13  C13 UNL     1      22.886   5.268  50.732  1.00  0.00     0.054 C 
HETATM   14  C14 UNL     1      21.595   4.909  50.937  1.00  0.00     0.023 C 
HETATM   15  C15 UNL     1      20.337   4.638  50.511  1.00  0.00     0.081 A 
HETATM   16  C16 UNL     1      19.331   4.064  51.230  1.00  0.00     0.032 A 
HETATM   17  C17 UNL     1      20.238   2.971  50.817  1.00  0.00     0.038 A 
HETATM   18  C18 UNL     1      20.727   2.539  52.108  1.00  0.00     0.177 C 
HETATM   19  O2  UNL     1      21.912   2.779  52.552  1.00  0.00    -0.312 OA
HETATM   20  C19 UNL     1      22.944   3.514  52.358  1.00  0.00     0.236 C 
HETATM   21  N2  UNL     1      23.585   4.600  51.740  1.00  0.00    -0.213 NA
HETATM   22  N3  UNL     1      24.211   3.351  52.965  1.00  0.00    -0.355 NA
HETATM   23  C20 UNL     1      24.983   2.334  52.964  1.00  0.00     0.269 C 
HETATM   24  C21 UNL     1      24.855   0.953  52.338  1.00  0.00     0.111 C 
HETATM   25  C22 UNL     1      20.320   4.832  49.013  1.00  0.00     0.238 C 
HETATM   26  O3  UNL     1      19.928   4.888  47.905  1.00  0.00    -0.272 OA
ENDROOT
BRANCH   1  27
HETATM   27  O1  UNL     1      24.362  -0.224  54.346  1.00  0.00    -0.359 OA
HETATM   28  C1  UNL     1      25.699  -0.573  54.532  1.00  0.00     0.209 C 
ENDBRANCH   1  27
TORSDOF 1
ENDMDL
MODEL 4
REMARK VINA RESULT:      -8.6      2.332      4.040
REMARK  1 active torsions:
REMARK  status: ('A' for Active; 'I' for Inactive)
REMARK    1  A    between atoms: O1_2  and  C2_3 
ROOT
HETATM    1  C2  UNL     1      22.556   0.410  52.942  1.00  0.00     0.056 C 
HETATM    2  C3  UNL     1      23.776   0.504  53.365  1.00  0.00    -0.033 C 
HETATM    3  C4  UNL     1      24.827  -0.415  53.828  1.00  0.00     0.050 C 
HETATM    4  C5  UNL     1      24.390   1.819  53.383  1.00  0.00     0.005 C 
HETATM    5  C6  UNL     1      23.926   3.011  53.048  1.00  0.00    -0.022 C 
HETATM    6  C7  UNL     1      23.944   4.465  52.834  1.00  0.00     0.062 C 
HETATM    7  C8  UNL     1      23.549   4.859  51.412  1.00  0.00    -0.063 C 
HETATM    8  C9  UNL     1      22.509   5.662  51.319  1.00  0.00     0.005 C 
HETATM    9  C10 UNL     1      21.413   6.523  50.988  1.00  0.00     0.018 C 
HETATM   10  C11 UNL     1      21.081   6.816  49.693  1.00  0.00     0.094 C 
HETATM   11  N1  UNL     1      21.998   6.119  48.834  1.00  0.00    -0.322 N 
HETATM   12  C12 UNL     1      21.553   5.173  47.830  1.00  0.00     0.190 C 
HETATM   13  C13 UNL     1      21.706   3.759  48.427  1.00  0.00     0.054 C 
HETATM   14  C14 UNL     1      23.019   4.045  48.616  1.00  0.00     0.023 C 
HETATM   15  C15 UNL     1      24.044   4.898  48.860  1.00  0.00     0.081 A 
HETATM   16  C16 UNL     1      25.330   4.570  49.172  1.00  0.00     0.032 A 
HETATM   17  C17 UNL     1      24.532   4.393  50.405  1.00  0.00     0.038 A 
HETATM   18  C18 UNL     1      24.655   2.963  50.590  1.00  0.00     0.177 C 
HETATM   19  O2  UNL     1      23.708   2.119  50.366  1.00  0.00    -0.312 OA
HETATM   20  C19 UNL     1      22.572   1.991  49.786  1.00  0.00     0.236 C 
HETATM   21  N2  UNL     1      21.570   2.461  48.921  1.00  0.00    -0.213 NA
HETATM   22  N3  UNL     1      21.681   0.902  49.927  1.00  0.00    -0.355 NA
HETATM   23  C20 UNL     1      21.152   0.422  50.984  1.00  0.00     0.269 C 
HETATM   24  C21 UNL     1      21.261   0.813  52.451  1.00  0.00     0.111 C 
HETATM   25  C22 UNL     1      23.453   6.281  48.993  1.00  0.00     0.238 C 
HETATM   26  O3  UNL     1      23.375   7.446  49.143  1.00  0.00    -0.272 OA
ENDROOT
BRANCH   1  27
HETATM   27  O1  UNL     1      22.677  -0.980  53.116  1.00  0.00    -0.359 OA
HETATM   28  C1  UNL     1      21.747  -1.695  53.871  1.00  0.00     0.209 C 
ENDBRANCH   1  27
TORSDOF 1
ENDMDL
MODEL 5
REMARK VINA RESULT:      -8.0      3.348      6.873
REMARK  1 active torsions:
REMARK  status: ('A' for Active; 'I' for Inactive)
REMARK    1  A    between atoms: O1_2  and  C2_3 
ROOT
HETATM    1  C2  UNL     1      24.764   8.838  49.226  1.00  0.00     0.056 C 
HETATM    2  C3  UNL     1      23.568   8.914  48.738  1.00  0.00    -0.033 C 
HETATM    3  C4  UNL     1      22.886   9.665  47.673  1.00  0.00     0.050 C 
HETATM    4  C5  UNL     1      22.555   8.027  49.281  1.00  0.00     0.005 C 
HETATM    5  C6  UNL     1      22.606   7.115  50.237  1.00  0.00    -0.022 C 
HETATM    6  C7  UNL     1      22.117   6.059  51.134  1.00  0.00     0.062 C 
HETATM    7  C8  UNL     1      22.945   4.778  51.049  1.00  0.00    -0.063 C 
HETATM    8  C9  UNL     1      23.487   4.382  52.182  1.00  0.00     0.005 C 
HETATM    9  C10 UNL     1      24.165   3.776  53.289  1.00  0.00     0.018 C 
HETATM   10  C11 UNL     1      24.923   2.645  53.149  1.00  0.00     0.094 C 
HETATM   11  N1  UNL     1      24.885   2.257  51.766  1.00  0.00    -0.322 N 
HETATM   12  C12 UNL     1      26.087   2.126  50.965  1.00  0.00     0.190 C 
HETATM   13  C13 UNL     1      26.244   3.427  50.152  1.00  0.00     0.054 C 
HETATM   14  C14 UNL     1      25.009   3.189  49.643  1.00  0.00     0.023 C 
HETATM   15  C15 UNL     1      23.749   2.694  49.718  1.00  0.00     0.081 A 
HETATM   16  C16 UNL     1      22.720   2.930  48.856  1.00  0.00     0.032 A 
HETATM   17  C17 UNL     1      22.834   4.123  49.723  1.00  0.00     0.038 A 
HETATM   18  C18 UNL     1      23.217   5.119  48.746  1.00  0.00     0.177 C 
HETATM   19  O2  UNL     1      24.402   5.612  48.639  1.00  0.00    -0.312 OA
HETATM   20  C19 UNL     1      25.620   5.421  48.988  1.00  0.00     0.236 C 
HETATM   21  N2  UNL     1      26.632   4.624  49.548  1.00  0.00    -0.213 NA
HETATM   22  N3  UNL     1      26.686   6.338  48.831  1.00  0.00    -0.355 NA
HETATM   23  C20 UNL     1      26.792   7.536  49.258  1.00  0.00     0.269 C 
HETATM   24  C21 UNL     1      25.856   8.418  50.071  1.00  0.00     0.111 C 
HETATM   25  C22 UNL     1      23.602   2.048  51.075  1.00  0.00     0.238 C 
HETATM   26  O3  UNL     1      23.131   1.467  51.983  1.00  0.00    -0.272 OA
ENDROOT
BRANCH   1  27
HETATM   27  O1  UNL     1      25.139   9.802  48.273  1.00  0.00    -0.359 OA
HETATM   28  C1  UNL     1      26.067  10.797  48.580  1.00  0.00     0.209 C 
ENDBRANCH   1  27
TORSDOF 1
ENDMDL
MODEL 6
REMARK VINA RESULT:      -8.0      9.181     12.123
REMARK  1 active torsions:
REMARK  status: ('A' for Active; 'I' for Inactive)
REMARK    1  A    between atoms: O1_2  and  C2_3 
ROOT
HETATM    1  C2  UNL     1      29.752   9.742  47.810  1.00  0.00     0.056 C 
HETATM    2  C3  UNL     1      30.691  10.531  48.225  1.00  0.00    -0.033 C 
HETATM    3  C4  UNL     1      30.817  11.642  49.179  1.00  0.00     0.050 C 
HETATM    4  C5  UNL     1      32.031  10.321  47.710  1.00  0.00     0.005 C 
HETATM    5  C6  UNL     1      32.515   9.446  46.845  1.00  0.00    -0.022 C 
HETATM    6  C7  UNL     1      33.523   8.764  46.021  1.00  0.00     0.062 C 
HETATM    7  C8  UNL     1      33.568   7.257  46.266  1.00  0.00    -0.063 C 
HETATM    8  C9  UNL     1      33.354   6.508  45.205  1.00  0.00     0.005 C 
HETATM    9  C10 UNL     1      33.149   5.513  44.194  1.00  0.00     0.018 C 
HETATM   10  C11 UNL     1      33.165   4.174  44.476  1.00  0.00     0.094 C 
HETATM   11  N1  UNL     1      33.407   4.022  45.884  1.00  0.00    -0.322 N 
HETATM   12  C12 UNL     1      32.486   3.320  46.756  1.00  0.00     0.190 C 
HETATM   13  C13 UNL     1      31.612   4.381  47.456  1.00  0.00     0.054 C 
HETATM   14  C14 UNL     1      32.760   4.937  47.918  1.00  0.00     0.023 C 
HETATM   15  C15 UNL     1      34.079   5.236  47.821  1.00  0.00     0.081 A 
HETATM   16  C16 UNL     1      34.786   6.101  48.602  1.00  0.00     0.032 A 
HETATM   17  C17 UNL     1      34.021   6.923  47.638  1.00  0.00     0.038 A 
HETATM   18  C18 UNL     1      33.134   7.623  48.540  1.00  0.00     0.177 C 
HETATM   19  O2  UNL     1      31.878   7.368  48.666  1.00  0.00    -0.312 OA
HETATM   20  C19 UNL     1      30.985   6.487  48.401  1.00  0.00     0.236 C 
HETATM   21  N2  UNL     1      30.609   5.205  47.970  1.00  0.00    -0.213 NA
HETATM   22  N3  UNL     1      29.586   6.651  48.532  1.00  0.00    -0.355 NA
HETATM   23  C20 UNL     1      28.823   7.527  48.005  1.00  0.00     0.269 C 
HETATM   24  C21 UNL     1      29.098   8.693  47.067  1.00  0.00     0.111 C 
HETATM   25  C22 UNL     1      34.576   4.649  46.521  1.00  0.00     0.238 C 
HETATM   26  O3  UNL     1      35.301   4.345  45.646  1.00  0.00    -0.272 OA
ENDROOT
BRANCH   1  27
HETATM   27  O1  UNL     1      28.890  10.419  48.691  1.00  0.00    -0.359 OA
HETATM   28  C1  UNL     1      27.619  10.826  48.285  1.00  0.00     0.209 C 
ENDBRANCH   1  27
TORSDOF 1
ENDMDL
MODEL 7
REMARK VINA RESULT:      -7.9      3.184      6.143
REMARK  1 active torsions:
REMARK  status: ('A' for Active; 'I' for Inactive)
REMARK    1  A    between atoms: O1_2  and  C2_3 
ROOT
HETATM    1  C2  UNL     1      24.298   7.445  48.851  1.00  0.00     0.056 C 
HETATM    2  C3  UNL     1      25.491   7.198  49.290  1.00  0.00    -0.033 C 
HETATM    3  C4  UNL     1      26.664   7.978  49.715  1.00  0.00     0.050 C 
HETATM    4  C5  UNL     1      25.863   5.812  49.503  1.00  0.00     0.005 C 
HETATM    5  C6  UNL     1      25.197   4.684  49.319  1.00  0.00    -0.022 C 
HETATM    6  C7  UNL     1      24.954   3.235  49.315  1.00  0.00     0.062 C 
HETATM    7  C8  UNL     1      23.706   2.841  50.103  1.00  0.00    -0.063 C 
HETATM    8  C9  UNL     1      22.789   2.189  49.417  1.00  0.00     0.005 C 
HETATM    9  C10 UNL     1      21.672   1.479  48.869  1.00  0.00     0.018 C 
HETATM   10  C11 UNL     1      20.562   1.182  49.613  1.00  0.00     0.094 C 
HETATM   11  N1  UNL     1      20.764   1.706  50.935  1.00  0.00    -0.322 N 
HETATM   12  C12 UNL     1      19.855   2.662  51.536  1.00  0.00     0.190 C 
HETATM   13  C13 UNL     1      20.472   4.064  51.352  1.00  0.00     0.054 C 
HETATM   14  C14 UNL     1      21.568   3.604  52.003  1.00  0.00     0.023 C 
HETATM   15  C15 UNL     1      22.436   2.626  52.362  1.00  0.00     0.081 A 
HETATM   16  C16 UNL     1      23.642   2.781  52.978  1.00  0.00     0.032 A 
HETATM   17  C17 UNL     1      23.843   3.121  51.552  1.00  0.00     0.038 A 
HETATM   18  C18 UNL     1      24.172   4.525  51.665  1.00  0.00     0.177 C 
HETATM   19  O2  UNL     1      23.376   5.485  51.340  1.00  0.00    -0.312 OA
HETATM   20  C19 UNL     1      22.149   5.748  51.079  1.00  0.00     0.236 C 
HETATM   21  N2  UNL     1      20.792   5.389  51.047  1.00  0.00    -0.213 NA
HETATM   22  N3  UNL     1      21.651   6.957  50.541  1.00  0.00    -0.355 NA
HETATM   23  C20 UNL     1      21.968   7.550  49.457  1.00  0.00     0.269 C 
HETATM   24  C21 UNL     1      22.964   7.210  48.357  1.00  0.00     0.111 C 
HETATM   25  C22 UNL     1      21.959   1.347  51.715  1.00  0.00     0.238 C 
HETATM   26  O3  UNL     1      21.902   0.212  51.409  1.00  0.00    -0.272 OA
ENDROOT
BRANCH   1  27
HETATM   27  O1  UNL     1      24.615   8.811  48.965  1.00  0.00    -0.359 OA
HETATM   28  C1  UNL     1      24.359   9.700  47.922  1.00  0.00     0.209 C 
ENDBRANCH   1  27
TORSDOF 1
ENDMDL
MODEL 8
REMARK VINA RESULT:      -7.9      9.336     11.286
REMARK  1 active torsions:
REMARK  status: ('A' for Active; 'I' for Inactive)
REMARK    1  A    between atoms: O1_2  and  C2_3 
ROOT
HETATM    1  C2  UNL     1      33.430   5.446  44.484  1.00  0.00     0.056 C 
HETATM    2  C3  UNL     1      33.846   4.661  45.426  1.00  0.00    -0.033 C 
HETATM    3  C4  UNL     1      35.049   3.863  45.708  1.00  0.00     0.050 C 
HETATM    4  C5  UNL     1      32.997   4.487  46.590  1.00  0.00     0.005 C 
HETATM    5  C6  UNL     1      31.811   4.985  46.896  1.00  0.00    -0.022 C 
HETATM    6  C7  UNL     1      30.604   5.225  47.700  1.00  0.00     0.062 C 
HETATM    7  C8  UNL     1      30.339   6.709  47.943  1.00  0.00    -0.063 C 
HETATM    8  C9  UNL     1      29.173   7.150  47.517  1.00  0.00     0.005 C 
HETATM    9  C10 UNL     1      27.974   7.835  47.134  1.00  0.00     0.018 C 
HETATM   10  C11 UNL     1      27.803   9.177  47.345  1.00  0.00     0.094 C 
HETATM   11  N1  UNL     1      28.994   9.680  47.972  1.00  0.00    -0.322 N 
HETATM   12  C12 UNL     1      29.784  10.746  47.389  1.00  0.00     0.190 C 
HETATM   13  C13 UNL     1      30.967  10.091  46.647  1.00  0.00     0.054 C 
HETATM   14  C14 UNL     1      31.304   9.505  47.823  1.00  0.00     0.023 C 
HETATM   15  C15 UNL     1      31.006   8.973  49.034  1.00  0.00     0.081 A 
HETATM   16  C16 UNL     1      31.836   8.261  49.846  1.00  0.00     0.032 A 
HETATM   17  C17 UNL     1      31.388   7.339  48.779  1.00  0.00     0.038 A 
HETATM   18  C18 UNL     1      32.646   7.084  48.112  1.00  0.00     0.177 C 
HETATM   19  O2  UNL     1      32.970   7.572  46.964  1.00  0.00    -0.312 OA
HETATM   20  C19 UNL     1      32.652   8.478  46.115  1.00  0.00     0.236 C 
HETATM   21  N2  UNL     1      31.933   9.629  45.752  1.00  0.00    -0.213 NA
HETATM   22  N3  UNL     1      33.147   8.596  44.795  1.00  0.00    -0.355 NA
HETATM   23  C20 UNL     1      33.118   7.747  43.843  1.00  0.00     0.269 C 
HETATM   24  C21 UNL     1      32.563   6.333  43.749  1.00  0.00     0.111 C 
HETATM   25  C22 UNL     1      29.509   9.073  49.210  1.00  0.00     0.238 C 
HETATM   26  O3  UNL     1      28.440   8.989  49.694  1.00  0.00    -0.272 OA
ENDROOT
BRANCH   1  27
HETATM   27  O1  UNL     1      34.655   5.203  43.837  1.00  0.00    -0.359 OA
HETATM   28  C1  UNL     1      34.737   5.152  42.445  1.00  0.00     0.209 C 
ENDBRANCH   1  27
TORSDOF 1
ENDMDL
MODEL 9
REMARK VINA RESULT:      -7.7      2.735      4.533
REMARK  1 active torsions:
REMARK  status: ('A' for Active; 'I' for Inactive)
REMARK    1  A    between atoms: O1_2  and  C2_3 
ROOT
HETATM    1  C2  UNL     1      22.244   0.546  53.283  1.00  0.00     0.056 C 
HETATM    2  C3  UNL     1      23.492   0.564  52.938  1.00  0.00    -0.033 C 
HETATM    3  C4  UNL     1      24.661  -0.317  53.084  1.00  0.00     0.050 C 
HETATM    4  C5  UNL     1      23.963   1.687  52.150  1.00  0.00     0.005 C 
HETATM    5  C6  UNL     1      23.344   2.765  51.697  1.00  0.00    -0.022 C 
HETATM    6  C7  UNL     1      23.184   4.043  50.989  1.00  0.00     0.062 C 
HETATM    7  C8  UNL     1      22.060   4.011  49.955  1.00  0.00    -0.063 C 
HETATM    8  C9  UNL     1      21.108   4.903  50.130  1.00  0.00     0.005 C 
HETATM    9  C10 UNL     1      19.976   5.782  50.131  1.00  0.00     0.018 C 
HETATM   10  C11 UNL     1      18.978   5.686  49.199  1.00  0.00     0.094 C 
HETATM   11  N1  UNL     1      19.304   4.601  48.315  1.00  0.00    -0.322 N 
HETATM   12  C12 UNL     1      18.420   3.469  48.120  1.00  0.00     0.190 C 
HETATM   13  C13 UNL     1      18.931   2.324  49.018  1.00  0.00     0.054 C 
HETATM   14  C14 UNL     1      20.121   2.428  48.375  1.00  0.00     0.023 C 
HETATM   15  C15 UNL     1      21.077   3.127  47.716  1.00  0.00     0.081 A 
HETATM   16  C16 UNL     1      22.336   2.706  47.406  1.00  0.00     0.032 A 
HETATM   17  C17 UNL     1      22.350   3.080  48.837  1.00  0.00     0.038 A 
HETATM   18  C18 UNL     1      22.611   1.791  49.440  1.00  0.00     0.177 C 
HETATM   19  O2  UNL     1      21.731   1.094  50.071  1.00  0.00    -0.312 OA
HETATM   20  C19 UNL     1      20.469   0.978  50.263  1.00  0.00     0.236 C 
HETATM   21  N2  UNL     1      19.139   1.302  49.946  1.00  0.00    -0.213 NA
HETATM   22  N3  UNL     1      19.844   0.163  51.235  1.00  0.00    -0.355 NA
HETATM   23  C20 UNL     1      19.999   0.153  52.502  1.00  0.00     0.269 C 
HETATM   24  C21 UNL     1      20.877   0.978  53.432  1.00  0.00     0.111 C 
HETATM   25  C22 UNL     1      20.601   4.557  47.619  1.00  0.00     0.238 C 
HETATM   26  O3  UNL     1      20.571   5.701  47.349  1.00  0.00    -0.272 OA
ENDROOT
BRANCH   1  27
HETATM   27  O1  UNL     1      22.496  -0.711  53.865  1.00  0.00    -0.359 OA
HETATM   28  C1  UNL     1      21.777  -1.147  54.977  1.00  0.00     0.209 C 
ENDBRANCH   1  27
TORSDOF 1
ENDMDL
