MODEL 1
REMARK VINA RESULT:      -7.5      0.000      0.000
REMARK  10 active torsions:
REMARK  status: ('A' for Active; 'I' for Inactive)
REMARK       I    between atoms: C1_2  and  N1_3 
REMARK    1  A    between atoms: C1_2  and  C9_12 
REMARK    2  A    between atoms: N1_3  and  C2_4 
REMARK    3  A    between atoms: C3_5  and  C4_6 
REMARK    4  A    between atoms: C4_6  and  C5_7 
REMARK    5  A    between atoms: C5_7  and  C6_8 
REMARK    6  A    between atoms: C6_8  and  C7_9 
REMARK    7  A    between atoms: C7_9  and  C8_10 
REMARK    8  A    between atoms: C14_17  and  N2_18 
REMARK    9  A    between atoms: N2_18  and  C15_19 
REMARK   10  A    between atoms: C15_19  and  C16_20 
ROOT
HETATM    1  C9  UNL     1      26.964   1.838  53.271  1.00  0.00     0.058 A 
HETATM    2  C10 UNL     1      28.254   2.264  53.393  1.00  0.00     0.019 A 
HETATM    3  C11 UNL     1      29.174   1.619  54.183  1.00  0.00     0.001 A 
HETATM    4  C12 UNL     1      28.783   0.491  54.882  1.00  0.00     0.002 A 
HETATM    5  C13 UNL     1      27.477   0.077  54.745  1.00  0.00     0.030 A 
HETATM    6  C14 UNL     1      26.561   0.719  53.959  1.00  0.00     0.044 A 
ENDROOT
BRANCH   1   7
HETATM    7  C1  UNL     1      26.024   2.547  52.430  1.00  0.00     0.257 C 
HETATM    8  O1  UNL     1      24.825   2.820  52.372  1.00  0.00    -0.267 OA
HETATM    9  N1  UNL     1      26.501   3.185  51.254  1.00  0.00    -0.333 N 
HETATM   10  H1  UNL     1      27.496   3.226  50.873  1.00  0.00     0.168 HD
BRANCH   9  11
HETATM   11  C2  UNL     1      25.506   3.860  50.487  1.00  0.00     0.092 C 
HETATM   12  C3  UNL     1      25.893   4.452  49.367  1.00  0.00     0.025 C 
BRANCH  12  13
HETATM   13  C4  UNL     1      27.281   4.426  48.917  1.00  0.00     0.052 C 
BRANCH  13  14
HETATM   14  C5  UNL     1      27.769   5.563  48.441  1.00  0.00    -0.150 C 
BRANCH  14  15
HETATM   15  C6  UNL     1      28.493   6.563  47.955  1.00  0.00     0.074 C 
BRANCH  15  16
HETATM   16  C7  UNL     1      27.834   7.887  47.867  1.00  0.00     0.049 C 
BRANCH  16  17
HETATM   17  C8  UNL     1      27.094   8.052  49.202  1.00  0.00     0.223 C 
HETATM   18  F1  UNL     1      27.832   8.846  50.063  1.00  0.00    -0.255 F 
ENDBRANCH  16  17
ENDBRANCH  15  16
ENDBRANCH  14  15
ENDBRANCH  13  14
ENDBRANCH  12  13
ENDBRANCH   9  11
ENDBRANCH   1   7
BRANCH   6  19
HETATM   19  N2  UNL     1      25.298   0.132  53.941  1.00  0.00    -0.385 N 
HETATM   20  H14 UNL     1      24.709   0.548  53.188  1.00  0.00     0.160 HD
BRANCH  19  21
HETATM   21  C15 UNL     1      24.519  -0.870  54.624  1.00  0.00     0.158 C 
BRANCH  21  22
HETATM   22  C16 UNL     1      23.105  -0.767  54.166  1.00  0.00    -0.038 A 
HETATM   23  C17 UNL     1      22.982   0.029  53.037  1.00  0.00     0.028 A 
HETATM   24  C18 UNL     1      21.796   0.289  52.389  1.00  0.00     0.116 A 
HETATM   25  N3  UNL     1      20.647  -0.260  52.862  1.00  0.00    -0.273 NA
HETATM   26  C19 UNL     1      20.744  -1.047  53.971  1.00  0.00     0.116 A 
HETATM   27  C20 UNL     1      21.920  -1.307  54.617  1.00  0.00     0.028 A 
ENDBRANCH  21  22
ENDBRANCH  19  21
ENDBRANCH   6  19
TORSDOF 10
ENDMDL
MODEL 2
REMARK VINA RESULT:      -7.4      1.990      4.997
REMARK  10 active torsions:
REMARK  status: ('A' for Active; 'I' for Inactive)
REMARK       I    between atoms: C1_2  and  N1_3 
REMARK    1  A    between atoms: C1_2  and  C9_12 
REMARK    2  A    between atoms: N1_3  and  C2_4 
REMARK    3  A    between atoms: C3_5  and  C4_6 
REMARK    4  A    between atoms: C4_6  and  C5_7 
REMARK    5  A    between atoms: C5_7  and  C6_8 
REMARK    6  A    between atoms: C6_8  and  C7_9 
REMARK    7  A    between atoms: C7_9  and  C8_10 
REMARK    8  A    between atoms: C14_17  and  N2_18 
REMARK    9  A    between atoms: N2_18  and  C15_19 
REMARK   10  A    between atoms: C15_19  and  C16_20 
ROOT
HETATM    1  C9  UNL     1      22.372   1.283  52.990  1.00  0.00     0.058 A 
HETATM    2  C10 UNL     1      21.236   0.774  53.547  1.00  0.00     0.019 A 
HETATM    3  C11 UNL     1      21.218  -0.413  54.237  1.00  0.00     0.001 A 
HETATM    4  C12 UNL     1      22.398  -1.124  54.377  1.00  0.00     0.002 A 
HETATM    5  C13 UNL     1      23.533  -0.594  53.807  1.00  0.00     0.030 A 
HETATM    6  C14 UNL     1      23.551   0.588  53.120  1.00  0.00     0.044 A 
ENDROOT
BRANCH   1   7
HETATM    7  C1  UNL     1      22.348   2.536  52.268  1.00  0.00     0.257 C 
HETATM    8  O1  UNL     1      22.435   3.748  52.470  1.00  0.00    -0.267 OA
HETATM    9  N1  UNL     1      22.173   2.513  50.858  1.00  0.00    -0.333 N 
HETATM   10  H1  UNL     1      22.051   1.672  50.214  1.00  0.00     0.168 HD
BRANCH   9  11
HETATM   11  C2  UNL     1      22.162   3.793  50.229  1.00  0.00     0.092 C 
HETATM   12  C3  UNL     1      23.177   4.093  49.432  1.00  0.00     0.025 C 
BRANCH  12  13
HETATM   13  C4  UNL     1      24.275   3.162  49.193  1.00  0.00     0.052 C 
BRANCH  13  14
HETATM   14  C5  UNL     1      25.498   3.619  49.428  1.00  0.00    -0.150 C 
BRANCH  14  15
HETATM   15  C6  UNL     1      26.800   3.851  49.527  1.00  0.00     0.074 C 
BRANCH  15  16
HETATM   16  C7  UNL     1      27.351   4.946  48.694  1.00  0.00     0.049 C 
BRANCH  16  17
HETATM   17  C8  UNL     1      26.514   6.181  49.056  1.00  0.00     0.223 C 
HETATM   18  F1  UNL     1      25.773   6.594  47.962  1.00  0.00    -0.255 F 
ENDBRANCH  16  17
ENDBRANCH  15  16
ENDBRANCH  14  15
ENDBRANCH  13  14
ENDBRANCH  12  13
ENDBRANCH   9  11
ENDBRANCH   1   7
BRANCH   6  19
HETATM   19  N2  UNL     1      24.802   0.960  52.635  1.00  0.00    -0.385 N 
HETATM   20  H14 UNL     1      24.916   1.995  52.666  1.00  0.00     0.160 HD
BRANCH  19  21
HETATM   21  C15 UNL     1      26.010   0.386  52.097  1.00  0.00     0.158 C 
BRANCH  21  22
HETATM   22  C16 UNL     1      27.131   0.672  53.036  1.00  0.00    -0.038 A 
HETATM   23  C17 UNL     1      27.600   1.971  52.904  1.00  0.00     0.028 A 
HETATM   24  C18 UNL     1      28.620   2.514  53.652  1.00  0.00     0.116 A 
HETATM   25  N3  UNL     1      29.230   1.751  54.596  1.00  0.00    -0.273 NA
HETATM   26  C19 UNL     1      28.784   0.470  54.744  1.00  0.00     0.116 A 
HETATM   27  C20 UNL     1      27.773  -0.072  54.003  1.00  0.00     0.028 A 
ENDBRANCH  21  22
ENDBRANCH  19  21
ENDBRANCH   6  19
TORSDOF 10
ENDMDL
MODEL 3
REMARK VINA RESULT:      -7.3      2.415      5.845
REMARK  10 active torsions:
REMARK  status: ('A' for Active; 'I' for Inactive)
REMARK       I    between atoms: C1_2  and  N1_3 
REMARK    1  A    between atoms: C1_2  and  C9_12 
REMARK    2  A    between atoms: N1_3  and  C2_4 
REMARK    3  A    between atoms: C3_5  and  C4_6 
REMARK    4  A    between atoms: C4_6  and  C5_7 
REMARK    5  A    between atoms: C5_7  and  C6_8 
REMARK    6  A    between atoms: C6_8  and  C7_9 
REMARK    7  A    between atoms: C7_9  and  C8_10 
REMARK    8  A    between atoms: C14_17  and  N2_18 
REMARK    9  A    between atoms: N2_18  and  C15_19 
REMARK   10  A    between atoms: C15_19  and  C16_20 
ROOT
HETATM    1  C9  UNL     1      25.331   3.425  50.993  1.00  0.00     0.058 A 
HETATM    2  C10 UNL     1      26.532   3.320  50.355  1.00  0.00     0.019 A 
HETATM    3  C11 UNL     1      26.891   4.143  49.316  1.00  0.00     0.001 A 
HETATM    4  C12 UNL     1      26.004   5.119  48.898  1.00  0.00     0.002 A 
HETATM    5  C13 UNL     1      24.798   5.208  49.554  1.00  0.00     0.030 A 
HETATM    6  C14 UNL     1      24.440   4.389  50.588  1.00  0.00     0.044 A 
ENDROOT
BRANCH   1   7
HETATM    7  C1  UNL     1      24.989   2.536  52.082  1.00  0.00     0.257 C 
HETATM    8  O1  UNL     1      24.613   2.575  53.254  1.00  0.00    -0.267 OA
HETATM    9  N1  UNL     1      25.070   1.133  51.874  1.00  0.00    -0.333 N 
HETATM   10  H1  UNL     1      25.357   0.604  50.995  1.00  0.00     0.168 HD
BRANCH   9  11
HETATM   11  C2  UNL     1      24.715   0.334  53.001  1.00  0.00     0.092 C 
HETATM   12  C3  UNL     1      25.477  -0.715  53.272  1.00  0.00     0.025 C 
BRANCH  12  13
HETATM   13  C4  UNL     1      26.640  -1.058  52.460  1.00  0.00     0.052 C 
BRANCH  13  14
HETATM   14  C5  UNL     1      27.828  -0.871  53.021  1.00  0.00    -0.150 C 
BRANCH  14  15
HETATM   15  C6  UNL     1      28.869  -0.586  53.791  1.00  0.00     0.074 C 
BRANCH  15  16
HETATM   16  C7  UNL     1      28.726   0.565  54.713  1.00  0.00     0.049 C 
BRANCH  16  17
HETATM   17  C8  UNL     1      28.910   1.807  53.829  1.00  0.00     0.223 C 
HETATM   18  F1  UNL     1      27.745   2.555  53.806  1.00  0.00    -0.255 F 
ENDBRANCH  16  17
ENDBRANCH  15  16
ENDBRANCH  14  15
ENDBRANCH  13  14
ENDBRANCH  12  13
ENDBRANCH   9  11
ENDBRANCH   1   7
BRANCH   6  19
HETATM   19  N2  UNL     1      23.184   4.652  51.131  1.00  0.00    -0.385 N 
HETATM   20  H14 UNL     1      23.263   5.291  51.950  1.00  0.00     0.160 HD
BRANCH  19  21
HETATM   21  C15 UNL     1      21.793   4.332  50.937  1.00  0.00     0.158 C 
BRANCH  21  22
HETATM   22  C16 UNL     1      21.616   2.861  51.104  1.00  0.00    -0.038 A 
HETATM   23  C17 UNL     1      21.222   2.529  52.392  1.00  0.00     0.028 A 
HETATM   24  C18 UNL     1      20.971   1.248  52.827  1.00  0.00     0.116 A 
HETATM   25  N3  UNL     1      21.108   0.213  51.958  1.00  0.00    -0.273 NA
HETATM   26  C19 UNL     1      21.494   0.516  50.685  1.00  0.00     0.116 A 
HETATM   27  C20 UNL     1      21.744   1.787  50.250  1.00  0.00     0.028 A 
ENDBRANCH  21  22
ENDBRANCH  19  21
ENDBRANCH   6  19
TORSDOF 10
ENDMDL
MODEL 4
REMARK VINA RESULT:      -7.2      3.153      7.045
REMARK  10 active torsions:
REMARK  status: ('A' for Active; 'I' for Inactive)
REMARK       I    between atoms: C1_2  and  N1_3 
REMARK    1  A    between atoms: C1_2  and  C9_12 
REMARK    2  A    between atoms: N1_3  and  C2_4 
REMARK    3  A    between atoms: C3_5  and  C4_6 
REMARK    4  A    between atoms: C4_6  and  C5_7 
REMARK    5  A    between atoms: C5_7  and  C6_8 
REMARK    6  A    between atoms: C6_8  and  C7_9 
REMARK    7  A    between atoms: C7_9  and  C8_10 
REMARK    8  A    between atoms: C14_17  and  N2_18 
REMARK    9  A    between atoms: N2_18  and  C15_19 
REMARK   10  A    between atoms: C15_19  and  C16_20 
ROOT
HETATM    1  C9  UNL     1      24.525   4.160  50.863  1.00  0.00     0.058 A 
HETATM    2  C10 UNL     1      24.946   5.183  50.065  1.00  0.00     0.019 A 
HETATM    3  C11 UNL     1      26.086   5.107  49.304  1.00  0.00     0.001 A 
HETATM    4  C12 UNL     1      26.841   3.947  49.344  1.00  0.00     0.002 A 
HETATM    5  C13 UNL     1      26.399   2.926  50.156  1.00  0.00     0.030 A 
HETATM    6  C14 UNL     1      25.264   3.003  50.913  1.00  0.00     0.044 A 
ENDROOT
BRANCH   1   7
HETATM    7  C1  UNL     1      23.318   4.282  51.652  1.00  0.00     0.257 C 
HETATM    8  O1  UNL     1      22.917   4.800  52.695  1.00  0.00    -0.267 OA
HETATM    9  N1  UNL     1      22.132   3.647  51.195  1.00  0.00    -0.333 N 
HETATM   10  H1  UNL     1      21.984   3.065  50.314  1.00  0.00     0.168 HD
BRANCH   9  11
HETATM   11  C2  UNL     1      20.993   3.820  52.034  1.00  0.00     0.092 C 
HETATM   12  C3  UNL     1      20.416   2.729  52.515  1.00  0.00     0.025 C 
BRANCH  12  13
HETATM   13  C4  UNL     1      20.912   1.391  52.210  1.00  0.00     0.052 C 
BRANCH  13  14
HETATM   14  C5  UNL     1      21.112   0.585  53.244  1.00  0.00    -0.150 C 
BRANCH  14  15
HETATM   15  C6  UNL     1      21.527  -0.060  54.325  1.00  0.00     0.074 C 
BRANCH  15  16
HETATM   16  C7  UNL     1      22.538  -1.125  54.125  1.00  0.00     0.049 C 
BRANCH  16  17
HETATM   17  C8  UNL     1      23.178  -1.330  55.505  1.00  0.00     0.223 C 
HETATM   18  F1  UNL     1      24.554  -1.430  55.383  1.00  0.00    -0.255 F 
ENDBRANCH  16  17
ENDBRANCH  15  16
ENDBRANCH  14  15
ENDBRANCH  13  14
ENDBRANCH  12  13
ENDBRANCH   9  11
ENDBRANCH   1   7
BRANCH   6  19
HETATM   19  N2  UNL     1      24.980   1.857  51.653  1.00  0.00    -0.385 N 
HETATM   20  H14 UNL     1      24.670   1.083  51.028  1.00  0.00     0.160 HD
BRANCH  19  21
HETATM   21  C15 UNL     1      24.971   1.376  53.011  1.00  0.00     0.158 C 
BRANCH  21  22
HETATM   22  C16 UNL     1      26.143   0.477  53.205  1.00  0.00    -0.038 A 
HETATM   23  C17 UNL     1      26.843   0.780  54.364  1.00  0.00     0.028 A 
HETATM   24  C18 UNL     1      27.959   0.104  54.802  1.00  0.00     0.116 A 
HETATM   25  N3  UNL     1      28.435  -0.937  54.071  1.00  0.00    -0.273 NA
HETATM   26  C19 UNL     1      27.762  -1.253  52.928  1.00  0.00     0.116 A 
HETATM   27  C20 UNL     1      26.654  -0.585  52.489  1.00  0.00     0.028 A 
ENDBRANCH  21  22
ENDBRANCH  19  21
ENDBRANCH   6  19
TORSDOF 10
ENDMDL
MODEL 5
REMARK VINA RESULT:      -7.1      3.906      8.105
REMARK  10 active torsions:
REMARK  status: ('A' for Active; 'I' for Inactive)
REMARK       I    between atoms: C1_2  and  N1_3 
REMARK    1  A    between atoms: C1_2  and  C9_12 
REMARK    2  A    between atoms: N1_3  and  C2_4 
REMARK    3  A    between atoms: C3_5  and  C4_6 
REMARK    4  A    between atoms: C4_6  and  C5_7 
REMARK    5  A    between atoms: C5_7  and  C6_8 
REMARK    6  A    between atoms: C6_8  and  C7_9 
REMARK    7  A    between atoms: C7_9  and  C8_10 
REMARK    8  A    between atoms: C14_17  and  N2_18 
REMARK    9  A    between atoms: N2_18  and  C15_19 
REMARK   10  A    between atoms: C15_19  and  C16_20 
ROOT
HETATM    1  C9  UNL     1      24.624   2.335  51.168  1.00  0.00     0.058 A 
HETATM    2  C10 UNL     1      23.882   3.210  50.431  1.00  0.00     0.019 A 
HETATM    3  C11 UNL     1      24.450   4.121  49.574  1.00  0.00     0.001 A 
HETATM    4  C12 UNL     1      25.828   4.155  49.449  1.00  0.00     0.002 A 
HETATM    5  C13 UNL     1      26.558   3.264  50.203  1.00  0.00     0.030 A 
HETATM    6  C14 UNL     1      25.993   2.358  51.056  1.00  0.00     0.044 A 
ENDROOT
BRANCH   1   7
HETATM    7  C1  UNL     1      23.987   1.393  52.062  1.00  0.00     0.257 C 
HETATM    8  O1  UNL     1      24.200   0.797  53.119  1.00  0.00    -0.267 OA
HETATM    9  N1  UNL     1      22.690   0.910  51.741  1.00  0.00    -0.333 N 
HETATM   10  H1  UNL     1      22.080   1.146  50.899  1.00  0.00     0.168 HD
BRANCH   9  11
HETATM   11  C2  UNL     1      22.140  -0.014  52.676  1.00  0.00     0.092 C 
HETATM   12  C3  UNL     1      20.822  -0.044  52.805  1.00  0.00     0.025 C 
BRANCH  12  13
HETATM   13  C4  UNL     1      19.948   0.828  52.027  1.00  0.00     0.052 C 
BRANCH  13  14
HETATM   14  C5  UNL     1      18.792   0.309  51.636  1.00  0.00    -0.150 C 
BRANCH  14  15
HETATM   15  C6  UNL     1      17.771  -0.448  51.258  1.00  0.00     0.074 C 
BRANCH  15  16
HETATM   16  C7  UNL     1      16.735  -0.736  52.278  1.00  0.00     0.049 C 
BRANCH  16  17
HETATM   17  C8  UNL     1      17.490  -1.412  53.431  1.00  0.00     0.223 C 
HETATM   18  F1  UNL     1      17.912  -2.676  53.051  1.00  0.00    -0.255 F 
ENDBRANCH  16  17
ENDBRANCH  15  16
ENDBRANCH  14  15
ENDBRANCH  13  14
ENDBRANCH  12  13
ENDBRANCH   9  11
ENDBRANCH   1   7
BRANCH   6  19
HETATM   19  N2  UNL     1      26.903   1.533  51.714  1.00  0.00    -0.385 N 
HETATM   20  H14 UNL     1      27.169   0.724  51.112  1.00  0.00     0.160 HD
BRANCH  19  21
HETATM   21  C15 UNL     1      27.608   1.419  52.965  1.00  0.00     0.158 C 
BRANCH  21  22
HETATM   22  C16 UNL     1      28.112   0.023  53.102  1.00  0.00    -0.038 A 
HETATM   23  C17 UNL     1      27.163  -0.911  52.712  1.00  0.00     0.028 A 
HETATM   24  C18 UNL     1      27.358  -2.273  52.718  1.00  0.00     0.116 A 
HETATM   25  N3  UNL     1      28.553  -2.771  53.130  1.00  0.00    -0.273 NA
HETATM   26  C19 UNL     1      29.501  -1.870  53.517  1.00  0.00     0.116 A 
HETATM   27  C20 UNL     1      29.312  -0.517  53.512  1.00  0.00     0.028 A 
ENDBRANCH  21  22
ENDBRANCH  19  21
ENDBRANCH   6  19
TORSDOF 10
ENDMDL
MODEL 6
REMARK VINA RESULT:      -6.9      3.291      6.919
REMARK  10 active torsions:
REMARK  status: ('A' for Active; 'I' for Inactive)
REMARK       I    between atoms: C1_2  and  N1_3 
REMARK    1  A    between atoms: C1_2  and  C9_12 
REMARK    2  A    between atoms: N1_3  and  C2_4 
REMARK    3  A    between atoms: C3_5  and  C4_6 
REMARK    4  A    between atoms: C4_6  and  C5_7 
REMARK    5  A    between atoms: C5_7  and  C6_8 
REMARK    6  A    between atoms: C6_8  and  C7_9 
REMARK    7  A    between atoms: C7_9  and  C8_10 
REMARK    8  A    between atoms: C14_17  and  N2_18 
REMARK    9  A    between atoms: N2_18  and  C15_19 
REMARK   10  A    between atoms: C15_19  and  C16_20 
ROOT
HETATM    1  C9  UNL     1      25.905   4.577  49.274  1.00  0.00     0.058 A 
HETATM    2  C10 UNL     1      27.207   4.289  48.984  1.00  0.00     0.019 A 
HETATM    3  C11 UNL     1      28.076   5.225  48.480  1.00  0.00     0.001 A 
HETATM    4  C12 UNL     1      27.620   6.513  48.258  1.00  0.00     0.002 A 
HETATM    5  C13 UNL     1      26.303   6.783  48.557  1.00  0.00     0.030 A 
HETATM    6  C14 UNL     1      25.438   5.851  49.058  1.00  0.00     0.044 A 
ENDROOT
BRANCH   1   7
HETATM    7  C1  UNL     1      25.020   3.562  49.801  1.00  0.00     0.257 C 
HETATM    8  O1  UNL     1      23.956   3.001  49.535  1.00  0.00    -0.267 OA
HETATM    9  N1  UNL     1      25.365   2.915  51.018  1.00  0.00    -0.333 N 
HETATM   10  H1  UNL     1      26.219   3.068  51.637  1.00  0.00     0.168 HD
BRANCH   9  11
HETATM   11  C2  UNL     1      24.436   1.929  51.463  1.00  0.00     0.092 C 
HETATM   12  C3  UNL     1      24.508   1.546  52.729  1.00  0.00     0.025 C 
BRANCH  12  13
HETATM   13  C4  UNL     1      25.494   2.101  53.651  1.00  0.00     0.052 C 
BRANCH  13  14
HETATM   14  C5  UNL     1      26.294   1.232  54.253  1.00  0.00    -0.150 C 
BRANCH  14  15
HETATM   15  C6  UNL     1      27.182   0.311  54.600  1.00  0.00     0.074 C 
BRANCH  15  16
HETATM   16  C7  UNL     1      27.998  -0.280  53.513  1.00  0.00     0.049 C 
BRANCH  16  17
HETATM   17  C8  UNL     1      27.033  -1.193  52.744  1.00  0.00     0.223 C 
HETATM   18  F1  UNL     1      26.719  -0.633  51.517  1.00  0.00    -0.255 F 
ENDBRANCH  16  17
ENDBRANCH  15  16
ENDBRANCH  14  15
ENDBRANCH  13  14
ENDBRANCH  12  13
ENDBRANCH   9  11
ENDBRANCH   1   7
BRANCH   6  19
HETATM   19  N2  UNL     1      24.154   6.328  49.311  1.00  0.00    -0.385 N 
HETATM   20  H14 UNL     1      23.568   6.283  48.450  1.00  0.00     0.160 HD
BRANCH  19  21
HETATM   21  C15 UNL     1      23.351   6.871  50.378  1.00  0.00     0.158 C 
BRANCH  21  22
HETATM   22  C16 UNL     1      22.245   5.917  50.674  1.00  0.00    -0.038 A 
HETATM   23  C17 UNL     1      22.497   5.170  51.815  1.00  0.00     0.028 A 
HETATM   24  C18 UNL     1      21.642   4.223  52.333  1.00  0.00     0.116 A 
HETATM   25  N3  UNL     1      20.462   3.980  51.707  1.00  0.00    -0.273 NA
HETATM   26  C19 UNL     1      20.193   4.705  50.583  1.00  0.00     0.116 A 
HETATM   27  C20 UNL     1      21.039   5.645  50.065  1.00  0.00     0.028 A 
ENDBRANCH  21  22
ENDBRANCH  19  21
ENDBRANCH   6  19
TORSDOF 10
ENDMDL
MODEL 7
REMARK VINA RESULT:      -6.9      2.027      2.707
REMARK  10 active torsions:
REMARK  status: ('A' for Active; 'I' for Inactive)
REMARK       I    between atoms: C1_2  and  N1_3 
REMARK    1  A    between atoms: C1_2  and  C9_12 
REMARK    2  A    between atoms: N1_3  and  C2_4 
REMARK    3  A    between atoms: C3_5  and  C4_6 
REMARK    4  A    between atoms: C4_6  and  C5_7 
REMARK    5  A    between atoms: C5_7  and  C6_8 
REMARK    6  A    between atoms: C6_8  and  C7_9 
REMARK    7  A    between atoms: C7_9  and  C8_10 
REMARK    8  A    between atoms: C14_17  and  N2_18 
REMARK    9  A    between atoms: N2_18  and  C15_19 
REMARK   10  A    between atoms: C15_19  and  C16_20 
ROOT
HETATM    1  C9  UNL     1      25.588   1.689  51.868  1.00  0.00     0.058 A 
HETATM    2  C10 UNL     1      26.901   1.378  52.065  1.00  0.00     0.019 A 
HETATM    3  C11 UNL     1      27.301   0.276  52.781  1.00  0.00     0.001 A 
HETATM    4  C12 UNL     1      26.337  -0.555  53.325  1.00  0.00     0.002 A 
HETATM    5  C13 UNL     1      25.017  -0.223  53.115  1.00  0.00     0.030 A 
HETATM    6  C14 UNL     1      24.619   0.873  52.403  1.00  0.00     0.044 A 
ENDROOT
BRANCH   1   7
HETATM    7  C1  UNL     1      25.208   2.860  51.110  1.00  0.00     0.257 C 
HETATM    8  O1  UNL     1      24.204   3.407  50.649  1.00  0.00    -0.267 OA
HETATM    9  N1  UNL     1      26.220   3.765  50.691  1.00  0.00    -0.333 N 
HETATM   10  H1  UNL     1      27.272   3.713  50.857  1.00  0.00     0.168 HD
BRANCH   9  11
HETATM   11  C2  UNL     1      25.756   4.891  49.949  1.00  0.00     0.092 C 
HETATM   12  C3  UNL     1      26.508   5.316  48.945  1.00  0.00     0.025 C 
BRANCH  12  13
HETATM   13  C4  UNL     1      27.769   4.670  48.595  1.00  0.00     0.052 C 
BRANCH  13  14
HETATM   14  C5  UNL     1      28.805   5.471  48.386  1.00  0.00    -0.150 C 
BRANCH  14  15
HETATM   15  C6  UNL     1      29.669   6.402  48.007  1.00  0.00     0.074 C 
BRANCH  15  16
HETATM   16  C7  UNL     1      31.108   6.062  48.107  1.00  0.00     0.049 C 
BRANCH  16  17
HETATM   17  C8  UNL     1      31.638   6.915  49.268  1.00  0.00     0.223 C 
HETATM   18  F1  UNL     1      31.775   6.141  50.408  1.00  0.00    -0.255 F 
ENDBRANCH  16  17
ENDBRANCH  15  16
ENDBRANCH  14  15
ENDBRANCH  13  14
ENDBRANCH  12  13
ENDBRANCH   9  11
ENDBRANCH   1   7
BRANCH   6  19
HETATM   19  N2  UNL     1      23.239   1.024  52.290  1.00  0.00    -0.385 N 
HETATM   20  H14 UNL     1      22.830   1.354  53.190  1.00  0.00     0.160 HD
BRANCH  19  21
HETATM   21  C15 UNL     1      22.172   0.873  51.334  1.00  0.00     0.158 C 
BRANCH  21  22
HETATM   22  C16 UNL     1      20.998   0.265  52.024  1.00  0.00    -0.038 A 
HETATM   23  C17 UNL     1      19.839   0.376  51.269  1.00  0.00     0.028 A 
HETATM   24  C18 UNL     1      18.609  -0.109  51.652  1.00  0.00     0.116 A 
HETATM   25  N3  UNL     1      18.488  -0.746  52.845  1.00  0.00    -0.273 NA
HETATM   26  C19 UNL     1      19.615  -0.866  53.603  1.00  0.00     0.116 A 
HETATM   27  C20 UNL     1      20.838  -0.387  53.227  1.00  0.00     0.028 A 
ENDBRANCH  21  22
ENDBRANCH  19  21
ENDBRANCH   6  19
TORSDOF 10
ENDMDL
MODEL 8
REMARK VINA RESULT:      -6.8      4.115      6.909
REMARK  10 active torsions:
REMARK  status: ('A' for Active; 'I' for Inactive)
REMARK       I    between atoms: C1_2  and  N1_3 
REMARK    1  A    between atoms: C1_2  and  C9_12 
REMARK    2  A    between atoms: N1_3  and  C2_4 
REMARK    3  A    between atoms: C3_5  and  C4_6 
REMARK    4  A    between atoms: C4_6  and  C5_7 
REMARK    5  A    between atoms: C5_7  and  C6_8 
REMARK    6  A    between atoms: C6_8  and  C7_9 
REMARK    7  A    between atoms: C7_9  and  C8_10 
REMARK    8  A    between atoms: C14_17  and  N2_18 
REMARK    9  A    between atoms: N2_18  and  C15_19 
REMARK   10  A    between atoms: C15_19  and  C16_20 
ROOT
HETATM    1  C9  UNL     1      22.812   0.569  52.988  1.00  0.00     0.058 A 
HETATM    2  C10 UNL     1      21.468   0.606  53.215  1.00  0.00     0.019 A 
HETATM    3  C11 UNL     1      20.852  -0.195  54.146  1.00  0.00     0.001 A 
HETATM    4  C12 UNL     1      21.623  -1.075  54.886  1.00  0.00     0.002 A 
HETATM    5  C13 UNL     1      22.977  -1.097  54.641  1.00  0.00     0.030 A 
HETATM    6  C14 UNL     1      23.589  -0.300  53.715  1.00  0.00     0.044 A 
ENDROOT
BRANCH   1   7
HETATM    7  C1  UNL     1      23.422   1.428  51.996  1.00  0.00     0.257 C 
HETATM    8  O1  UNL     1      24.456   2.068  51.805  1.00  0.00    -0.267 OA
HETATM    9  N1  UNL     1      22.706   1.713  50.802  1.00  0.00    -0.333 N 
HETATM   10  H1  UNL     1      21.739   1.375  50.506  1.00  0.00     0.168 HD
BRANCH   9  11
HETATM   11  C2  UNL     1      23.382   2.567  49.882  1.00  0.00     0.092 C 
HETATM   12  C3  UNL     1      22.966   2.564  48.624  1.00  0.00     0.025 C 
BRANCH  12  13
HETATM   13  C4  UNL     1      21.859   1.725  48.177  1.00  0.00     0.052 C 
BRANCH  13  14
HETATM   14  C5  UNL     1      20.638   2.176  48.428  1.00  0.00    -0.150 C 
BRANCH  14  15
HETATM   15  C6  UNL     1      19.470   2.545  48.935  1.00  0.00     0.074 C 
BRANCH  15  16
HETATM   16  C7  UNL     1      19.164   2.096  50.314  1.00  0.00     0.049 C 
BRANCH  16  17
HETATM   17  C8  UNL     1      18.652   0.658  50.159  1.00  0.00     0.223 C 
HETATM   18  F1  UNL     1      18.802  -0.035  51.349  1.00  0.00    -0.255 F 
ENDBRANCH  16  17
ENDBRANCH  15  16
ENDBRANCH  14  15
ENDBRANCH  13  14
ENDBRANCH  12  13
ENDBRANCH   9  11
ENDBRANCH   1   7
BRANCH   6  19
HETATM   19  N2  UNL     1      24.971  -0.462  53.631  1.00  0.00    -0.385 N 
HETATM   20  H14 UNL     1      25.449   0.058  54.398  1.00  0.00     0.160 HD
BRANCH  19  21
HETATM   21  C15 UNL     1      25.974  -1.114  52.829  1.00  0.00     0.158 C 
BRANCH  21  22
HETATM   22  C16 UNL     1      27.294  -0.483  53.114  1.00  0.00    -0.038 A 
HETATM   23  C17 UNL     1      28.323  -1.414  53.123  1.00  0.00     0.028 A 
HETATM   24  C18 UNL     1      29.647  -1.113  53.344  1.00  0.00     0.116 A 
HETATM   25  N3  UNL     1      30.006   0.177  53.573  1.00  0.00    -0.273 NA
HETATM   26  C19 UNL     1      29.011   1.109  53.568  1.00  0.00     0.116 A 
HETATM   27  C20 UNL     1      27.695   0.815  53.349  1.00  0.00     0.028 A 
ENDBRANCH  21  22
ENDBRANCH  19  21
ENDBRANCH   6  19
TORSDOF 10
ENDMDL
MODEL 9
REMARK VINA RESULT:      -6.8      1.718      2.302
REMARK  10 active torsions:
REMARK  status: ('A' for Active; 'I' for Inactive)
REMARK       I    between atoms: C1_2  and  N1_3 
REMARK    1  A    between atoms: C1_2  and  C9_12 
REMARK    2  A    between atoms: N1_3  and  C2_4 
REMARK    3  A    between atoms: C3_5  and  C4_6 
REMARK    4  A    between atoms: C4_6  and  C5_7 
REMARK    5  A    between atoms: C5_7  and  C6_8 
REMARK    6  A    between atoms: C6_8  and  C7_9 
REMARK    7  A    between atoms: C7_9  and  C8_10 
REMARK    8  A    between atoms: C14_17  and  N2_18 
REMARK    9  A    between atoms: N2_18  and  C15_19 
REMARK   10  A    between atoms: C15_19  and  C16_20 
ROOT
HETATM    1  C9  UNL     1      26.365   1.752  52.767  1.00  0.00     0.058 A 
HETATM    2  C10 UNL     1      27.513   2.486  52.801  1.00  0.00     0.019 A 
HETATM    3  C11 UNL     1      28.599   2.126  53.561  1.00  0.00     0.001 A 
HETATM    4  C12 UNL     1      28.530   0.973  54.323  1.00  0.00     0.002 A 
HETATM    5  C13 UNL     1      27.362   0.246  54.276  1.00  0.00     0.030 A 
HETATM    6  C14 UNL     1      26.282   0.604  53.519  1.00  0.00     0.044 A 
ENDROOT
BRANCH   1   7
HETATM    7  C1  UNL     1      25.241   2.166  51.955  1.00  0.00     0.257 C 
HETATM    8  O1  UNL     1      24.461   1.714  51.117  1.00  0.00    -0.267 OA
HETATM    9  N1  UNL     1      24.781   3.507  52.054  1.00  0.00    -0.333 N 
HETATM   10  H1  UNL     1      25.153   4.297  52.665  1.00  0.00     0.168 HD
BRANCH   9  11
HETATM   11  C2  UNL     1      23.671   3.827  51.218  1.00  0.00     0.092 C 
HETATM   12  C3  UNL     1      23.487   5.102  50.906  1.00  0.00     0.025 C 
BRANCH  12  13
HETATM   13  C4  UNL     1      24.375   6.153  51.391  1.00  0.00     0.052 C 
BRANCH  13  14
HETATM   14  C5  UNL     1      25.223   6.663  50.508  1.00  0.00    -0.150 C 
BRANCH  14  15
HETATM   15  C6  UNL     1      26.145   6.912  49.588  1.00  0.00     0.074 C 
BRANCH  15  16
HETATM   16  C7  UNL     1      26.255   5.945  48.469  1.00  0.00     0.049 C 
BRANCH  16  17
HETATM   17  C8  UNL     1      27.045   4.761  49.043  1.00  0.00     0.223 C 
HETATM   18  F1  UNL     1      26.244   3.633  49.098  1.00  0.00    -0.255 F 
ENDBRANCH  16  17
ENDBRANCH  15  16
ENDBRANCH  14  15
ENDBRANCH  13  14
ENDBRANCH  12  13
ENDBRANCH   9  11
ENDBRANCH   1   7
BRANCH   6  19
HETATM   19  N2  UNL     1      25.203  -0.273  53.595  1.00  0.00    -0.385 N 
HETATM   20  H14 UNL     1      24.967  -0.649  52.652  1.00  0.00     0.160 HD
BRANCH  19  21
HETATM   21  C15 UNL     1      24.289  -0.844  54.552  1.00  0.00     0.158 C 
BRANCH  21  22
HETATM   22  C16 UNL     1      22.896  -0.532  54.124  1.00  0.00    -0.038 A 
HETATM   23  C17 UNL     1      22.007  -1.536  54.480  1.00  0.00     0.028 A 
HETATM   24  C18 UNL     1      20.655  -1.509  54.226  1.00  0.00     0.116 A 
HETATM   25  N3  UNL     1      20.121  -0.438  53.582  1.00  0.00    -0.273 NA
HETATM   26  C19 UNL     1      20.977   0.561  53.223  1.00  0.00     0.116 A 
HETATM   27  C20 UNL     1      22.320   0.538  53.474  1.00  0.00     0.028 A 
ENDBRANCH  21  22
ENDBRANCH  19  21
ENDBRANCH   6  19
TORSDOF 10
ENDMDL
