MODEL 1
REMARK VINA RESULT:      -5.9      0.000      0.000
REMARK  8 active torsions:
REMARK  status: ('A' for Active; 'I' for Inactive)
REMARK    1  A    between atoms: C2_3  and  C3_4 
REMARK    2  A    between atoms: C3_4  and  O1_5 
REMARK    3  A    between atoms: O1_5  and  C4_6 
REMARK    4  A    between atoms: C4_6  and  C5_7 
REMARK    5  A    between atoms: C5_7  and  N2_8 
REMARK    6  A    between atoms: C6_9  and  C7_10 
REMARK    7  A    between atoms: C7_10  and  C8_11 
REMARK    8  A    between atoms: C8_11  and  N3_12 
ROOT
HETATM    1  N2  UNL     1      25.019   4.400  50.989  1.00  0.00    -0.419 N 
HETATM    2  C6  UNL     1      26.022   3.731  50.355  1.00  0.00     0.115 C 
HETATM    3  H8  UNL     1      25.296   5.016  51.789  1.00  0.00     0.153 HD
ENDROOT
BRANCH   1   4
HETATM    4  C5  UNL     1      23.659   4.208  50.928  1.00  0.00     0.140 C 
BRANCH   4   5
HETATM    5  C4  UNL     1      23.048   4.015  52.295  1.00  0.00     0.187 C 
BRANCH   5   6
HETATM    6  O1  UNL     1      23.419   2.722  52.711  1.00  0.00    -0.384 OA
BRANCH   6   7
HETATM    7  C3  UNL     1      22.857   1.715  51.927  1.00  0.00     0.226 C 
BRANCH   7   8
HETATM    8  C2  UNL     1      22.407   0.646  52.830  1.00  0.00     0.053 A 
HETATM    9  N1  UNL     1      21.002   0.399  52.752  1.00  0.00    -0.268 NA
HETATM   10  C1  UNL     1      20.471  -0.521  53.469  1.00  0.00     0.090 A 
HETATM   11  C15 UNL     1      21.048  -1.470  54.447  1.00  0.00     0.051 A 
HETATM   12  C14 UNL     1      22.517  -1.262  54.568  1.00  0.00     0.034 A 
HETATM   13  C13 UNL     1      22.969  -0.173  53.686  1.00  0.00     0.003 A 
ENDBRANCH   7   8
ENDBRANCH   6   7
ENDBRANCH   5   6
ENDBRANCH   4   5
ENDBRANCH   1   4
BRANCH   2  14
HETATM   14  C7  UNL     1      26.399   2.331  50.604  1.00  0.00     0.049 C 
BRANCH  14  15
HETATM   15  C8  UNL     1      27.044   2.185  52.006  1.00  0.00     0.274 C 
BRANCH  15  16
HETATM   16  N3  UNL     1      26.474   1.050  52.694  1.00  0.00     0.092 N 
HETATM   17  C9  UNL     1      26.358   1.430  54.111  1.00  0.00     0.298 C 
HETATM   18  C10 UNL     1      26.424   0.193  54.983  1.00  0.00     0.198 C 
HETATM   19  O2  UNL     1      27.710  -0.349  54.993  1.00  0.00    -0.388 OA
HETATM   20  C11 UNL     1      28.393  -0.013  53.819  1.00  0.00     0.198 C 
HETATM   21  C12 UNL     1      27.377  -0.090  52.709  1.00  0.00     0.298 C 
ENDBRANCH  15  16
ENDBRANCH  14  15
ENDBRANCH   2  14
TORSDOF 8
ENDMDL
MODEL 2
REMARK VINA RESULT:      -5.7      1.894      5.358
REMARK  8 active torsions:
REMARK  status: ('A' for Active; 'I' for Inactive)
REMARK    1  A    between atoms: C2_3  and  C3_4 
REMARK    2  A    between atoms: C3_4  and  O1_5 
REMARK    3  A    between atoms: O1_5  and  C4_6 
REMARK    4  A    between atoms: C4_6  and  C5_7 
REMARK    5  A    between atoms: C5_7  and  N2_8 
REMARK    6  A    between atoms: C6_9  and  C7_10 
REMARK    7  A    between atoms: C7_10  and  C8_11 
REMARK    8  A    between atoms: C8_11  and  N3_12 
ROOT
HETATM    1  N2  UNL     1      22.290   3.154  50.940  1.00  0.00    -0.419 N 
HETATM    2  C6  UNL     1      21.320   2.557  51.686  1.00  0.00     0.115 C 
HETATM    3  H8  UNL     1      21.971   3.795  50.176  1.00  0.00     0.153 HD
ENDROOT
BRANCH   1   4
HETATM    4  C5  UNL     1      23.630   2.862  50.845  1.00  0.00     0.140 C 
BRANCH   4   5
HETATM    5  C4  UNL     1      24.372   3.161  52.125  1.00  0.00     0.187 C 
BRANCH   5   6
HETATM    6  O1  UNL     1      25.189   2.041  52.376  1.00  0.00    -0.384 OA
BRANCH   6   7
HETATM    7  C3  UNL     1      25.794   2.079  53.632  1.00  0.00     0.226 C 
BRANCH   7   8
HETATM    8  C2  UNL     1      26.912   1.124  53.617  1.00  0.00     0.053 A 
HETATM    9  N1  UNL     1      28.059   1.590  54.331  1.00  0.00    -0.268 NA
HETATM   10  C1  UNL     1      29.104   0.854  54.420  1.00  0.00     0.090 A 
HETATM   11  C15 UNL     1      29.409  -0.496  53.896  1.00  0.00     0.051 A 
HETATM   12  C14 UNL     1      28.245  -1.037  53.142  1.00  0.00     0.034 A 
HETATM   13  C13 UNL     1      27.132  -0.073  53.132  1.00  0.00     0.003 A 
ENDBRANCH   7   8
ENDBRANCH   6   7
ENDBRANCH   5   6
ENDBRANCH   4   5
ENDBRANCH   1   4
BRANCH   2  14
HETATM   14  C7  UNL     1      20.813   1.191  51.483  1.00  0.00     0.049 C 
BRANCH  14  15
HETATM   15  C8  UNL     1      21.879   0.149  51.910  1.00  0.00     0.274 C 
BRANCH  15  16
HETATM   16  N3  UNL     1      22.167   0.289  53.318  1.00  0.00     0.092 N 
HETATM   17  C9  UNL     1      23.234  -0.676  53.628  1.00  0.00     0.298 C 
HETATM   18  C10 UNL     1      23.147  -1.089  55.083  1.00  0.00     0.198 C 
HETATM   19  O2  UNL     1      22.032  -1.895  55.313  1.00  0.00    -0.388 OA
HETATM   20  C11 UNL     1      21.033  -1.630  54.371  1.00  0.00     0.198 C 
HETATM   21  C12 UNL     1      21.053  -0.139  54.149  1.00  0.00     0.298 C 
ENDBRANCH  15  16
ENDBRANCH  14  15
ENDBRANCH   2  14
TORSDOF 8
ENDMDL
MODEL 3
REMARK VINA RESULT:      -5.7      1.579      2.014
REMARK  8 active torsions:
REMARK  status: ('A' for Active; 'I' for Inactive)
REMARK    1  A    between atoms: C2_3  and  C3_4 
REMARK    2  A    between atoms: C3_4  and  O1_5 
REMARK    3  A    between atoms: O1_5  and  C4_6 
REMARK    4  A    between atoms: C4_6  and  C5_7 
REMARK    5  A    between atoms: C5_7  and  N2_8 
REMARK    6  A    between atoms: C6_9  and  C7_10 
REMARK    7  A    between atoms: C7_10  and  C8_11 
REMARK    8  A    between atoms: C8_11  and  N3_12 
ROOT
HETATM    1  N2  UNL     1      22.892   3.518  52.245  1.00  0.00    -0.419 N 
HETATM    2  C6  UNL     1      24.226   3.277  52.120  1.00  0.00     0.115 C 
HETATM    3  H8  UNL     1      22.471   3.362  53.191  1.00  0.00     0.153 HD
ENDROOT
BRANCH   1   4
HETATM    4  C5  UNL     1      21.934   3.685  51.273  1.00  0.00     0.140 C 
BRANCH   4   5
HETATM    5  C4  UNL     1      20.567   3.945  51.858  1.00  0.00     0.187 C 
BRANCH   5   6
HETATM    6  O1  UNL     1      20.359   2.946  52.829  1.00  0.00    -0.384 OA
BRANCH   6   7
HETATM    7  C3  UNL     1      19.810   1.778  52.300  1.00  0.00     0.226 C 
BRANCH   7   8
HETATM    8  C2  UNL     1      20.418   0.641  53.006  1.00  0.00     0.053 A 
HETATM    9  N1  UNL     1      21.801   0.840  53.305  1.00  0.00    -0.268 NA
HETATM   10  C1  UNL     1      22.458  -0.060  53.938  1.00  0.00     0.090 A 
HETATM   11  C15 UNL     1      22.060  -1.380  54.475  1.00  0.00     0.051 A 
HETATM   12  C14 UNL     1      20.622  -1.643  54.196  1.00  0.00     0.034 A 
HETATM   13  C13 UNL     1      20.014  -0.519  53.464  1.00  0.00     0.003 A 
ENDBRANCH   7   8
ENDBRANCH   6   7
ENDBRANCH   5   6
ENDBRANCH   4   5
ENDBRANCH   1   4
BRANCH   2  14
HETATM   14  C7  UNL     1      24.819   2.040  51.590  1.00  0.00     0.049 C 
BRANCH  14  15
HETATM   15  C8  UNL     1      26.295   1.907  52.046  1.00  0.00     0.274 C 
BRANCH  15  16
HETATM   16  N3  UNL     1      26.353   1.284  53.348  1.00  0.00     0.092 N 
HETATM   17  C9  UNL     1      27.756   1.358  53.788  1.00  0.00     0.298 C 
HETATM   18  C10 UNL     1      28.056   0.219  54.740  1.00  0.00     0.198 C 
HETATM   19  O2  UNL     1      28.088  -1.004  54.069  1.00  0.00    -0.388 OA
HETATM   20  C11 UNL     1      27.296  -0.952  52.918  1.00  0.00     0.198 C 
HETATM   21  C12 UNL     1      26.079  -0.142  53.284  1.00  0.00     0.298 C 
ENDBRANCH  15  16
ENDBRANCH  14  15
ENDBRANCH   2  14
TORSDOF 8
ENDMDL
MODEL 4
REMARK VINA RESULT:      -5.7      2.671      5.646
REMARK  8 active torsions:
REMARK  status: ('A' for Active; 'I' for Inactive)
REMARK    1  A    between atoms: C2_3  and  C3_4 
REMARK    2  A    between atoms: C3_4  and  O1_5 
REMARK    3  A    between atoms: O1_5  and  C4_6 
REMARK    4  A    between atoms: C4_6  and  C5_7 
REMARK    5  A    between atoms: C5_7  and  N2_8 
REMARK    6  A    between atoms: C6_9  and  C7_10 
REMARK    7  A    between atoms: C7_10  and  C8_11 
REMARK    8  A    between atoms: C8_11  and  N3_12 
ROOT
HETATM    1  N2  UNL     1      24.490   3.896  52.351  1.00  0.00    -0.419 N 
HETATM    2  C6  UNL     1      24.874   2.628  52.038  1.00  0.00     0.115 C 
HETATM    3  H8  UNL     1      25.225   4.528  52.743  1.00  0.00     0.153 HD
ENDROOT
BRANCH   1   4
HETATM    4  C5  UNL     1      23.227   4.423  52.484  1.00  0.00     0.140 C 
BRANCH   4   5
HETATM    5  C4  UNL     1      22.977   5.557  51.519  1.00  0.00     0.187 C 
BRANCH   5   6
HETATM    6  O1  UNL     1      24.235   6.136  51.259  1.00  0.00    -0.384 OA
BRANCH   6   7
HETATM    7  C3  UNL     1      24.336   6.665  49.973  1.00  0.00     0.226 C 
BRANCH   7   8
HETATM    8  C2  UNL     1      25.651   6.285  49.437  1.00  0.00     0.053 A 
HETATM    9  N1  UNL     1      25.927   4.889  49.563  1.00  0.00    -0.268 NA
HETATM   10  C1  UNL     1      27.030   4.409  49.120  1.00  0.00     0.090 A 
HETATM   11  C15 UNL     1      28.184   5.044  48.445  1.00  0.00     0.051 A 
HETATM   12  C14 UNL     1      27.951   6.505  48.282  1.00  0.00     0.034 A 
HETATM   13  C13 UNL     1      26.646   6.896  48.842  1.00  0.00     0.003 A 
ENDBRANCH   7   8
ENDBRANCH   6   7
ENDBRANCH   5   6
ENDBRANCH   4   5
ENDBRANCH   1   4
BRANCH   2  14
HETATM   14  C7  UNL     1      24.676   1.446  52.892  1.00  0.00     0.049 C 
BRANCH  14  15
HETATM   15  C8  UNL     1      25.894   1.243  53.828  1.00  0.00     0.274 C 
BRANCH  15  16
HETATM   16  N3  UNL     1      27.025   0.763  53.067  1.00  0.00     0.092 N 
HETATM   17  C9  UNL     1      27.172  -0.666  53.389  1.00  0.00     0.298 C 
HETATM   18  C10 UNL     1      28.618  -1.085  53.216  1.00  0.00     0.198 C 
HETATM   19  O2  UNL     1      29.424  -0.538  54.215  1.00  0.00    -0.388 OA
HETATM   20  C11 UNL     1      28.862   0.643  54.707  1.00  0.00     0.198 C 
HETATM   21  C12 UNL     1      28.275   1.354  53.515  1.00  0.00     0.298 C 
ENDBRANCH  15  16
ENDBRANCH  14  15
ENDBRANCH   2  14
TORSDOF 8
ENDMDL
MODEL 5
REMARK VINA RESULT:      -5.6      4.930      7.132
REMARK  8 active torsions:
REMARK  status: ('A' for Active; 'I' for Inactive)
REMARK    1  A    between atoms: C2_3  and  C3_4 
REMARK    2  A    between atoms: C3_4  and  O1_5 
REMARK    3  A    between atoms: O1_5  and  C4_6 
REMARK    4  A    between atoms: C4_6  and  C5_7 
REMARK    5  A    between atoms: C5_7  and  N2_8 
REMARK    6  A    between atoms: C6_9  and  C7_10 
REMARK    7  A    between atoms: C7_10  and  C8_11 
REMARK    8  A    between atoms: C8_11  and  N3_12 
ROOT
HETATM    1  N2  UNL     1      27.382   5.969  49.118  1.00  0.00    -0.419 N 
HETATM    2  C6  UNL     1      27.546   7.014  48.261  1.00  0.00     0.115 C 
HETATM    3  H8  UNL     1      27.549   6.161  50.133  1.00  0.00     0.153 HD
ENDROOT
BRANCH   1   4
HETATM    4  C5  UNL     1      27.283   4.623  48.855  1.00  0.00     0.140 C 
BRANCH   4   5
HETATM    5  C4  UNL     1      26.296   3.934  49.765  1.00  0.00     0.187 C 
BRANCH   5   6
HETATM    6  O1  UNL     1      27.062   3.171  50.668  1.00  0.00    -0.384 OA
BRANCH   6   7
HETATM    7  C3  UNL     1      26.363   2.084  51.192  1.00  0.00     0.226 C 
BRANCH   7   8
HETATM    8  C2  UNL     1      27.180   1.505  52.268  1.00  0.00     0.053 A 
HETATM    9  N1  UNL     1      28.135   2.424  52.804  1.00  0.00    -0.268 NA
HETATM   10  C1  UNL     1      28.904   2.065  53.764  1.00  0.00     0.090 A 
HETATM   11  C15 UNL     1      29.030   0.790  54.506  1.00  0.00     0.051 A 
HETATM   12  C14 UNL     1      28.054  -0.209  53.992  1.00  0.00     0.034 A 
HETATM   13  C13 UNL     1      27.251   0.356  52.894  1.00  0.00     0.003 A 
ENDBRANCH   7   8
ENDBRANCH   6   7
ENDBRANCH   5   6
ENDBRANCH   4   5
ENDBRANCH   1   4
BRANCH   2  14
HETATM   14  C7  UNL     1      28.753   7.275  47.462  1.00  0.00     0.049 C 
BRANCH  14  15
HETATM   15  C8  UNL     1      29.938   7.663  48.382  1.00  0.00     0.274 C 
BRANCH  15  16
HETATM   16  N3  UNL     1      30.681   6.481  48.753  1.00  0.00     0.092 N 
HETATM   17  C9  UNL     1      31.985   6.944  49.257  1.00  0.00     0.298 C 
HETATM   18  C10 UNL     1      33.030   5.869  49.040  1.00  0.00     0.198 C 
HETATM   19  O2  UNL     1      33.340   5.732  47.686  1.00  0.00    -0.388 OA
HETATM   20  C11 UNL     1      32.263   6.141  46.893  1.00  0.00     0.198 C 
HETATM   21  C12 UNL     1      31.021   5.664  47.599  1.00  0.00     0.298 C 
ENDBRANCH  15  16
ENDBRANCH  14  15
ENDBRANCH   2  14
TORSDOF 8
ENDMDL
MODEL 6
REMARK VINA RESULT:      -5.6      4.307      7.549
REMARK  8 active torsions:
REMARK  status: ('A' for Active; 'I' for Inactive)
REMARK    1  A    between atoms: C2_3  and  C3_4 
REMARK    2  A    between atoms: C3_4  and  O1_5 
REMARK    3  A    between atoms: O1_5  and  C4_6 
REMARK    4  A    between atoms: C4_6  and  C5_7 
REMARK    5  A    between atoms: C5_7  and  N2_8 
REMARK    6  A    between atoms: C6_9  and  C7_10 
REMARK    7  A    between atoms: C7_10  and  C8_11 
REMARK    8  A    between atoms: C8_11  and  N3_12 
ROOT
HETATM    1  N2  UNL     1      26.492   4.789  49.933  1.00  0.00    -0.419 N 
HETATM    2  C6  UNL     1      26.684   5.706  48.945  1.00  0.00     0.115 C 
HETATM    3  H8  UNL     1      26.462   5.152  50.914  1.00  0.00     0.153 HD
ENDROOT
BRANCH   1   4
HETATM    4  C5  UNL     1      26.590   3.418  49.891  1.00  0.00     0.140 C 
BRANCH   4   5
HETATM    5  C4  UNL     1      26.281   2.782  51.224  1.00  0.00     0.187 C 
BRANCH   5   6
HETATM    6  O1  UNL     1      27.525   2.523  51.833  1.00  0.00    -0.384 OA
BRANCH   6   7
HETATM    7  C3  UNL     1      27.405   2.087  53.152  1.00  0.00     0.226 C 
BRANCH   7   8
HETATM    8  C2  UNL     1      28.123   0.809  53.266  1.00  0.00     0.053 A 
HETATM    9  N1  UNL     1      27.308  -0.322  52.954  1.00  0.00    -0.268 NA
HETATM   10  C1  UNL     1      27.806  -1.503  52.991  1.00  0.00     0.090 A 
HETATM   11  C15 UNL     1      29.164  -1.993  53.314  1.00  0.00     0.051 A 
HETATM   12  C14 UNL     1      30.063  -0.853  53.645  1.00  0.00     0.034 A 
HETATM   13  C13 UNL     1      29.342   0.428  53.560  1.00  0.00     0.003 A 
ENDBRANCH   7   8
ENDBRANCH   6   7
ENDBRANCH   5   6
ENDBRANCH   4   5
ENDBRANCH   1   4
BRANCH   2  14
HETATM   14  C7  UNL     1      27.974   6.007  48.305  1.00  0.00     0.049 C 
BRANCH  14  15
HETATM   15  C8  UNL     1      28.108   7.529  48.046  1.00  0.00     0.274 C 
BRANCH  15  16
HETATM   16  N3  UNL     1      27.126   8.249  48.824  1.00  0.00     0.092 N 
HETATM   17  C9  UNL     1      26.413   9.133  47.887  1.00  0.00     0.298 C 
HETATM   18  C10 UNL     1      25.883  10.344  48.627  1.00  0.00     0.198 C 
HETATM   19  O2  UNL     1      26.921  11.197  49.005  1.00  0.00    -0.388 OA
HETATM   20  C11 UNL     1      28.115  10.484  49.146  1.00  0.00     0.198 C 
HETATM   21  C12 UNL     1      27.743   9.165  49.770  1.00  0.00     0.298 C 
ENDBRANCH  15  16
ENDBRANCH  14  15
ENDBRANCH   2  14
TORSDOF 8
ENDMDL
MODEL 7
REMARK VINA RESULT:      -5.6      1.620      1.937
REMARK  8 active torsions:
REMARK  status: ('A' for Active; 'I' for Inactive)
REMARK    1  A    between atoms: C2_3  and  C3_4 
REMARK    2  A    between atoms: C3_4  and  O1_5 
REMARK    3  A    between atoms: O1_5  and  C4_6 
REMARK    4  A    between atoms: C4_6  and  C5_7 
REMARK    5  A    between atoms: C5_7  and  N2_8 
REMARK    6  A    between atoms: C6_9  and  C7_10 
REMARK    7  A    between atoms: C7_10  and  C8_11 
REMARK    8  A    between atoms: C8_11  and  N3_12 
ROOT
HETATM    1  N2  UNL     1      23.296   3.405  52.284  1.00  0.00    -0.419 N 
HETATM    2  C6  UNL     1      24.307   3.160  53.163  1.00  0.00     0.115 C 
HETATM    3  H8  UNL     1      22.321   3.256  52.635  1.00  0.00     0.153 HD
ENDROOT
BRANCH   1   4
HETATM    4  C5  UNL     1      23.338   3.567  50.920  1.00  0.00     0.140 C 
BRANCH   4   5
HETATM    5  C4  UNL     1      22.963   2.305  50.183  1.00  0.00     0.187 C 
BRANCH   5   6
HETATM    6  O1  UNL     1      21.641   2.004  50.566  1.00  0.00    -0.384 OA
BRANCH   6   7
HETATM    7  C3  UNL     1      21.357   0.639  50.516  1.00  0.00     0.226 C 
BRANCH   7   8
HETATM    8  C2  UNL     1      21.497   0.105  51.878  1.00  0.00     0.053 A 
HETATM    9  N1  UNL     1      20.273   0.117  52.615  1.00  0.00    -0.268 NA
HETATM   10  C1  UNL     1      20.238  -0.338  53.812  1.00  0.00     0.090 A 
HETATM   11  C15 UNL     1      21.285  -0.927  54.676  1.00  0.00     0.051 A 
HETATM   12  C14 UNL     1      22.589  -0.969  53.958  1.00  0.00     0.034 A 
HETATM   13  C13 UNL     1      22.460  -0.410  52.602  1.00  0.00     0.003 A 
ENDBRANCH   7   8
ENDBRANCH   6   7
ENDBRANCH   5   6
ENDBRANCH   4   5
ENDBRANCH   1   4
BRANCH   2  14
HETATM   14  C7  UNL     1      25.092   1.918  53.229  1.00  0.00     0.049 C 
BRANCH  14  15
HETATM   15  C8  UNL     1      26.556   2.223  53.637  1.00  0.00     0.274 C 
BRANCH  15  16
HETATM   16  N3  UNL     1      27.454   1.312  52.966  1.00  0.00     0.092 N 
HETATM   17  C9  UNL     1      26.830  -0.020  53.033  1.00  0.00     0.298 C 
HETATM   18  C10 UNL     1      27.900  -1.091  52.989  1.00  0.00     0.198 C 
HETATM   19  O2  UNL     1      28.634  -1.120  54.176  1.00  0.00    -0.388 OA
HETATM   20  C11 UNL     1      28.612   0.133  54.796  1.00  0.00     0.198 C 
HETATM   21  C12 UNL     1      28.707   1.149  53.687  1.00  0.00     0.298 C 
ENDBRANCH  15  16
ENDBRANCH  14  15
ENDBRANCH   2  14
TORSDOF 8
ENDMDL
MODEL 8
REMARK VINA RESULT:      -5.3      2.464      6.303
REMARK  8 active torsions:
REMARK  status: ('A' for Active; 'I' for Inactive)
REMARK    1  A    between atoms: C2_3  and  C3_4 
REMARK    2  A    between atoms: C3_4  and  O1_5 
REMARK    3  A    between atoms: O1_5  and  C4_6 
REMARK    4  A    between atoms: C4_6  and  C5_7 
REMARK    5  A    between atoms: C5_7  and  N2_8 
REMARK    6  A    between atoms: C6_9  and  C7_10 
REMARK    7  A    between atoms: C7_10  and  C8_11 
REMARK    8  A    between atoms: C8_11  and  N3_12 
ROOT
HETATM    1  N2  UNL     1      20.207  -0.168  54.402  1.00  0.00    -0.419 N 
HETATM    2  C6  UNL     1      19.634  -0.468  53.204  1.00  0.00     0.115 C 
HETATM    3  H8  UNL     1      19.620   0.367  55.085  1.00  0.00     0.153 HD
ENDROOT
BRANCH   1   4
HETATM    4  C5  UNL     1      21.527  -0.220  54.783  1.00  0.00     0.140 C 
BRANCH   4   5
HETATM    5  C4  UNL     1      22.224  -1.452  54.260  1.00  0.00     0.187 C 
BRANCH   5   6
HETATM    6  O1  UNL     1      23.060  -1.016  53.214  1.00  0.00    -0.384 OA
BRANCH   6   7
HETATM    7  C3  UNL     1      23.757   0.151  53.525  1.00  0.00     0.226 C 
BRANCH   7   8
HETATM    8  C2  UNL     1      25.193  -0.162  53.476  1.00  0.00     0.053 A 
HETATM    9  N1  UNL     1      25.969   0.617  54.389  1.00  0.00    -0.268 NA
HETATM   10  C1  UNL     1      27.235   0.438  54.471  1.00  0.00     0.090 A 
HETATM   11  C15 UNL     1      28.152  -0.483  53.762  1.00  0.00     0.051 A 
HETATM   12  C14 UNL     1      27.397  -1.326  52.795  1.00  0.00     0.034 A 
HETATM   13  C13 UNL     1      25.961  -0.998  52.821  1.00  0.00     0.003 A 
ENDBRANCH   7   8
ENDBRANCH   6   7
ENDBRANCH   5   6
ENDBRANCH   4   5
ENDBRANCH   1   4
BRANCH   2  14
HETATM   14  C7  UNL     1      19.826   0.289  51.958  1.00  0.00     0.049 C 
BRANCH  14  15
HETATM   15  C8  UNL     1      19.791   1.813  52.239  1.00  0.00     0.274 C 
BRANCH  15  16
HETATM   16  N3  UNL     1      21.130   2.353  52.186  1.00  0.00     0.092 N 
HETATM   17  C9  UNL     1      20.990   3.817  52.107  1.00  0.00     0.298 C 
HETATM   18  C10 UNL     1      22.192   4.410  51.400  1.00  0.00     0.198 C 
HETATM   19  O2  UNL     1      22.180   4.102  50.039  1.00  0.00    -0.388 OA
HETATM   20  C11 UNL     1      21.471   2.919  49.811  1.00  0.00     0.198 C 
HETATM   21  C12 UNL     1      21.814   1.998  50.953  1.00  0.00     0.298 C 
ENDBRANCH  15  16
ENDBRANCH  14  15
ENDBRANCH   2  14
TORSDOF 8
ENDMDL
MODEL 9
REMARK VINA RESULT:      -5.2      4.426      7.333
REMARK  8 active torsions:
REMARK  status: ('A' for Active; 'I' for Inactive)
REMARK    1  A    between atoms: C2_3  and  C3_4 
REMARK    2  A    between atoms: C3_4  and  O1_5 
REMARK    3  A    between atoms: O1_5  and  C4_6 
REMARK    4  A    between atoms: C4_6  and  C5_7 
REMARK    5  A    between atoms: C5_7  and  N2_8 
REMARK    6  A    between atoms: C6_9  and  C7_10 
REMARK    7  A    between atoms: C7_10  and  C8_11 
REMARK    8  A    between atoms: C8_11  and  N3_12 
ROOT
HETATM    1  N2  UNL     1      25.841   4.833  50.355  1.00  0.00    -0.419 N 
HETATM    2  C6  UNL     1      26.158   5.638  49.303  1.00  0.00     0.115 C 
HETATM    3  H8  UNL     1      26.035   5.210  51.312  1.00  0.00     0.153 HD
ENDROOT
BRANCH   1   4
HETATM    4  C5  UNL     1      25.543   3.491  50.376  1.00  0.00     0.140 C 
BRANCH   4   5
HETATM    5  C4  UNL     1      26.591   2.686  51.104  1.00  0.00     0.187 C 
BRANCH   5   6
HETATM    6  O1  UNL     1      25.931   2.065  52.182  1.00  0.00    -0.384 OA
BRANCH   6   7
HETATM    7  C3  UNL     1      26.699   2.033  53.346  1.00  0.00     0.226 C 
BRANCH   7   8
HETATM    8  C2  UNL     1      27.528   0.820  53.300  1.00  0.00     0.053 A 
HETATM    9  N1  UNL     1      28.890   1.056  53.658  1.00  0.00    -0.268 NA
HETATM   10  C1  UNL     1      29.726   0.085  53.681  1.00  0.00     0.090 A 
HETATM   11  C15 UNL     1      29.574  -1.358  53.393  1.00  0.00     0.051 A 
HETATM   12  C14 UNL     1      28.167  -1.667  53.016  1.00  0.00     0.034 A 
HETATM   13  C13 UNL     1      27.338  -0.450  53.034  1.00  0.00     0.003 A 
ENDBRANCH   7   8
ENDBRANCH   6   7
ENDBRANCH   5   6
ENDBRANCH   4   5
ENDBRANCH   1   4
BRANCH   2  14
HETATM   14  C7  UNL     1      27.391   5.545  48.505  1.00  0.00     0.049 C 
BRANCH  14  15
HETATM   15  C8  UNL     1      27.782   6.938  47.949  1.00  0.00     0.274 C 
BRANCH  15  16
HETATM   16  N3  UNL     1      28.981   7.409  48.603  1.00  0.00     0.092 N 
HETATM   17  C9  UNL     1      28.688   8.767  49.090  1.00  0.00     0.298 C 
HETATM   18  C10 UNL     1      29.970   9.572  49.170  1.00  0.00     0.198 C 
HETATM   19  O2  UNL     1      30.451   9.881  47.896  1.00  0.00    -0.388 OA
HETATM   20  C11 UNL     1      30.016   8.933  46.965  1.00  0.00     0.198 C 
HETATM   21  C12 UNL     1      30.076   7.600  47.666  1.00  0.00     0.298 C 
ENDBRANCH  15  16
ENDBRANCH  14  15
ENDBRANCH   2  14
TORSDOF 8
ENDMDL
