MODEL 1
REMARK VINA RESULT:      -8.6      0.000      0.000
REMARK  3 active torsions:
REMARK  status: ('A' for Active; 'I' for Inactive)
REMARK    1  A    between atoms: O1_2  and  C2_3 
REMARK    2  A    between atoms: C5_6  and  C6_7 
REMARK    3  A    between atoms: C10_14  and  O2_15 
ROOT
HETATM    1  C6  UNL     1      23.841   0.783  53.447  1.00  0.00     0.150 C 
HETATM    2  C7  UNL     1      22.928  -0.074  52.543  1.00  0.00     0.094 C 
HETATM    3  C8  UNL     1      21.757   0.659  52.446  1.00  0.00     0.069 C 
HETATM    4  N1  UNL     1      22.214   1.874  52.710  1.00  0.00    -0.175 NA
HETATM    5  N2  UNL     1      23.598   1.902  52.579  1.00  0.00    -0.254 N 
HETATM    6  C9  UNL     1      24.597   2.633  51.915  1.00  0.00     0.232 C 
HETATM    7  N3  UNL     1      23.923   2.999  50.936  1.00  0.00    -0.218 NA
HETATM    8  C10 UNL     1      22.665   2.866  50.468  1.00  0.00     0.169 C 
HETATM    9  C11 UNL     1      21.524   2.475  50.069  1.00  0.00     0.108 C 
HETATM   10  S1  UNL     1      20.177   1.403  49.652  1.00  0.00    -0.097 SA
HETATM   11  C12 UNL     1      19.552   0.485  51.076  1.00  0.00     0.017 A 
HETATM   12  C13 UNL     1      18.263  -0.026  51.123  1.00  0.00     0.020 A 
HETATM   13  C14 UNL     1      17.785  -0.742  52.216  1.00  0.00     0.001 A 
HETATM   14  C15 UNL     1      18.633  -0.959  53.316  1.00  0.00     0.001 A 
HETATM   15  C16 UNL     1      19.896  -0.452  53.257  1.00  0.00     0.015 A 
HETATM   16  C17 UNL     1      20.389   0.274  52.156  1.00  0.00     0.007 A 
ENDROOT
BRANCH   1  17
HETATM   17  C5  UNL     1      25.178   0.282  53.602  1.00  0.00    -0.033 A 
HETATM   18  C4  UNL     1      26.118   0.696  54.512  1.00  0.00     0.012 A 
HETATM   19  C3  UNL     1      27.400   0.203  54.622  1.00  0.00     0.037 A 
HETATM   20  C2  UNL     1      27.769  -0.794  53.743  1.00  0.00     0.068 A 
HETATM   21  C19 UNL     1      26.874  -1.266  52.797  1.00  0.00     0.037 A 
HETATM   22  C18 UNL     1      25.597  -0.734  52.729  1.00  0.00     0.012 A 
BRANCH  20  23
HETATM   23  O1  UNL     1      29.025  -1.413  53.707  1.00  0.00    -0.356 OA
HETATM   24  C1  UNL     1      30.149  -0.580  53.546  1.00  0.00     0.210 C 
ENDBRANCH  20  23
ENDBRANCH   1  17
BRANCH   8  25
HETATM   25  O2  UNL     1      22.909   4.245  50.436  1.00  0.00    -0.344 OA
HETATM   26  H10 UNL     1      22.571   4.865  51.167  1.00  0.00     0.219 HD
ENDBRANCH   8  25
TORSDOF 3
ENDMDL
MODEL 2
REMARK VINA RESULT:      -8.0      3.876      6.962
REMARK  3 active torsions:
REMARK  status: ('A' for Active; 'I' for Inactive)
REMARK    1  A    between atoms: O1_2  and  C2_3 
REMARK    2  A    between atoms: C5_6  and  C6_7 
REMARK    3  A    between atoms: C10_14  and  O2_15 
ROOT
HETATM    1  C6  UNL     1      23.640   2.842  50.343  1.00  0.00     0.150 C 
HETATM    2  C7  UNL     1      24.738   3.813  50.829  1.00  0.00     0.094 C 
HETATM    3  C8  UNL     1      24.819   4.768  49.830  1.00  0.00     0.069 C 
HETATM    4  N1  UNL     1      23.613   4.653  49.292  1.00  0.00    -0.175 NA
HETATM    5  N2  UNL     1      22.768   3.969  50.160  1.00  0.00    -0.254 N 
HETATM    6  C9  UNL     1      21.511   4.118  50.771  1.00  0.00     0.232 C 
HETATM    7  N3  UNL     1      21.480   5.361  50.803  1.00  0.00    -0.218 NA
HETATM    8  C10 UNL     1      22.256   6.402  50.438  1.00  0.00     0.169 C 
HETATM    9  C11 UNL     1      23.179   7.249  50.233  1.00  0.00     0.108 C 
HETATM   10  S1  UNL     1      24.768   8.032  50.276  1.00  0.00    -0.097 SA
HETATM   11  C12 UNL     1      26.058   7.032  49.504  1.00  0.00     0.017 A 
HETATM   12  C13 UNL     1      27.224   7.586  48.997  1.00  0.00     0.020 A 
HETATM   13  C14 UNL     1      28.223   6.815  48.411  1.00  0.00     0.001 A 
HETATM   14  C15 UNL     1      28.050   5.423  48.327  1.00  0.00     0.001 A 
HETATM   15  C16 UNL     1      26.901   4.891  48.828  1.00  0.00     0.015 A 
HETATM   16  C17 UNL     1      25.885   5.663  49.423  1.00  0.00     0.007 A 
ENDROOT
BRANCH   1  17
HETATM   17  C5  UNL     1      23.285   1.815  51.281  1.00  0.00    -0.033 A 
HETATM   18  C4  UNL     1      22.179   1.003  51.242  1.00  0.00     0.012 A 
HETATM   19  C3  UNL     1      21.860   0.036  52.170  1.00  0.00     0.037 A 
HETATM   20  C2  UNL     1      22.729  -0.133  53.229  1.00  0.00     0.068 A 
HETATM   21  C19 UNL     1      23.868   0.649  53.336  1.00  0.00     0.037 A 
HETATM   22  C18 UNL     1      24.140   1.608  52.374  1.00  0.00     0.012 A 
BRANCH  20  23
HETATM   23  O1  UNL     1      22.569  -1.062  54.263  1.00  0.00    -0.356 OA
HETATM   24  C1  UNL     1      21.285  -1.615  54.440  1.00  0.00     0.210 C 
ENDBRANCH  20  23
ENDBRANCH   1  17
BRANCH   8  25
HETATM   25  O2  UNL     1      21.003   6.683  49.877  1.00  0.00    -0.344 OA
HETATM   26  H10 UNL     1      20.911   7.102  48.955  1.00  0.00     0.219 HD
ENDBRANCH   8  25
TORSDOF 3
ENDMDL
MODEL 3
REMARK VINA RESULT:      -8.0      3.135      5.880
REMARK  3 active torsions:
REMARK  status: ('A' for Active; 'I' for Inactive)
REMARK    1  A    between atoms: O1_2  and  C2_3 
REMARK    2  A    between atoms: C5_6  and  C6_7 
REMARK    3  A    between atoms: C10_14  and  O2_15 
ROOT
HETATM    1  C6  UNL     1      24.447   2.690  51.131  1.00  0.00     0.150 C 
HETATM    2  C7  UNL     1      23.774   2.401  52.490  1.00  0.00     0.094 C 
HETATM    3  C8  UNL     1      23.799   1.021  52.599  1.00  0.00     0.069 C 
HETATM    4  N1  UNL     1      24.810   0.736  51.790  1.00  0.00    -0.175 NA
HETATM    5  N2  UNL     1      25.560   1.881  51.545  1.00  0.00    -0.254 N 
HETATM    6  C9  UNL     1      26.893   2.323  51.609  1.00  0.00     0.232 C 
HETATM    7  N3  UNL     1      27.284   1.566  52.515  1.00  0.00    -0.218 NA
HETATM    8  C10 UNL     1      26.787   0.589  53.301  1.00  0.00     0.169 C 
HETATM    9  C11 UNL     1      26.124  -0.149  54.094  1.00  0.00     0.108 C 
HETATM   10  S1  UNL     1      24.858  -0.687  55.210  1.00  0.00    -0.097 SA
HETATM   11  C12 UNL     1      23.222  -0.719  54.445  1.00  0.00     0.017 A 
HETATM   12  C13 UNL     1      22.194  -1.519  54.922  1.00  0.00     0.020 A 
HETATM   13  C14 UNL     1      20.932  -1.536  54.339  1.00  0.00     0.001 A 
HETATM   14  C15 UNL     1      20.681  -0.716  53.225  1.00  0.00     0.001 A 
HETATM   15  C16 UNL     1      21.699   0.064  52.767  1.00  0.00     0.015 A 
HETATM   16  C17 UNL     1      22.980   0.089  53.350  1.00  0.00     0.007 A 
ENDROOT
BRANCH   1  17
HETATM   17  C5  UNL     1      24.650   4.082  50.842  1.00  0.00    -0.033 A 
HETATM   18  C4  UNL     1      25.463   4.618  49.875  1.00  0.00     0.012 A 
HETATM   19  C3  UNL     1      25.647   5.962  49.636  1.00  0.00     0.037 A 
HETATM   20  C2  UNL     1      24.951   6.846  50.435  1.00  0.00     0.068 A 
HETATM   21  C19 UNL     1      24.109   6.380  51.432  1.00  0.00     0.037 A 
HETATM   22  C18 UNL     1      23.962   5.017  51.630  1.00  0.00     0.012 A 
BRANCH  20  23
HETATM   23  O1  UNL     1      25.012   8.241  50.338  1.00  0.00    -0.356 OA
HETATM   24  C1  UNL     1      26.273   8.815  50.080  1.00  0.00     0.210 C 
ENDBRANCH  20  23
ENDBRANCH   1  17
BRANCH   8  25
HETATM   25  O2  UNL     1      27.952   0.039  52.749  1.00  0.00    -0.344 OA
HETATM   26  H10 UNL     1      28.550   0.572  52.124  1.00  0.00     0.219 HD
ENDBRANCH   8  25
TORSDOF 3
ENDMDL
MODEL 4
REMARK VINA RESULT:      -7.8      2.615      5.211
REMARK  3 active torsions:
REMARK  status: ('A' for Active; 'I' for Inactive)
REMARK    1  A    between atoms: O1_2  and  C2_3 
REMARK    2  A    between atoms: C5_6  and  C6_7 
REMARK    3  A    between atoms: C10_14  and  O2_15 
ROOT
HETATM    1  C6  UNL     1      23.098   2.515  50.628  1.00  0.00     0.150 C 
HETATM    2  C7  UNL     1      21.946   2.441  51.654  1.00  0.00     0.094 C 
HETATM    3  C8  UNL     1      21.631   1.094  51.720  1.00  0.00     0.069 C 
HETATM    4  N1  UNL     1      22.774   0.562  51.311  1.00  0.00    -0.175 NA
HETATM    5  N2  UNL     1      23.792   1.506  51.382  1.00  0.00    -0.254 N 
HETATM    6  C9  UNL     1      25.079   1.656  51.925  1.00  0.00     0.232 C 
HETATM    7  N3  UNL     1      24.954   0.876  52.886  1.00  0.00    -0.218 NA
HETATM    8  C10 UNL     1      24.014   0.066  53.416  1.00  0.00     0.169 C 
HETATM    9  C11 UNL     1      22.972  -0.474  53.899  1.00  0.00     0.108 C 
HETATM   10  S1  UNL     1      21.311  -0.676  54.481  1.00  0.00    -0.097 SA
HETATM   11  C12 UNL     1      20.082  -0.393  53.188  1.00  0.00     0.017 A 
HETATM   12  C13 UNL     1      18.805  -0.931  53.247  1.00  0.00     0.020 A 
HETATM   13  C14 UNL     1      17.855  -0.706  52.256  1.00  0.00     0.001 A 
HETATM   14  C15 UNL     1      18.195   0.095  51.152  1.00  0.00     0.001 A 
HETATM   15  C16 UNL     1      19.451   0.617  51.106  1.00  0.00     0.015 A 
HETATM   16  C17 UNL     1      20.420   0.395  52.104  1.00  0.00     0.007 A 
ENDROOT
BRANCH   1  17
HETATM   17  C5  UNL     1      23.686   3.816  50.474  1.00  0.00    -0.033 A 
HETATM   18  C4  UNL     1      24.550   4.223  49.488  1.00  0.00     0.012 A 
HETATM   19  C3  UNL     1      25.109   5.477  49.380  1.00  0.00     0.037 A 
HETATM   20  C2  UNL     1      24.769   6.405  50.343  1.00  0.00     0.068 A 
HETATM   21  C19 UNL     1      23.900   6.068  51.369  1.00  0.00     0.037 A 
HETATM   22  C18 UNL     1      23.368   4.791  51.431  1.00  0.00     0.012 A 
BRANCH  20  23
HETATM   23  O1  UNL     1      25.236   7.724  50.394  1.00  0.00    -0.356 OA
HETATM   24  C1  UNL     1      26.509   7.978  49.846  1.00  0.00     0.210 C 
ENDBRANCH  20  23
ENDBRANCH   1  17
BRANCH   8  25
HETATM   25  O2  UNL     1      25.150  -0.745  53.292  1.00  0.00    -0.344 OA
HETATM   26  H10 UNL     1      25.644  -1.101  54.105  1.00  0.00     0.219 HD
ENDBRANCH   8  25
TORSDOF 3
ENDMDL
MODEL 5
REMARK VINA RESULT:      -7.8      2.165      3.969
REMARK  3 active torsions:
REMARK  status: ('A' for Active; 'I' for Inactive)
REMARK    1  A    between atoms: O1_2  and  C2_3 
REMARK    2  A    between atoms: C5_6  and  C6_7 
REMARK    3  A    between atoms: C10_14  and  O2_15 
ROOT
HETATM    1  C6  UNL     1      24.573   1.152  51.555  1.00  0.00     0.150 C 
HETATM    2  C7  UNL     1      24.109   2.624  51.490  1.00  0.00     0.094 C 
HETATM    3  C8  UNL     1      22.939   2.583  50.750  1.00  0.00     0.069 C 
HETATM    4  N1  UNL     1      22.576   1.324  50.948  1.00  0.00    -0.175 NA
HETATM    5  N2  UNL     1      23.266   0.795  52.033  1.00  0.00    -0.254 N 
HETATM    6  C9  UNL     1      23.010   0.130  53.245  1.00  0.00     0.232 C 
HETATM    7  N3  UNL     1      21.874   0.589  53.459  1.00  0.00    -0.218 NA
HETATM    8  C10 UNL     1      20.998   1.432  52.876  1.00  0.00     0.169 C 
HETATM    9  C11 UNL     1      20.387   2.396  52.318  1.00  0.00     0.108 C 
HETATM   10  S1  UNL     1      20.078   3.983  51.593  1.00  0.00    -0.097 SA
HETATM   11  C12 UNL     1      21.071   4.277  50.113  1.00  0.00     0.017 A 
HETATM   12  C13 UNL     1      20.692   5.183  49.133  1.00  0.00     0.020 A 
HETATM   13  C14 UNL     1      21.462   5.418  47.999  1.00  0.00     0.001 A 
HETATM   14  C15 UNL     1      22.668   4.715  47.832  1.00  0.00     0.001 A 
HETATM   15  C16 UNL     1      23.027   3.828  48.802  1.00  0.00     0.015 A 
HETATM   16  C17 UNL     1      22.255   3.584  49.954  1.00  0.00     0.007 A 
ENDROOT
BRANCH   1  17
HETATM   17  C5  UNL     1      25.721   0.918  52.383  1.00  0.00    -0.033 A 
HETATM   18  C4  UNL     1      26.245   1.761  53.332  1.00  0.00     0.012 A 
HETATM   19  C3  UNL     1      27.361   1.511  54.099  1.00  0.00     0.037 A 
HETATM   20  C2  UNL     1      28.007   0.308  53.899  1.00  0.00     0.068 A 
HETATM   21  C19 UNL     1      27.537  -0.597  52.960  1.00  0.00     0.037 A 
HETATM   22  C18 UNL     1      26.409  -0.293  52.214  1.00  0.00     0.012 A 
BRANCH  20  23
HETATM   23  O1  UNL     1      29.152  -0.118  54.584  1.00  0.00    -0.356 OA
HETATM   24  C1  UNL     1      30.145  -0.777  53.833  1.00  0.00     0.210 C 
ENDBRANCH  20  23
ENDBRANCH   1  17
BRANCH   8  25
HETATM   25  O2  UNL     1      20.253   0.275  53.134  1.00  0.00    -0.344 OA
HETATM   26  H10 UNL     1      20.608  -0.467  53.731  1.00  0.00     0.219 HD
ENDBRANCH   8  25
TORSDOF 3
ENDMDL
MODEL 6
REMARK VINA RESULT:      -7.7      4.017      5.804
REMARK  3 active torsions:
REMARK  status: ('A' for Active; 'I' for Inactive)
REMARK    1  A    between atoms: O1_2  and  C2_3 
REMARK    2  A    between atoms: C5_6  and  C6_7 
REMARK    3  A    between atoms: C10_14  and  O2_15 
ROOT
HETATM    1  C6  UNL     1      24.861   5.076  49.941  1.00  0.00     0.150 C 
HETATM    2  C7  UNL     1      24.733   3.538  49.881  1.00  0.00     0.094 C 
HETATM    3  C8  UNL     1      23.463   3.280  50.369  1.00  0.00     0.069 C 
HETATM    4  N1  UNL     1      22.874   4.442  50.127  1.00  0.00    -0.175 NA
HETATM    5  N2  UNL     1      23.625   5.176  49.215  1.00  0.00    -0.254 N 
HETATM    6  C9  UNL     1      23.466   5.846  47.990  1.00  0.00     0.232 C 
HETATM    7  N3  UNL     1      22.524   5.170  47.542  1.00  0.00    -0.218 NA
HETATM    8  C10 UNL     1      21.762   4.122  47.919  1.00  0.00     0.169 C 
HETATM    9  C11 UNL     1      21.285   3.017  48.322  1.00  0.00     0.108 C 
HETATM   10  S1  UNL     1      21.203   1.357  48.937  1.00  0.00    -0.097 SA
HETATM   11  C12 UNL     1      21.932   1.188  50.581  1.00  0.00     0.017 A 
HETATM   12  C13 UNL     1      21.583   0.161  51.445  1.00  0.00     0.020 A 
HETATM   13  C14 UNL     1      22.152   0.024  52.707  1.00  0.00     0.001 A 
HETATM   14  C15 UNL     1      23.115   0.957  53.128  1.00  0.00     0.001 A 
HETATM   15  C16 UNL     1      23.449   1.960  52.270  1.00  0.00     0.015 A 
HETATM   16  C17 UNL     1      22.879   2.107  50.991  1.00  0.00     0.007 A 
ENDROOT
BRANCH   1  17
HETATM   17  C5  UNL     1      26.066   5.604  49.367  1.00  0.00    -0.033 A 
HETATM   18  C4  UNL     1      26.374   6.925  49.154  1.00  0.00     0.012 A 
HETATM   19  C3  UNL     1      27.536   7.396  48.584  1.00  0.00     0.037 A 
HETATM   20  C2  UNL     1      28.473   6.460  48.196  1.00  0.00     0.068 A 
HETATM   21  C19 UNL     1      28.234   5.108  48.380  1.00  0.00     0.037 A 
HETATM   22  C18 UNL     1      27.047   4.688  48.958  1.00  0.00     0.012 A 
BRANCH  20  23
HETATM   23  O1  UNL     1      29.707   6.752  47.603  1.00  0.00    -0.356 OA
HETATM   24  C1  UNL     1      30.762   5.846  47.833  1.00  0.00     0.210 C 
ENDBRANCH  20  23
ENDBRANCH   1  17
BRANCH   8  25
HETATM   25  O2  UNL     1      20.842   5.108  47.538  1.00  0.00    -0.344 OA
HETATM   26  H10 UNL     1      21.033   5.751  46.774  1.00  0.00     0.219 HD
ENDBRANCH   8  25
TORSDOF 3
ENDMDL
MODEL 7
REMARK VINA RESULT:      -7.6      3.154      7.480
REMARK  3 active torsions:
REMARK  status: ('A' for Active; 'I' for Inactive)
REMARK    1  A    between atoms: O1_2  and  C2_3 
REMARK    2  A    between atoms: C5_6  and  C6_7 
REMARK    3  A    between atoms: C10_14  and  O2_15 
ROOT
HETATM    1  C6  UNL     1      24.167   3.750  52.054  1.00  0.00     0.150 C 
HETATM    2  C7  UNL     1      25.289   2.780  51.625  1.00  0.00     0.094 C 
HETATM    3  C8  UNL     1      25.626   2.109  52.789  1.00  0.00     0.069 C 
HETATM    4  N1  UNL     1      24.506   2.257  53.482  1.00  0.00    -0.175 NA
HETATM    5  N2  UNL     1      23.470   2.637  52.637  1.00  0.00    -0.254 N 
HETATM    6  C9  UNL     1      22.164   2.243  52.298  1.00  0.00     0.232 C 
HETATM    7  N3  UNL     1      22.274   1.032  52.558  1.00  0.00    -0.218 NA
HETATM    8  C10 UNL     1      23.212   0.177  53.016  1.00  0.00     0.169 C 
HETATM    9  C11 UNL     1      24.249  -0.517  53.250  1.00  0.00     0.108 C 
HETATM   10  S1  UNL     1      25.895  -1.159  53.119  1.00  0.00    -0.097 SA
HETATM   11  C12 UNL     1      27.157   0.100  53.411  1.00  0.00     0.017 A 
HETATM   12  C13 UNL     1      28.442  -0.219  53.827  1.00  0.00     0.020 A 
HETATM   13  C14 UNL     1      29.417   0.749  54.042  1.00  0.00     0.001 A 
HETATM   14  C15 UNL     1      29.096   2.102  53.833  1.00  0.00     0.001 A 
HETATM   15  C16 UNL     1      27.832   2.401  53.425  1.00  0.00     0.015 A 
HETATM   16  C17 UNL     1      26.838   1.428  53.204  1.00  0.00     0.007 A 
ENDROOT
BRANCH   1  17
HETATM   17  C5  UNL     1      23.561   4.484  50.979  1.00  0.00    -0.033 A 
HETATM   18  C4  UNL     1      22.666   5.520  51.084  1.00  0.00     0.012 A 
HETATM   19  C3  UNL     1      22.090   6.192  50.029  1.00  0.00     0.037 A 
HETATM   20  C2  UNL     1      22.446   5.793  48.757  1.00  0.00     0.068 A 
HETATM   21  C19 UNL     1      23.346   4.755  48.571  1.00  0.00     0.037 A 
HETATM   22  C18 UNL     1      23.894   4.112  49.668  1.00  0.00     0.012 A 
BRANCH  20  23
HETATM   23  O1  UNL     1      21.965   6.358  47.570  1.00  0.00    -0.356 OA
HETATM   24  C1  UNL     1      22.907   6.974  46.722  1.00  0.00     0.210 C 
ENDBRANCH  20  23
ENDBRANCH   1  17
BRANCH   8  25
HETATM   25  O2  UNL     1      22.096  -0.055  53.830  1.00  0.00    -0.344 OA
HETATM   26  H10 UNL     1      22.088  -0.794  54.528  1.00  0.00     0.219 HD
ENDBRANCH   8  25
TORSDOF 3
ENDMDL
MODEL 8
REMARK VINA RESULT:      -7.5      3.612      7.004
REMARK  3 active torsions:
REMARK  status: ('A' for Active; 'I' for Inactive)
REMARK    1  A    between atoms: O1_2  and  C2_3 
REMARK    2  A    between atoms: C5_6  and  C6_7 
REMARK    3  A    between atoms: C10_14  and  O2_15 
ROOT
HETATM    1  C6  UNL     1      23.847   5.253  51.552  1.00  0.00     0.150 C 
HETATM    2  C7  UNL     1      24.255   3.792  51.264  1.00  0.00     0.094 C 
HETATM    3  C8  UNL     1      23.844   3.094  52.388  1.00  0.00     0.069 C 
HETATM    4  N1  UNL     1      22.895   3.902  52.836  1.00  0.00    -0.175 NA
HETATM    5  N2  UNL     1      22.517   4.793  51.838  1.00  0.00    -0.254 N 
HETATM    6  C9  UNL     1      21.356   5.239  51.183  1.00  0.00     0.232 C 
HETATM    7  N3  UNL     1      20.672   4.209  51.320  1.00  0.00    -0.218 NA
HETATM    8  C10 UNL     1      20.791   2.982  51.866  1.00  0.00     0.169 C 
HETATM    9  C11 UNL     1      21.133   1.816  52.235  1.00  0.00     0.108 C 
HETATM   10  S1  UNL     1      22.067   0.319  52.388  1.00  0.00    -0.097 SA
HETATM   11  C12 UNL     1      23.710   0.592  53.088  1.00  0.00     0.017 A 
HETATM   12  C13 UNL     1      24.420  -0.411  53.730  1.00  0.00     0.020 A 
HETATM   13  C14 UNL     1      25.690  -0.204  54.260  1.00  0.00     0.001 A 
HETATM   14  C15 UNL     1      26.280   1.066  54.145  1.00  0.00     0.001 A 
HETATM   15  C16 UNL     1      25.572   2.043  53.512  1.00  0.00     0.015 A 
HETATM   16  C17 UNL     1      24.287   1.843  52.972  1.00  0.00     0.007 A 
ENDROOT
BRANCH   1  17
HETATM   17  C5  UNL     1      24.065   6.165  50.464  1.00  0.00    -0.033 A 
HETATM   18  C4  UNL     1      24.296   5.846  49.149  1.00  0.00     0.012 A 
HETATM   19  C3  UNL     1      24.518   6.748  48.132  1.00  0.00     0.037 A 
HETATM   20  C2  UNL     1      24.504   8.088  48.462  1.00  0.00     0.068 A 
HETATM   21  C19 UNL     1      24.275   8.488  49.769  1.00  0.00     0.037 A 
HETATM   22  C18 UNL     1      24.059   7.538  50.754  1.00  0.00     0.012 A 
BRANCH  20  23
HETATM   23  O1  UNL     1      24.708   9.143  47.565  1.00  0.00    -0.356 OA
HETATM   24  C1  UNL     1      25.471  10.237  48.020  1.00  0.00     0.210 C 
ENDBRANCH  20  23
ENDBRANCH   1  17
BRANCH   8  25
HETATM   25  O2  UNL     1      19.593   3.486  52.389  1.00  0.00    -0.344 OA
HETATM   26  H10 UNL     1      18.988   4.098  51.847  1.00  0.00     0.219 HD
ENDBRANCH   8  25
TORSDOF 3
ENDMDL
MODEL 9
REMARK VINA RESULT:      -7.4      3.413      5.403
REMARK  3 active torsions:
REMARK  status: ('A' for Active; 'I' for Inactive)
REMARK    1  A    between atoms: O1_2  and  C2_3 
REMARK    2  A    between atoms: C5_6  and  C6_7 
REMARK    3  A    between atoms: C10_14  and  O2_15 
ROOT
HETATM    1  C6  UNL     1      23.223   2.922  50.510  1.00  0.00     0.150 C 
HETATM    2  C7  UNL     1      23.767   3.381  49.140  1.00  0.00     0.094 C 
HETATM    3  C8  UNL     1      22.812   4.268  48.671  1.00  0.00     0.069 C 
HETATM    4  N1  UNL     1      22.253   4.641  49.813  1.00  0.00    -0.175 NA
HETATM    5  N2  UNL     1      23.078   4.303  50.880  1.00  0.00    -0.254 N 
HETATM    6  C9  UNL     1      23.677   4.900  52.002  1.00  0.00     0.232 C 
HETATM    7  N3  UNL     1      23.763   6.059  51.558  1.00  0.00    -0.218 NA
HETATM    8  C10 UNL     1      23.455   6.736  50.433  1.00  0.00     0.169 C 
HETATM    9  C11 UNL     1      23.301   7.171  49.250  1.00  0.00     0.108 C 
HETATM   10  S1  UNL     1      23.401   7.285  47.485  1.00  0.00    -0.097 SA
HETATM   11  C12 UNL     1      22.604   5.895  46.652  1.00  0.00     0.017 A 
HETATM   12  C13 UNL     1      22.138   5.978  45.348  1.00  0.00     0.020 A 
HETATM   13  C14 UNL     1      21.533   4.905  44.702  1.00  0.00     0.001 A 
HETATM   14  C15 UNL     1      21.384   3.688  45.391  1.00  0.00     0.001 A 
HETATM   15  C16 UNL     1      21.846   3.620  46.670  1.00  0.00     0.015 A 
HETATM   16  C17 UNL     1      22.460   4.700  47.332  1.00  0.00     0.007 A 
ENDROOT
BRANCH   1  17
HETATM   17  C5  UNL     1      24.110   2.076  51.258  1.00  0.00    -0.033 A 
HETATM   18  C4  UNL     1      23.766   1.163  52.224  1.00  0.00     0.012 A 
HETATM   19  C3  UNL     1      24.646   0.379  52.936  1.00  0.00     0.037 A 
HETATM   20  C2  UNL     1      25.989   0.520  52.651  1.00  0.00     0.068 A 
HETATM   21  C19 UNL     1      26.414   1.421  51.687  1.00  0.00     0.037 A 
HETATM   22  C18 UNL     1      25.485   2.187  51.002  1.00  0.00     0.012 A 
BRANCH  20  23
HETATM   23  O1  UNL     1      27.025  -0.191  53.270  1.00  0.00    -0.356 OA
HETATM   24  C1  UNL     1      27.435   0.247  54.545  1.00  0.00     0.210 C 
ENDBRANCH  20  23
ENDBRANCH   1  17
BRANCH   8  25
HETATM   25  O2  UNL     1      22.890   7.494  51.466  1.00  0.00    -0.344 OA
HETATM   26  H10 UNL     1      22.097   7.157  52.005  1.00  0.00     0.219 HD
ENDBRANCH   8  25
TORSDOF 3
ENDMDL
