MODEL 1
REMARK VINA RESULT:      -8.7      0.000      0.000
REMARK  2 active torsions:
REMARK  status: ('A' for Active; 'I' for Inactive)
REMARK    1  A    between atoms: N5_23  and  C19_24 
REMARK    2  A    between atoms: C19_24  and  C20_25 
ROOT
HETATM    1  C1  UNL     1      27.324   2.484  51.471  1.00  0.00     0.140 C 
HETATM    2  C2  UNL     1      27.446   1.443  52.242  1.00  0.00     0.023 C 
HETATM    3  C3  UNL     1      27.283   0.075  52.838  1.00  0.00    -0.005 C 
HETATM    4  C4  UNL     1      25.992  -0.557  52.344  1.00  0.00     0.024 C 
HETATM    5  C5  UNL     1      24.797   0.317  52.663  1.00  0.00     0.117 C 
HETATM    6  N1  UNL     1      24.904   1.061  53.865  1.00  0.00    -0.406 N 
HETATM    7  C6  UNL     1      25.810   0.513  54.839  1.00  0.00     0.117 C 
HETATM    8  C7  UNL     1      27.177   0.190  54.341  1.00  0.00     0.024 C 
HETATM    9  C8  UNL     1      24.953   2.483  53.756  1.00  0.00     0.195 C 
HETATM   10  C9  UNL     1      24.319   2.904  52.452  1.00  0.00     0.123 C 
HETATM   11  N2  UNL     1      25.348   3.183  51.735  1.00  0.00    -0.219 NA
HETATM   12  C10 UNL     1      25.569   3.627  50.439  1.00  0.00     0.127 C 
HETATM   13  N3  UNL     1      26.783   3.161  50.364  1.00  0.00    -0.267 NA
HETATM   14  C11 UNL     1      24.816   4.363  49.265  1.00  0.00     0.133 C 
HETATM   15  C12 UNL     1      23.493   3.604  49.293  1.00  0.00     0.148 A 
HETATM   16  N4  UNL     1      23.095   2.542  48.566  1.00  0.00    -0.214 NA
HETATM   17  C13 UNL     1      22.150   1.927  49.480  1.00  0.00     0.042 A 
HETATM   18  C14 UNL     1      21.531   0.753  49.540  1.00  0.00     0.024 A 
HETATM   19  C15 UNL     1      21.129   0.364  50.835  1.00  0.00     0.004 A 
HETATM   20  C16 UNL     1      21.463   1.285  51.859  1.00  0.00     0.029 A 
HETATM   21  C17 UNL     1      22.120   2.406  51.315  1.00  0.00     0.060 A 
HETATM   22  C18 UNL     1      22.582   2.987  50.109  1.00  0.00     0.169 A 
HETATM   23  N5  UNL     1      23.140   4.034  50.485  1.00  0.00    -0.352 N 
HETATM   24  N6  UNL     1      22.808   2.837  52.560  1.00  0.00    -0.343 N 
HETATM   25  H26 UNL     1      22.383   3.079  53.470  1.00  0.00     0.167 HD
ENDROOT
BRANCH  23  26
HETATM   26  C19 UNL     1      23.243   5.136  51.366  1.00  0.00     0.160 C 
BRANCH  26  27
HETATM   27  C20 UNL     1      22.546   6.362  50.729  1.00  0.00    -0.041 A 
HETATM   28  C21 UNL     1      23.404   7.387  50.346  1.00  0.00     0.009 A 
HETATM   29  C22 UNL     1      23.031   8.576  49.742  1.00  0.00     0.001 A 
HETATM   30  C23 UNL     1      21.684   8.727  49.513  1.00  0.00     0.000 A 
HETATM   31  C24 UNL     1      20.797   7.727  49.881  1.00  0.00     0.001 A 
HETATM   32  C25 UNL     1      21.209   6.566  50.477  1.00  0.00     0.009 A 
ENDBRANCH  26  27
ENDBRANCH  23  26
TORSDOF 2
ENDMDL
MODEL 2
REMARK VINA RESULT:      -8.6      1.426      6.471
REMARK  2 active torsions:
REMARK  status: ('A' for Active; 'I' for Inactive)
REMARK    1  A    between atoms: N5_23  and  C19_24 
REMARK    2  A    between atoms: C19_24  and  C20_25 
ROOT
HETATM    1  C1  UNL     1      23.197   6.760  51.273  1.00  0.00     0.140 C 
HETATM    2  C2  UNL     1      22.483   7.232  50.293  1.00  0.00     0.023 C 
HETATM    3  C3  UNL     1      21.386   7.434  49.288  1.00  0.00    -0.005 C 
HETATM    4  C4  UNL     1      20.558   6.167  49.158  1.00  0.00     0.024 C 
HETATM    5  C5  UNL     1      21.424   4.983  48.782  1.00  0.00     0.117 C 
HETATM    6  N1  UNL     1      22.532   5.291  47.953  1.00  0.00    -0.406 N 
HETATM    7  C6  UNL     1      22.391   6.492  47.174  1.00  0.00     0.117 C 
HETATM    8  C7  UNL     1      21.992   7.712  47.931  1.00  0.00     0.024 C 
HETATM    9  C8  UNL     1      23.836   5.100  48.501  1.00  0.00     0.195 C 
HETATM   10  C9  UNL     1      23.762   4.091  49.621  1.00  0.00     0.123 C 
HETATM   11  N2  UNL     1      23.839   4.843  50.660  1.00  0.00    -0.219 NA
HETATM   12  C10 UNL     1      23.835   4.647  52.034  1.00  0.00     0.127 C 
HETATM   13  N3  UNL     1      23.435   5.853  52.320  1.00  0.00    -0.267 NA
HETATM   14  C11 UNL     1      24.095   3.512  53.098  1.00  0.00     0.133 C 
HETATM   15  C12 UNL     1      23.320   2.369  52.447  1.00  0.00     0.148 A 
HETATM   16  N4  UNL     1      22.056   1.954  52.663  1.00  0.00    -0.214 NA
HETATM   17  C13 UNL     1      21.734   1.384  51.368  1.00  0.00     0.042 A 
HETATM   18  C14 UNL     1      20.617   0.983  50.771  1.00  0.00     0.024 A 
HETATM   19  C15 UNL     1      20.663   0.998  49.361  1.00  0.00     0.004 A 
HETATM   20  C16 UNL     1      21.891   1.449  48.815  1.00  0.00     0.029 A 
HETATM   21  C17 UNL     1      22.798   1.769  49.845  1.00  0.00     0.060 A 
HETATM   22  C18 UNL     1      22.965   1.806  51.251  1.00  0.00     0.169 A 
HETATM   23  N5  UNL     1      24.105   2.283  51.396  1.00  0.00    -0.352 N 
HETATM   24  N6  UNL     1      23.656   2.688  49.054  1.00  0.00    -0.343 N 
HETATM   25  H26 UNL     1      24.166   2.487  48.179  1.00  0.00     0.167 HD
ENDROOT
BRANCH  23  26
HETATM   26  C19 UNL     1      25.442   2.451  50.966  1.00  0.00     0.160 C 
BRANCH  26  27
HETATM   27  C20 UNL     1      26.356   1.489  51.762  1.00  0.00    -0.041 A 
HETATM   28  C21 UNL     1      27.376   2.111  52.475  1.00  0.00     0.009 A 
HETATM   29  C22 UNL     1      28.312   1.476  53.274  1.00  0.00     0.001 A 
HETATM   30  C23 UNL     1      28.197   0.108  53.351  1.00  0.00     0.000 A 
HETATM   31  C24 UNL     1      27.192  -0.547  52.654  1.00  0.00     0.001 A 
HETATM   32  C25 UNL     1      26.287   0.120  51.875  1.00  0.00     0.009 A 
ENDBRANCH  26  27
ENDBRANCH  23  26
TORSDOF 2
ENDMDL
MODEL 3
REMARK VINA RESULT:      -8.5      9.149     11.110
REMARK  2 active torsions:
REMARK  status: ('A' for Active; 'I' for Inactive)
REMARK    1  A    between atoms: N5_23  and  C19_24 
REMARK    2  A    between atoms: C19_24  and  C20_25 
ROOT
HETATM    1  C1  UNL     1      35.039   5.226  48.527  1.00  0.00     0.140 C 
HETATM    2  C2  UNL     1      34.817   4.137  47.851  1.00  0.00     0.023 C 
HETATM    3  C3  UNL     1      34.631   3.165  46.722  1.00  0.00    -0.005 C 
HETATM    4  C4  UNL     1      34.353   3.915  45.430  1.00  0.00     0.024 C 
HETATM    5  C5  UNL     1      33.146   4.817  45.569  1.00  0.00     0.117 C 
HETATM    6  N1  UNL     1      32.133   4.333  46.435  1.00  0.00    -0.406 N 
HETATM    7  C6  UNL     1      32.124   2.906  46.619  1.00  0.00     0.117 C 
HETATM    8  C7  UNL     1      33.428   2.294  47.000  1.00  0.00     0.024 C 
HETATM    9  C8  UNL     1      31.875   5.077  47.625  1.00  0.00     0.195 C 
HETATM   10  C9  UNL     1      32.331   6.503  47.429  1.00  0.00     0.123 C 
HETATM   11  N2  UNL     1      33.429   6.523  48.096  1.00  0.00    -0.219 NA
HETATM   12  C10 UNL     1      34.406   7.468  48.377  1.00  0.00     0.127 C 
HETATM   13  N3  UNL     1      35.341   6.595  48.625  1.00  0.00    -0.267 NA
HETATM   14  C11 UNL     1      34.610   9.032  48.400  1.00  0.00     0.133 C 
HETATM   15  C12 UNL     1      33.960   9.395  47.067  1.00  0.00     0.148 A 
HETATM   16  N4  UNL     1      34.523   9.577  45.857  1.00  0.00    -0.214 NA
HETATM   17  C13 UNL     1      33.419   9.212  44.988  1.00  0.00     0.042 A 
HETATM   18  C14 UNL     1      33.293   8.948  43.692  1.00  0.00     0.024 A 
HETATM   19  C15 UNL     1      32.189   8.134  43.361  1.00  0.00     0.004 A 
HETATM   20  C16 UNL     1      31.404   7.725  44.467  1.00  0.00     0.029 A 
HETATM   21  C17 UNL     1      31.924   8.259  45.662  1.00  0.00     0.060 A 
HETATM   22  C18 UNL     1      32.950   9.074  46.199  1.00  0.00     0.169 A 
HETATM   23  N5  UNL     1      32.750   9.024  47.426  1.00  0.00    -0.352 N 
HETATM   24  N6  UNL     1      31.325   7.260  46.585  1.00  0.00    -0.343 N 
HETATM   25  H26 UNL     1      30.326   7.024  46.705  1.00  0.00     0.167 HD
ENDROOT
BRANCH  23  26
HETATM   26  C19 UNL     1      31.879   8.929  48.537  1.00  0.00     0.160 C 
BRANCH  26  27
HETATM   27  C20 UNL     1      30.992  10.196  48.596  1.00  0.00    -0.041 A 
HETATM   28  C21 UNL     1      29.631   9.949  48.742  1.00  0.00     0.009 A 
HETATM   29  C22 UNL     1      28.637  10.908  48.836  1.00  0.00     0.001 A 
HETATM   30  C23 UNL     1      29.065  12.214  48.779  1.00  0.00     0.000 A 
HETATM   31  C24 UNL     1      30.414  12.499  48.634  1.00  0.00     0.001 A 
HETATM   32  C25 UNL     1      31.364  11.519  48.544  1.00  0.00     0.009 A 
ENDBRANCH  26  27
ENDBRANCH  23  26
TORSDOF 2
ENDMDL
MODEL 4
REMARK VINA RESULT:      -8.5      2.346      6.618
REMARK  2 active torsions:
REMARK  status: ('A' for Active; 'I' for Inactive)
REMARK    1  A    between atoms: N5_23  and  C19_24 
REMARK    2  A    between atoms: C19_24  and  C20_25 
ROOT
HETATM    1  C1  UNL     1      23.178   5.946  48.736  1.00  0.00     0.140 C 
HETATM    2  C2  UNL     1      22.584   5.968  47.578  1.00  0.00     0.023 C 
HETATM    3  C3  UNL     1      21.534   5.930  46.507  1.00  0.00    -0.005 C 
HETATM    4  C4  UNL     1      20.272   5.271  47.038  1.00  0.00     0.024 C 
HETATM    5  C5  UNL     1      20.558   3.881  47.562  1.00  0.00     0.117 C 
HETATM    6  N1  UNL     1      21.586   3.183  46.878  1.00  0.00    -0.406 N 
HETATM    7  C6  UNL     1      21.823   3.622  45.529  1.00  0.00     0.117 C 
HETATM    8  C7  UNL     1      22.025   5.087  45.351  1.00  0.00     0.024 C 
HETATM    9  C8  UNL     1      22.773   2.878  47.610  1.00  0.00     0.195 C 
HETATM   10  C9  UNL     1      22.456   2.859  49.086  1.00  0.00     0.123 C 
HETATM   11  N2  UNL     1      22.948   3.980  49.476  1.00  0.00    -0.219 NA
HETATM   12  C10 UNL     1      23.041   4.662  50.681  1.00  0.00     0.127 C 
HETATM   13  N3  UNL     1      23.177   5.837  50.137  1.00  0.00    -0.267 NA
HETATM   14  C11 UNL     1      22.974   4.393  52.234  1.00  0.00     0.133 C 
HETATM   15  C12 UNL     1      21.743   3.493  52.285  1.00  0.00     0.148 A 
HETATM   16  N4  UNL     1      20.455   3.809  52.523  1.00  0.00    -0.214 NA
HETATM   17  C13 UNL     1      19.778   2.757  51.788  1.00  0.00     0.042 A 
HETATM   18  C14 UNL     1      18.527   2.543  51.395  1.00  0.00     0.024 A 
HETATM   19  C15 UNL     1      18.398   1.696  50.274  1.00  0.00     0.004 A 
HETATM   20  C16 UNL     1      19.625   1.223  49.746  1.00  0.00     0.029 A 
HETATM   21  C17 UNL     1      20.707   1.717  50.502  1.00  0.00     0.060 A 
HETATM   22  C18 UNL     1      21.051   2.517  51.619  1.00  0.00     0.169 A 
HETATM   23  N5  UNL     1      22.295   2.507  51.613  1.00  0.00    -0.352 N 
HETATM   24  N6  UNL     1      21.747   1.570  49.451  1.00  0.00    -0.343 N 
HETATM   25  H26 UNL     1      22.025   0.711  48.948  1.00  0.00     0.167 HD
ENDROOT
BRANCH  23  26
HETATM   26  C19 UNL     1      23.527   1.860  51.361  1.00  0.00     0.160 C 
BRANCH  26  27
HETATM   27  C20 UNL     1      23.810   0.846  52.494  1.00  0.00    -0.041 A 
HETATM   28  C21 UNL     1      25.132   0.805  52.925  1.00  0.00     0.009 A 
HETATM   29  C22 UNL     1      25.634  -0.002  53.931  1.00  0.00     0.001 A 
HETATM   30  C23 UNL     1      24.719  -0.826  54.543  1.00  0.00     0.000 A 
HETATM   31  C24 UNL     1      23.392  -0.814  54.142  1.00  0.00     0.001 A 
HETATM   32  C25 UNL     1      22.938   0.001  53.140  1.00  0.00     0.009 A 
ENDBRANCH  26  27
ENDBRANCH  23  26
TORSDOF 2
ENDMDL
MODEL 5
REMARK VINA RESULT:      -8.4      2.686      6.317
REMARK  2 active torsions:
REMARK  status: ('A' for Active; 'I' for Inactive)
REMARK    1  A    between atoms: N5_23  and  C19_24 
REMARK    2  A    between atoms: C19_24  and  C20_25 
ROOT
HETATM    1  C1  UNL     1      19.748   6.732  49.521  1.00  0.00     0.140 C 
HETATM    2  C2  UNL     1      18.831   5.818  49.391  1.00  0.00     0.023 C 
HETATM    3  C3  UNL     1      17.984   4.598  49.609  1.00  0.00    -0.005 C 
HETATM    4  C4  UNL     1      18.719   3.604  50.492  1.00  0.00     0.024 C 
HETATM    5  C5  UNL     1      20.059   3.230  49.897  1.00  0.00     0.117 C 
HETATM    6  N1  UNL     1      20.100   3.209  48.480  1.00  0.00    -0.406 N 
HETATM    7  C6  UNL     1      18.828   3.011  47.839  1.00  0.00     0.117 C 
HETATM    8  C7  UNL     1      17.732   3.917  48.284  1.00  0.00     0.024 C 
HETATM    9  C8  UNL     1      20.938   4.167  47.833  1.00  0.00     0.195 C 
HETATM   10  C9  UNL     1      22.016   4.612  48.790  1.00  0.00     0.123 C 
HETATM   11  N2  UNL     1      21.592   5.772  49.145  1.00  0.00    -0.219 NA
HETATM   12  C10 UNL     1      22.035   6.778  49.993  1.00  0.00     0.127 C 
HETATM   13  N3  UNL     1      20.856   7.305  50.169  1.00  0.00    -0.267 NA
HETATM   14  C11 UNL     1      23.356   7.282  50.690  1.00  0.00     0.133 C 
HETATM   15  C12 UNL     1      23.902   5.951  51.199  1.00  0.00     0.148 A 
HETATM   16  N4  UNL     1      23.766   5.372  52.408  1.00  0.00    -0.214 NA
HETATM   17  C13 UNL     1      23.874   3.970  52.050  1.00  0.00     0.042 A 
HETATM   18  C14 UNL     1      23.629   2.821  52.671  1.00  0.00     0.024 A 
HETATM   19  C15 UNL     1      23.358   1.734  51.815  1.00  0.00     0.004 A 
HETATM   20  C16 UNL     1      23.379   2.049  50.433  1.00  0.00     0.029 A 
HETATM   21  C17 UNL     1      23.691   3.410  50.246  1.00  0.00     0.060 A 
HETATM   22  C18 UNL     1      24.008   4.615  50.922  1.00  0.00     0.169 A 
HETATM   23  N5  UNL     1      24.107   5.447  50.002  1.00  0.00    -0.352 N 
HETATM   24  N6  UNL     1      23.094   3.551  48.893  1.00  0.00    -0.343 N 
HETATM   25  H26 UNL     1      23.318   3.013  48.040  1.00  0.00     0.167 HD
ENDROOT
BRANCH  23  26
HETATM   26  C19 UNL     1      24.449   5.791  48.674  1.00  0.00     0.160 C 
BRANCH  26  27
HETATM   27  C20 UNL     1      25.990   5.811  48.535  1.00  0.00    -0.041 A 
HETATM   28  C21 UNL     1      26.518   7.012  48.073  1.00  0.00     0.009 A 
HETATM   29  C22 UNL     1      27.861   7.287  47.880  1.00  0.00     0.001 A 
HETATM   30  C23 UNL     1      28.727   6.262  48.181  1.00  0.00     0.000 A 
HETATM   31  C24 UNL     1      28.237   5.049  48.643  1.00  0.00     0.001 A 
HETATM   32  C25 UNL     1      26.900   4.820  48.819  1.00  0.00     0.009 A 
ENDBRANCH  26  27
ENDBRANCH  23  26
TORSDOF 2
ENDMDL
MODEL 6
REMARK VINA RESULT:      -8.2      7.893     10.945
REMARK  2 active torsions:
REMARK  status: ('A' for Active; 'I' for Inactive)
REMARK    1  A    between atoms: N5_23  and  C19_24 
REMARK    2  A    between atoms: C19_24  and  C20_25 
ROOT
HETATM    1  C1  UNL     1      33.927   7.652  46.348  1.00  0.00     0.140 C 
HETATM    2  C2  UNL     1      34.247   8.445  45.368  1.00  0.00     0.023 C 
HETATM    3  C3  UNL     1      34.444   9.670  44.523  1.00  0.00    -0.005 C 
HETATM    4  C4  UNL     1      33.553  10.796  45.022  1.00  0.00     0.024 C 
HETATM    5  C5  UNL     1      32.099  10.378  45.034  1.00  0.00     0.117 C 
HETATM    6  N1  UNL     1      31.728   9.471  44.009  1.00  0.00    -0.406 N 
HETATM    7  C6  UNL     1      32.571   9.495  42.844  1.00  0.00     0.117 C 
HETATM    8  C7  UNL     1      34.033   9.372  43.100  1.00  0.00     0.024 C 
HETATM    9  C8  UNL     1      31.317   8.163  44.406  1.00  0.00     0.195 C 
HETATM   10  C9  UNL     1      30.829   8.207  45.834  1.00  0.00     0.123 C 
HETATM   11  N2  UNL     1      31.818   7.686  46.468  1.00  0.00    -0.219 NA
HETATM   12  C10 UNL     1      32.111   7.397  47.794  1.00  0.00     0.127 C 
HETATM   13  N3  UNL     1      33.403   7.396  47.627  1.00  0.00    -0.267 NA
HETATM   14  C11 UNL     1      31.384   7.174  49.175  1.00  0.00     0.133 C 
HETATM   15  C12 UNL     1      30.409   8.349  49.144  1.00  0.00     0.148 A 
HETATM   16  N4  UNL     1      30.530   9.581  49.675  1.00  0.00    -0.214 NA
HETATM   17  C13 UNL     1      29.695  10.348  48.769  1.00  0.00     0.042 A 
HETATM   18  C14 UNL     1      29.505  11.643  48.538  1.00  0.00     0.024 A 
HETATM   19  C15 UNL     1      29.027  11.947  47.246  1.00  0.00     0.004 A 
HETATM   20  C16 UNL     1      28.839  10.822  46.405  1.00  0.00     0.029 A 
HETATM   21  C17 UNL     1      29.171   9.637  47.090  1.00  0.00     0.060 A 
HETATM   22  C18 UNL     1      29.625   9.121  48.329  1.00  0.00     0.169 A 
HETATM   23  N5  UNL     1      29.721   7.898  48.118  1.00  0.00    -0.352 N 
HETATM   24  N6  UNL     1      29.435   8.800  45.891  1.00  0.00    -0.343 N 
HETATM   25  H26 UNL     1      28.794   8.591  45.108  1.00  0.00     0.167 HD
ENDROOT
BRANCH  23  26
HETATM   26  C19 UNL     1      29.286   6.713  47.480  1.00  0.00     0.160 C 
BRANCH  26  27
HETATM   27  C20 UNL     1      27.966   6.240  48.134  1.00  0.00    -0.041 A 
HETATM   28  C21 UNL     1      27.968   4.916  48.562  1.00  0.00     0.009 A 
HETATM   29  C22 UNL     1      26.921   4.263  49.188  1.00  0.00     0.001 A 
HETATM   30  C23 UNL     1      25.789   5.017  49.394  1.00  0.00     0.000 A 
HETATM   31  C24 UNL     1      25.749   6.340  48.981  1.00  0.00     0.001 A 
HETATM   32  C25 UNL     1      26.809   6.947  48.364  1.00  0.00     0.009 A 
ENDBRANCH  26  27
ENDBRANCH  23  26
TORSDOF 2
ENDMDL
MODEL 7
REMARK VINA RESULT:      -8.1      4.611      7.224
REMARK  2 active torsions:
REMARK  status: ('A' for Active; 'I' for Inactive)
REMARK    1  A    between atoms: N5_23  and  C19_24 
REMARK    2  A    between atoms: C19_24  and  C20_25 
ROOT
HETATM    1  C1  UNL     1      26.608   4.397  49.256  1.00  0.00     0.140 C 
HETATM    2  C2  UNL     1      25.393   4.012  49.517  1.00  0.00     0.023 C 
HETATM    3  C3  UNL     1      23.915   3.773  49.419  1.00  0.00    -0.005 C 
HETATM    4  C4  UNL     1      23.296   4.736  48.420  1.00  0.00     0.024 C 
HETATM    5  C5  UNL     1      23.586   6.174  48.792  1.00  0.00     0.117 C 
HETATM    6  N1  UNL     1      23.669   6.426  50.185  1.00  0.00    -0.406 N 
HETATM    7  C6  UNL     1      22.969   5.482  51.015  1.00  0.00     0.117 C 
HETATM    8  C7  UNL     1      23.271   4.046  50.759  1.00  0.00     0.024 C 
HETATM    9  C8  UNL     1      24.934   6.835  50.705  1.00  0.00     0.195 C 
HETATM   10  C9  UNL     1      25.752   7.451  49.596  1.00  0.00     0.123 C 
HETATM   11  N2  UNL     1      26.583   6.509  49.327  1.00  0.00    -0.219 NA
HETATM   12  C10 UNL     1      27.630   6.329  48.432  1.00  0.00     0.127 C 
HETATM   13  N3  UNL     1      27.572   5.027  48.450  1.00  0.00    -0.267 NA
HETATM   14  C11 UNL     1      28.623   7.171  47.543  1.00  0.00     0.133 C 
HETATM   15  C12 UNL     1      27.641   8.171  46.938  1.00  0.00     0.148 A 
HETATM   16  N4  UNL     1      26.991   8.132  45.759  1.00  0.00    -0.214 NA
HETATM   17  C13 UNL     1      25.804   8.902  46.078  1.00  0.00     0.042 A 
HETATM   18  C14 UNL     1      24.631   9.106  45.488  1.00  0.00     0.024 A 
HETATM   19  C15 UNL     1      23.587   9.474  46.363  1.00  0.00     0.004 A 
HETATM   20  C16 UNL     1      23.960   9.555  47.728  1.00  0.00     0.029 A 
HETATM   21  C17 UNL     1      25.328   9.253  47.881  1.00  0.00     0.060 A 
HETATM   22  C18 UNL     1      26.507   8.899  47.179  1.00  0.00     0.169 A 
HETATM   23  N5  UNL     1      27.350   8.751  48.082  1.00  0.00    -0.352 N 
HETATM   24  N6  UNL     1      25.270   8.860  49.312  1.00  0.00    -0.343 N 
HETATM   25  H26 UNL     1      24.937   9.422  50.113  1.00  0.00     0.167 HD
ENDROOT
BRANCH  23  26
HETATM   26  C19 UNL     1      27.886   9.094  49.345  1.00  0.00     0.160 C 
BRANCH  26  27
HETATM   27  C20 UNL     1      28.859  10.286  49.176  1.00  0.00    -0.041 A 
HETATM   28  C21 UNL     1      28.244  11.519  48.989  1.00  0.00     0.009 A 
HETATM   29  C22 UNL     1      28.890  12.733  48.831  1.00  0.00     0.001 A 
HETATM   30  C23 UNL     1      30.264  12.684  48.868  1.00  0.00     0.000 A 
HETATM   31  C24 UNL     1      30.913  11.472  49.052  1.00  0.00     0.001 A 
HETATM   32  C25 UNL     1      30.234  10.294  49.204  1.00  0.00     0.009 A 
ENDBRANCH  26  27
ENDBRANCH  23  26
TORSDOF 2
ENDMDL
MODEL 8
REMARK VINA RESULT:      -7.9      2.057      7.291
REMARK  2 active torsions:
REMARK  status: ('A' for Active; 'I' for Inactive)
REMARK    1  A    between atoms: N5_23  and  C19_24 
REMARK    2  A    between atoms: C19_24  and  C20_25 
ROOT
HETATM    1  C1  UNL     1      20.805   4.443  47.413  1.00  0.00     0.140 C 
HETATM    2  C2  UNL     1      20.253   5.579  47.101  1.00  0.00     0.023 C 
HETATM    3  C3  UNL     1      20.053   7.019  46.727  1.00  0.00    -0.005 C 
HETATM    4  C4  UNL     1      21.301   7.821  47.056  1.00  0.00     0.024 C 
HETATM    5  C5  UNL     1      21.667   7.689  48.519  1.00  0.00     0.117 C 
HETATM    6  N1  UNL     1      20.566   7.543  49.401  1.00  0.00    -0.406 N 
HETATM    7  C6  UNL     1      19.319   8.060  48.905  1.00  0.00     0.117 C 
HETATM    8  C7  UNL     1      18.922   7.598  47.545  1.00  0.00     0.024 C 
HETATM    9  C8  UNL     1      20.447   6.307  50.105  1.00  0.00     0.195 C 
HETATM   10  C9  UNL     1      21.804   5.651  50.191  1.00  0.00     0.123 C 
HETATM   11  N2  UNL     1      21.709   4.728  49.302  1.00  0.00    -0.219 NA
HETATM   12  C10 UNL     1      22.539   3.732  48.807  1.00  0.00     0.127 C 
HETATM   13  N3  UNL     1      21.919   3.624  47.666  1.00  0.00    -0.267 NA
HETATM   14  C11 UNL     1      23.826   2.916  49.210  1.00  0.00     0.133 C 
HETATM   15  C12 UNL     1      24.700   4.055  49.728  1.00  0.00     0.148 A 
HETATM   16  N4  UNL     1      25.644   4.775  49.089  1.00  0.00    -0.214 NA
HETATM   17  C13 UNL     1      25.574   6.024  49.822  1.00  0.00     0.042 A 
HETATM   18  C14 UNL     1      26.046   7.252  49.632  1.00  0.00     0.024 A 
HETATM   19  C15 UNL     1      25.320   8.271  50.284  1.00  0.00     0.004 A 
HETATM   20  C16 UNL     1      24.200   7.817  51.024  1.00  0.00     0.029 A 
HETATM   21  C17 UNL     1      24.090   6.415  50.938  1.00  0.00     0.060 A 
HETATM   22  C18 UNL     1      24.687   5.253  50.392  1.00  0.00     0.169 A 
HETATM   23  N5  UNL     1      23.925   4.337  50.751  1.00  0.00    -0.352 N 
HETATM   24  N6  UNL     1      22.642   6.325  51.259  1.00  0.00    -0.343 N 
HETATM   25  H26 UNL     1      22.155   6.670  52.103  1.00  0.00     0.167 HD
ENDROOT
BRANCH  23  26
HETATM   26  C19 UNL     1      23.034   3.763  51.688  1.00  0.00     0.160 C 
BRANCH  26  27
HETATM   27  C20 UNL     1      23.744   2.595  52.413  1.00  0.00    -0.041 A 
HETATM   28  C21 UNL     1      23.020   1.408  52.456  1.00  0.00     0.009 A 
HETATM   29  C22 UNL     1      23.440   0.220  53.030  1.00  0.00     0.001 A 
HETATM   30  C23 UNL     1      24.691   0.247  53.601  1.00  0.00     0.000 A 
HETATM   31  C24 UNL     1      25.443   1.412  53.578  1.00  0.00     0.001 A 
HETATM   32  C25 UNL     1      24.988   2.565  53.000  1.00  0.00     0.009 A 
ENDBRANCH  26  27
ENDBRANCH  23  26
TORSDOF 2
ENDMDL
MODEL 9
REMARK VINA RESULT:      -7.8      2.345      3.767
REMARK  2 active torsions:
REMARK  status: ('A' for Active; 'I' for Inactive)
REMARK    1  A    between atoms: N5_23  and  C19_24 
REMARK    2  A    between atoms: C19_24  and  C20_25 
ROOT
HETATM    1  C1  UNL     1      24.044   2.585  51.476  1.00  0.00     0.140 C 
HETATM    2  C2  UNL     1      23.372   1.565  51.922  1.00  0.00     0.023 C 
HETATM    3  C3  UNL     1      22.454   0.380  52.004  1.00  0.00    -0.005 C 
HETATM    4  C4  UNL     1      21.487   0.388  50.832  1.00  0.00     0.024 C 
HETATM    5  C5  UNL     1      20.698   1.678  50.782  1.00  0.00     0.117 C 
HETATM    6  N1  UNL     1      20.413   2.255  52.045  1.00  0.00    -0.406 N 
HETATM    7  C6  UNL     1      20.418   1.332  53.148  1.00  0.00     0.117 C 
HETATM    8  C7  UNL     1      21.627   0.470  53.266  1.00  0.00     0.024 C 
HETATM    9  C8  UNL     1      21.006   3.519  52.339  1.00  0.00     0.195 C 
HETATM   10  C9  UNL     1      21.342   4.224  51.047  1.00  0.00     0.123 C 
HETATM   11  N2  UNL     1      22.614   4.059  50.979  1.00  0.00    -0.219 NA
HETATM   12  C10 UNL     1      23.618   4.415  50.089  1.00  0.00     0.127 C 
HETATM   13  N3  UNL     1      24.438   3.473  50.460  1.00  0.00    -0.267 NA
HETATM   14  C11 UNL     1      23.904   5.450  48.934  1.00  0.00     0.133 C 
HETATM   15  C12 UNL     1      22.594   5.337  48.159  1.00  0.00     0.148 A 
HETATM   16  N4  UNL     1      22.292   4.581  47.085  1.00  0.00    -0.214 NA
HETATM   17  C13 UNL     1      20.866   4.400  47.275  1.00  0.00     0.042 A 
HETATM   18  C14 UNL     1      19.942   3.607  46.742  1.00  0.00     0.024 A 
HETATM   19  C15 UNL     1      18.817   3.379  47.562  1.00  0.00     0.004 A 
HETATM   20  C16 UNL     1      18.863   4.024  48.823  1.00  0.00     0.029 A 
HETATM   21  C17 UNL     1      20.052   4.771  48.948  1.00  0.00     0.060 A 
HETATM   22  C18 UNL     1      21.244   5.143  48.280  1.00  0.00     0.169 A 
HETATM   23  N5  UNL     1      21.849   5.830  49.123  1.00  0.00    -0.352 N 
HETATM   24  N6  UNL     1      20.087   4.813  50.432  1.00  0.00    -0.343 N 
HETATM   25  H26 UNL     1      19.366   5.179  51.076  1.00  0.00     0.167 HD
ENDROOT
BRANCH  23  26
HETATM   26  C19 UNL     1      21.854   6.743  50.203  1.00  0.00     0.160 C 
BRANCH  26  27
HETATM   27  C20 UNL     1      21.386   8.129  49.699  1.00  0.00    -0.041 A 
HETATM   28  C21 UNL     1      20.097   8.485  50.083  1.00  0.00     0.009 A 
HETATM   29  C22 UNL     1      19.457   9.673  49.774  1.00  0.00     0.001 A 
HETATM   30  C23 UNL     1      20.186  10.562  49.020  1.00  0.00     0.000 A 
HETATM   31  C24 UNL     1      21.475  10.242  48.619  1.00  0.00     0.001 A 
HETATM   32  C25 UNL     1      22.070   9.055  48.946  1.00  0.00     0.009 A 
ENDBRANCH  26  27
ENDBRANCH  23  26
TORSDOF 2
ENDMDL
