MODEL 1
REMARK VINA RESULT:      -8.1      0.000      0.000
REMARK  5 active torsions:
REMARK  status: ('A' for Active; 'I' for Inactive)
REMARK    1  A    between atoms: O1_2  and  C2_3 
REMARK    2  A    between atoms: C5_6  and  C6_7 
REMARK    3  A    between atoms: N3_15  and  C12_16 
REMARK    4  A    between atoms: C12_16  and  C13_17 
REMARK    5  A    between atoms: C20_27  and  O4_28 
ROOT
HETATM    1  C13 UNL     1      20.096  -0.350  53.826  1.00  0.00     0.144 C 
HETATM    2  C14 UNL     1      21.037  -1.254  54.462  1.00  0.00     0.060 C 
HETATM    3  N4  UNL     1      21.801  -1.965  54.959  1.00  0.00    -0.197 NA
ENDROOT
BRANCH   1   4
HETATM    4  C12 UNL     1      20.674   0.939  53.364  1.00  0.00     0.145 C 
BRANCH   4   5
HETATM    5  N3  UNL     1      21.215   0.937  52.062  1.00  0.00    -0.325 N 
HETATM    6  C11 UNL     1      22.619   0.591  52.208  1.00  0.00     0.107 C 
HETATM    7  C10 UNL     1      23.132   1.258  51.115  1.00  0.00     0.007 C 
HETATM    8  C9  UNL     1      23.072   2.551  51.626  1.00  0.00     0.035 A 
HETATM    9  C6  UNL     1      24.111   2.715  52.506  1.00  0.00     0.082 A 
HETATM   10  C8  UNL     1      22.145   3.508  51.484  1.00  0.00     0.070 A 
HETATM   11  N1  UNL     1      24.261   3.819  53.274  1.00  0.00    -0.240 NA
HETATM   12  C7  UNL     1      23.343   4.781  53.151  1.00  0.00     0.234 A 
HETATM   13  N2  UNL     1      22.380   4.543  52.279  1.00  0.00    -0.241 NA
HETATM   14  C18 UNL     1      21.038   3.891  50.778  1.00  0.00     0.032 C 
HETATM   15  C17 UNL     1      20.208   3.299  49.729  1.00  0.00     0.198 C 
HETATM   16  O3  UNL     1      18.895   2.933  50.167  1.00  0.00    -0.378 OA
HETATM   17  C16 UNL     1      19.140   2.292  51.452  1.00  0.00     0.271 C 
HETATM   18  C15 UNL     1      20.321   1.459  51.113  1.00  0.00     0.247 C 
HETATM   19  O2  UNL     1      21.069   0.882  50.305  1.00  0.00    -0.271 OA
BRANCH   9  20
HETATM   20  C5  UNL     1      25.153   1.714  52.698  1.00  0.00    -0.004 A 
HETATM   21  C4  UNL     1      26.083   1.349  51.748  1.00  0.00     0.017 A 
HETATM   22  C3  UNL     1      27.054   0.399  51.955  1.00  0.00     0.040 A 
HETATM   23  C2  UNL     1      27.078  -0.210  53.192  1.00  0.00     0.101 A 
HETATM   24  C20 UNL     1      26.166   0.124  54.173  1.00  0.00     0.102 A 
HETATM   25  C19 UNL     1      25.209   1.076  53.936  1.00  0.00     0.053 A 
BRANCH  23  26
HETATM   26  O1  UNL     1      28.022  -1.181  53.492  1.00  0.00    -0.353 OA
HETATM   27  C1  UNL     1      29.402  -0.976  53.565  1.00  0.00     0.210 C 
ENDBRANCH  23  26
BRANCH  24  28
HETATM   28  O4  UNL     1      26.231  -0.520  55.407  1.00  0.00    -0.353 OA
HETATM   29  C21 UNL     1      25.122  -1.018  56.085  1.00  0.00     0.210 C 
ENDBRANCH  24  28
ENDBRANCH   9  20
ENDBRANCH   4   5
ENDBRANCH   1   4
TORSDOF 5
ENDMDL
MODEL 2
REMARK VINA RESULT:      -7.7      3.034      4.960
REMARK  5 active torsions:
REMARK  status: ('A' for Active; 'I' for Inactive)
REMARK    1  A    between atoms: O1_2  and  C2_3 
REMARK    2  A    between atoms: C5_6  and  C6_7 
REMARK    3  A    between atoms: N3_15  and  C12_16 
REMARK    4  A    between atoms: C12_16  and  C13_17 
REMARK    5  A    between atoms: C20_27  and  O4_28 
ROOT
HETATM    1  C13 UNL     1      26.368   4.301  49.200  1.00  0.00     0.144 C 
HETATM    2  C14 UNL     1      27.586   4.880  48.666  1.00  0.00     0.060 C 
HETATM    3  N4  UNL     1      28.546   5.354  48.229  1.00  0.00    -0.197 NA
ENDROOT
BRANCH   1   4
HETATM    4  C12 UNL     1      25.204   5.224  49.261  1.00  0.00     0.145 C 
BRANCH   4   5
HETATM    5  N3  UNL     1      24.583   5.346  50.520  1.00  0.00    -0.325 N 
HETATM    6  C11 UNL     1      24.957   4.161  51.273  1.00  0.00     0.107 C 
HETATM    7  C10 UNL     1      23.849   4.047  52.085  1.00  0.00     0.007 C 
HETATM    8  C9  UNL     1      22.958   3.549  51.138  1.00  0.00     0.035 A 
HETATM    9  C6  UNL     1      23.238   2.222  50.940  1.00  0.00     0.082 A 
HETATM   10  C8  UNL     1      22.050   4.173  50.376  1.00  0.00     0.070 A 
HETATM   11  N1  UNL     1      22.637   1.474  49.985  1.00  0.00    -0.240 NA
HETATM   12  C7  UNL     1      21.733   2.080  49.211  1.00  0.00     0.234 A 
HETATM   13  N2  UNL     1      21.523   3.358  49.473  1.00  0.00    -0.241 NA
HETATM   14  C18 UNL     1      21.374   5.345  50.182  1.00  0.00     0.032 C 
HETATM   15  C17 UNL     1      21.389   6.676  50.790  1.00  0.00     0.198 C 
HETATM   16  O3  UNL     1      21.919   7.697  49.936  1.00  0.00    -0.378 OA
HETATM   17  C16 UNL     1      23.098   7.066  49.358  1.00  0.00     0.271 C 
HETATM   18  C15 UNL     1      23.668   6.412  50.562  1.00  0.00     0.247 C 
HETATM   19  O2  UNL     1      23.788   6.275  51.792  1.00  0.00    -0.271 OA
BRANCH   9  20
HETATM   20  C5  UNL     1      24.210   1.488  51.742  1.00  0.00    -0.004 A 
HETATM   21  C4  UNL     1      25.565   1.441  51.495  1.00  0.00     0.017 A 
HETATM   22  C3  UNL     1      26.459   0.739  52.267  1.00  0.00     0.040 A 
HETATM   23  C2  UNL     1      25.945   0.049  53.345  1.00  0.00     0.101 A 
HETATM   24  C20 UNL     1      24.595   0.067  53.629  1.00  0.00     0.102 A 
HETATM   25  C19 UNL     1      23.728   0.778  52.840  1.00  0.00     0.053 A 
BRANCH  23  26
HETATM   26  O1  UNL     1      26.771  -0.689  54.180  1.00  0.00    -0.353 OA
HETATM   27  C1  UNL     1      27.928  -0.213  54.803  1.00  0.00     0.210 C 
ENDBRANCH  23  26
BRANCH  24  28
HETATM   28  O4  UNL     1      24.124  -0.647  54.730  1.00  0.00    -0.353 OA
HETATM   29  C21 UNL     1      22.839  -1.175  54.823  1.00  0.00     0.210 C 
ENDBRANCH  24  28
ENDBRANCH   9  20
ENDBRANCH   4   5
ENDBRANCH   1   4
TORSDOF 5
ENDMDL
MODEL 3
REMARK VINA RESULT:      -7.5      2.444      3.340
REMARK  5 active torsions:
REMARK  status: ('A' for Active; 'I' for Inactive)
REMARK    1  A    between atoms: O1_2  and  C2_3 
REMARK    2  A    between atoms: C5_6  and  C6_7 
REMARK    3  A    between atoms: N3_15  and  C12_16 
REMARK    4  A    between atoms: C12_16  and  C13_17 
REMARK    5  A    between atoms: C20_27  and  O4_28 
ROOT
HETATM    1  C13 UNL     1      20.134   1.732  50.699  1.00  0.00     0.144 C 
HETATM    2  C14 UNL     1      19.393   2.715  51.469  1.00  0.00     0.060 C 
HETATM    3  N4  UNL     1      18.806   3.510  52.067  1.00  0.00    -0.197 NA
ENDROOT
BRANCH   1   4
HETATM    4  C12 UNL     1      20.046   1.889  49.224  1.00  0.00     0.145 C 
BRANCH   4   5
HETATM    5  N3  UNL     1      21.255   2.191  48.566  1.00  0.00    -0.325 N 
HETATM    6  C11 UNL     1      22.319   1.729  49.441  1.00  0.00     0.107 C 
HETATM    7  C10 UNL     1      23.308   2.623  49.088  1.00  0.00     0.007 C 
HETATM    8  C9  UNL     1      22.814   3.740  49.756  1.00  0.00     0.035 A 
HETATM    9  C6  UNL     1      23.092   3.602  51.091  1.00  0.00     0.082 A 
HETATM   10  C8  UNL     1      22.060   4.758  49.321  1.00  0.00     0.070 A 
HETATM   11  N1  UNL     1      22.632   4.456  52.034  1.00  0.00    -0.240 NA
HETATM   12  C7  UNL     1      21.873   5.475  51.621  1.00  0.00     0.234 A 
HETATM   13  N2  UNL     1      21.658   5.534  50.319  1.00  0.00    -0.241 NA
HETATM   14  C18 UNL     1      21.563   5.383  48.211  1.00  0.00     0.032 C 
HETATM   15  C17 UNL     1      21.598   5.139  46.768  1.00  0.00     0.198 C 
HETATM   16  O3  UNL     1      20.334   4.757  46.215  1.00  0.00    -0.378 OA
HETATM   17  C16 UNL     1      19.828   3.789  47.179  1.00  0.00     0.271 C 
HETATM   18  C15 UNL     1      21.058   2.998  47.433  1.00  0.00     0.247 C 
HETATM   19  O2  UNL     1      22.199   2.604  47.134  1.00  0.00    -0.271 OA
BRANCH   9  20
HETATM   20  C5  UNL     1      23.913   2.520  51.622  1.00  0.00    -0.004 A 
HETATM   21  C4  UNL     1      25.253   2.339  51.354  1.00  0.00     0.017 A 
HETATM   22  C3  UNL     1      26.003   1.308  51.867  1.00  0.00     0.040 A 
HETATM   23  C2  UNL     1      25.353   0.416  52.694  1.00  0.00     0.101 A 
HETATM   24  C20 UNL     1      24.013   0.558  52.990  1.00  0.00     0.102 A 
HETATM   25  C19 UNL     1      23.292   1.598  52.462  1.00  0.00     0.053 A 
BRANCH  23  26
HETATM   26  O1  UNL     1      26.029  -0.656  53.257  1.00  0.00    -0.353 OA
HETATM   27  C1  UNL     1      26.717  -1.644  52.549  1.00  0.00     0.210 C 
ENDBRANCH  23  26
BRANCH  24  28
HETATM   28  O4  UNL     1      23.402  -0.370  53.831  1.00  0.00    -0.353 OA
HETATM   29  C21 UNL     1      22.257  -1.088  53.497  1.00  0.00     0.210 C 
ENDBRANCH  24  28
ENDBRANCH   9  20
ENDBRANCH   4   5
ENDBRANCH   1   4
TORSDOF 5
ENDMDL
MODEL 4
REMARK VINA RESULT:      -7.5      2.761      4.083
REMARK  5 active torsions:
REMARK  status: ('A' for Active; 'I' for Inactive)
REMARK    1  A    between atoms: O1_2  and  C2_3 
REMARK    2  A    between atoms: C5_6  and  C6_7 
REMARK    3  A    between atoms: N3_15  and  C12_16 
REMARK    4  A    between atoms: C12_16  and  C13_17 
REMARK    5  A    between atoms: C20_27  and  O4_28 
ROOT
HETATM    1  C13 UNL     1      22.547   1.976  48.850  1.00  0.00     0.144 C 
HETATM    2  C14 UNL     1      21.105   1.902  49.001  1.00  0.00     0.060 C 
HETATM    3  N4  UNL     1      19.956   1.862  49.121  1.00  0.00    -0.197 NA
ENDROOT
BRANCH   1   4
HETATM    4  C12 UNL     1      23.051   3.217  48.204  1.00  0.00     0.145 C 
BRANCH   4   5
HETATM    5  N3  UNL     1      23.881   4.030  49.002  1.00  0.00    -0.325 N 
HETATM    6  C11 UNL     1      24.425   3.164  50.034  1.00  0.00     0.107 C 
HETATM    7  C10 UNL     1      24.595   4.090  51.042  1.00  0.00     0.007 C 
HETATM    8  C9  UNL     1      23.261   4.224  51.416  1.00  0.00     0.035 A 
HETATM    9  C6  UNL     1      22.911   3.130  52.164  1.00  0.00     0.082 A 
HETATM   10  C8  UNL     1      22.337   5.126  51.058  1.00  0.00     0.070 A 
HETATM   11  N1  UNL     1      21.643   2.890  52.573  1.00  0.00    -0.240 NA
HETATM   12  C7  UNL     1      20.707   3.774  52.221  1.00  0.00     0.234 A 
HETATM   13  N2  UNL     1      21.132   4.800  51.504  1.00  0.00    -0.241 NA
HETATM   14  C18 UNL     1      22.135   6.330  50.441  1.00  0.00     0.032 C 
HETATM   15  C17 UNL     1      22.973   7.298  49.733  1.00  0.00     0.198 C 
HETATM   16  O3  UNL     1      22.714   7.368  48.326  1.00  0.00    -0.378 OA
HETATM   17  C16 UNL     1      22.605   5.968  47.939  1.00  0.00     0.271 C 
HETATM   18  C15 UNL     1      23.749   5.393  48.691  1.00  0.00     0.247 C 
HETATM   19  O2  UNL     1      24.830   5.487  49.297  1.00  0.00    -0.271 OA
BRANCH   9  20
HETATM   20  C5  UNL     1      23.872   2.120  52.590  1.00  0.00    -0.004 A 
HETATM   21  C4  UNL     1      23.726   0.762  52.405  1.00  0.00     0.017 A 
HETATM   22  C3  UNL     1      24.649  -0.169  52.820  1.00  0.00     0.040 A 
HETATM   23  C2  UNL     1      25.775   0.309  53.455  1.00  0.00     0.101 A 
HETATM   24  C20 UNL     1      25.962   1.660  53.662  1.00  0.00     0.102 A 
HETATM   25  C19 UNL     1      25.024   2.564  53.236  1.00  0.00     0.053 A 
BRANCH  23  26
HETATM   26  O1  UNL     1      26.759  -0.556  53.909  1.00  0.00    -0.353 OA
HETATM   27  C1  UNL     1      27.656  -1.261  53.101  1.00  0.00     0.210 C 
ENDBRANCH  23  26
BRANCH  24  28
HETATM   28  O4  UNL     1      27.118   2.094  54.309  1.00  0.00    -0.353 OA
HETATM   29  C21 UNL     1      28.305   2.409  53.654  1.00  0.00     0.210 C 
ENDBRANCH  24  28
ENDBRANCH   9  20
ENDBRANCH   4   5
ENDBRANCH   1   4
TORSDOF 5
ENDMDL
MODEL 5
REMARK VINA RESULT:      -7.5      3.795      5.989
REMARK  5 active torsions:
REMARK  status: ('A' for Active; 'I' for Inactive)
REMARK    1  A    between atoms: O1_2  and  C2_3 
REMARK    2  A    between atoms: C5_6  and  C6_7 
REMARK    3  A    between atoms: N3_15  and  C12_16 
REMARK    4  A    between atoms: C12_16  and  C13_17 
REMARK    5  A    between atoms: C20_27  and  O4_28 
ROOT
HETATM    1  C13 UNL     1      21.308   5.084  51.227  1.00  0.00     0.144 C 
HETATM    2  C14 UNL     1      20.412   5.039  50.087  1.00  0.00     0.060 C 
HETATM    3  N4  UNL     1      19.696   4.983  49.180  1.00  0.00    -0.197 NA
ENDROOT
BRANCH   1   4
HETATM    4  C12 UNL     1      21.112   4.002  52.227  1.00  0.00     0.145 C 
BRANCH   4   5
HETATM    5  N3  UNL     1      22.171   3.080  52.349  1.00  0.00    -0.325 N 
HETATM    6  C11 UNL     1      23.296   3.659  51.635  1.00  0.00     0.107 C 
HETATM    7  C10 UNL     1      23.938   2.501  51.245  1.00  0.00     0.007 C 
HETATM    8  C9  UNL     1      23.071   2.130  50.220  1.00  0.00     0.035 A 
HETATM    9  C6  UNL     1      23.332   2.919  49.129  1.00  0.00     0.082 A 
HETATM   10  C8  UNL     1      22.034   1.283  50.213  1.00  0.00     0.070 A 
HETATM   11  N1  UNL     1      22.577   2.900  48.006  1.00  0.00    -0.240 NA
HETATM   12  C7  UNL     1      21.534   2.066  47.983  1.00  0.00     0.234 A 
HETATM   13  N2  UNL     1      21.358   1.342  49.074  1.00  0.00    -0.241 NA
HETATM   14  C18 UNL     1      21.395   0.297  50.913  1.00  0.00     0.032 C 
HETATM   15  C17 UNL     1      21.562  -0.334  52.223  1.00  0.00     0.198 C 
HETATM   16  O3  UNL     1      20.521  -0.017  53.155  1.00  0.00    -0.378 OA
HETATM   17  C16 UNL     1      20.338   1.417  52.973  1.00  0.00     0.271 C 
HETATM   18  C15 UNL     1      21.753   1.860  52.907  1.00  0.00     0.247 C 
HETATM   19  O2  UNL     1      22.970   1.703  53.110  1.00  0.00    -0.271 OA
BRANCH   9  20
HETATM   20  C5  UNL     1      24.451   3.852  49.075  1.00  0.00    -0.004 A 
HETATM   21  C4  UNL     1      25.770   3.520  49.296  1.00  0.00     0.017 A 
HETATM   22  C3  UNL     1      26.805   4.422  49.241  1.00  0.00     0.040 A 
HETATM   23  C2  UNL     1      26.478   5.729  48.946  1.00  0.00     0.101 A 
HETATM   24  C20 UNL     1      25.171   6.107  48.718  1.00  0.00     0.102 A 
HETATM   25  C19 UNL     1      24.160   5.183  48.780  1.00  0.00     0.053 A 
BRANCH  23  26
HETATM   26  O1  UNL     1      27.457   6.709  48.870  1.00  0.00    -0.353 OA
HETATM   27  C1  UNL     1      28.526   6.720  47.970  1.00  0.00     0.210 C 
ENDBRANCH  23  26
BRANCH  24  28
HETATM   28  O4  UNL     1      24.892   7.440  48.424  1.00  0.00    -0.353 OA
HETATM   29  C21 UNL     1      24.241   8.310  49.295  1.00  0.00     0.210 C 
ENDBRANCH  24  28
ENDBRANCH   9  20
ENDBRANCH   4   5
ENDBRANCH   1   4
TORSDOF 5
ENDMDL
MODEL 6
REMARK VINA RESULT:      -7.3      2.156      3.439
REMARK  5 active torsions:
REMARK  status: ('A' for Active; 'I' for Inactive)
REMARK    1  A    between atoms: O1_2  and  C2_3 
REMARK    2  A    between atoms: C5_6  and  C6_7 
REMARK    3  A    between atoms: N3_15  and  C12_16 
REMARK    4  A    between atoms: C12_16  and  C13_17 
REMARK    5  A    between atoms: C20_27  and  O4_28 
ROOT
HETATM    1  C13 UNL     1      22.135   4.781  52.208  1.00  0.00     0.144 C 
HETATM    2  C14 UNL     1      22.041   6.005  51.435  1.00  0.00     0.060 C 
HETATM    3  N4  UNL     1      21.954   6.971  50.805  1.00  0.00    -0.197 NA
ENDROOT
BRANCH   1   4
HETATM    4  C12 UNL     1      20.974   3.862  52.079  1.00  0.00     0.145 C 
BRANCH   4   5
HETATM    5  N3  UNL     1      21.241   2.620  51.468  1.00  0.00    -0.325 N 
HETATM    6  C11 UNL     1      22.463   2.123  52.076  1.00  0.00     0.107 C 
HETATM    7  C10 UNL     1      22.954   1.378  51.024  1.00  0.00     0.007 C 
HETATM    8  C9  UNL     1      23.404   2.429  50.230  1.00  0.00     0.035 A 
HETATM    9  C6  UNL     1      24.582   2.893  50.756  1.00  0.00     0.082 A 
HETATM   10  C8  UNL     1      22.820   3.064  49.205  1.00  0.00     0.070 A 
HETATM   11  N1  UNL     1      25.213   3.997  50.293  1.00  0.00    -0.240 NA
HETATM   12  C7  UNL     1      24.643   4.648  49.276  1.00  0.00     0.234 A 
HETATM   13  N2  UNL     1      23.513   4.130  48.829  1.00  0.00    -0.241 NA
HETATM   14  C18 UNL     1      21.784   3.025  48.313  1.00  0.00     0.032 C 
HETATM   15  C17 UNL     1      20.633   2.152  48.084  1.00  0.00     0.198 C 
HETATM   16  O3  UNL     1      19.374   2.761  48.393  1.00  0.00    -0.378 OA
HETATM   17  C16 UNL     1      19.631   3.431  49.660  1.00  0.00     0.271 C 
HETATM   18  C15 UNL     1      20.402   2.377  50.367  1.00  0.00     0.247 C 
HETATM   19  O2  UNL     1      20.768   1.201  50.532  1.00  0.00    -0.271 OA
BRANCH   9  20
HETATM   20  C5  UNL     1      25.267   2.240  51.864  1.00  0.00    -0.004 A 
HETATM   21  C4  UNL     1      25.280   2.695  53.165  1.00  0.00     0.017 A 
HETATM   22  C3  UNL     1      25.937   2.060  54.191  1.00  0.00     0.040 A 
HETATM   23  C2  UNL     1      26.617   0.902  53.874  1.00  0.00     0.101 A 
HETATM   24  C20 UNL     1      26.631   0.410  52.585  1.00  0.00     0.102 A 
HETATM   25  C19 UNL     1      25.965   1.067  51.583  1.00  0.00     0.053 A 
BRANCH  23  26
HETATM   26  O1  UNL     1      27.309   0.194  54.845  1.00  0.00    -0.353 OA
HETATM   27  C1  UNL     1      28.699   0.141  54.974  1.00  0.00     0.210 C 
ENDBRANCH  23  26
BRANCH  24  28
HETATM   28  O4  UNL     1      27.332  -0.764  52.316  1.00  0.00    -0.353 OA
HETATM   29  C21 UNL     1      26.776  -2.038  52.393  1.00  0.00     0.210 C 
ENDBRANCH  24  28
ENDBRANCH   9  20
ENDBRANCH   4   5
ENDBRANCH   1   4
TORSDOF 5
ENDMDL
MODEL 7
REMARK VINA RESULT:      -7.3      2.981      5.761
REMARK  5 active torsions:
REMARK  status: ('A' for Active; 'I' for Inactive)
REMARK    1  A    between atoms: O1_2  and  C2_3 
REMARK    2  A    between atoms: C5_6  and  C6_7 
REMARK    3  A    between atoms: N3_15  and  C12_16 
REMARK    4  A    between atoms: C12_16  and  C13_17 
REMARK    5  A    between atoms: C20_27  and  O4_28 
ROOT
HETATM    1  C13 UNL     1      24.069   2.511  52.795  1.00  0.00     0.144 C 
HETATM    2  C14 UNL     1      25.306   2.303  53.524  1.00  0.00     0.060 C 
HETATM    3  N4  UNL     1      26.302   2.148  54.091  1.00  0.00    -0.197 NA
ENDROOT
BRANCH   1   4
HETATM    4  C12 UNL     1      24.042   3.717  51.927  1.00  0.00     0.145 C 
BRANCH   4   5
HETATM    5  N3  UNL     1      22.779   4.314  51.746  1.00  0.00    -0.325 N 
HETATM    6  C11 UNL     1      21.797   3.283  52.037  1.00  0.00     0.107 C 
HETATM    7  C10 UNL     1      20.771   3.707  51.218  1.00  0.00     0.007 C 
HETATM    8  C9  UNL     1      21.306   3.297  50.000  1.00  0.00     0.035 A 
HETATM    9  C6  UNL     1      21.142   1.940  49.894  1.00  0.00     0.082 A 
HETATM   10  C8  UNL     1      22.009   3.971  49.081  1.00  0.00     0.070 A 
HETATM   11  N1  UNL     1      21.670   1.209  48.884  1.00  0.00    -0.240 NA
HETATM   12  C7  UNL     1      22.379   1.863  47.960  1.00  0.00     0.234 A 
HETATM   13  N2  UNL     1      22.484   3.168  48.139  1.00  0.00    -0.241 NA
HETATM   14  C18 UNL     1      22.404   5.214  48.670  1.00  0.00     0.032 C 
HETATM   15  C17 UNL     1      22.252   6.580  49.171  1.00  0.00     0.198 C 
HETATM   16  O3  UNL     1      23.470   7.160  49.652  1.00  0.00    -0.378 OA
HETATM   17  C16 UNL     1      24.066   6.082  50.430  1.00  0.00     0.271 C 
HETATM   18  C15 UNL     1      22.871   5.587  51.157  1.00  0.00     0.247 C 
HETATM   19  O2  UNL     1      21.714   5.713  51.595  1.00  0.00    -0.271 OA
BRANCH   9  20
HETATM   20  C5  UNL     1      20.381   1.155  50.858  1.00  0.00    -0.004 A 
HETATM   21  C4  UNL     1      19.006   1.106  50.928  1.00  0.00     0.017 A 
HETATM   22  C3  UNL     1      18.313   0.358  51.850  1.00  0.00     0.040 A 
HETATM   23  C2  UNL     1      19.062  -0.376  52.746  1.00  0.00     0.101 A 
HETATM   24  C20 UNL     1      20.441  -0.356  52.713  1.00  0.00     0.102 A 
HETATM   25  C19 UNL     1      21.103   0.400  51.780  1.00  0.00     0.053 A 
BRANCH  23  26
HETATM   26  O1  UNL     1      18.450  -1.160  53.713  1.00  0.00    -0.353 OA
HETATM   27  C1  UNL     1      17.837  -2.394  53.488  1.00  0.00     0.210 C 
ENDBRANCH  23  26
BRANCH  24  28
HETATM   28  O4  UNL     1      21.153  -1.116  53.640  1.00  0.00    -0.353 OA
HETATM   29  C21 UNL     1      21.705  -0.600  54.809  1.00  0.00     0.210 C 
ENDBRANCH  24  28
ENDBRANCH   9  20
ENDBRANCH   4   5
ENDBRANCH   1   4
TORSDOF 5
ENDMDL
MODEL 8
REMARK VINA RESULT:      -7.2      9.817     12.696
REMARK  5 active torsions:
REMARK  status: ('A' for Active; 'I' for Inactive)
REMARK    1  A    between atoms: O1_2  and  C2_3 
REMARK    2  A    between atoms: C5_6  and  C6_7 
REMARK    3  A    between atoms: N3_15  and  C12_16 
REMARK    4  A    between atoms: C12_16  and  C13_17 
REMARK    5  A    between atoms: C20_27  and  O4_28 
ROOT
HETATM    1  C13 UNL     1      28.956   5.971  48.100  1.00  0.00     0.144 C 
HETATM    2  C14 UNL     1      27.858   5.152  48.580  1.00  0.00     0.060 C 
HETATM    3  N4  UNL     1      26.992   4.485  48.955  1.00  0.00    -0.197 NA
ENDROOT
BRANCH   1   4
HETATM    4  C12 UNL     1      30.274   5.286  48.040  1.00  0.00     0.145 C 
BRANCH   4   5
HETATM    5  N3  UNL     1      31.367   6.013  48.552  1.00  0.00    -0.325 N 
HETATM    6  C11 UNL     1      30.916   7.389  48.676  1.00  0.00     0.107 C 
HETATM    7  C10 UNL     1      32.119   8.040  48.499  1.00  0.00     0.007 C 
HETATM    8  C9  UNL     1      32.236   7.870  47.122  1.00  0.00     0.035 A 
HETATM    9  C6  UNL     1      31.397   8.762  46.506  1.00  0.00     0.082 A 
HETATM   10  C8  UNL     1      32.893   6.949  46.405  1.00  0.00     0.070 A 
HETATM   11  N1  UNL     1      31.176   8.768  45.170  1.00  0.00    -0.240 NA
HETATM   12  C7  UNL     1      31.818   7.853  44.439  1.00  0.00     0.234 A 
HETATM   13  N2  UNL     1      32.608   7.036  45.113  1.00  0.00    -0.241 NA
HETATM   14  C18 UNL     1      33.824   5.949  46.461  1.00  0.00     0.032 C 
HETATM   15  C17 UNL     1      34.601   5.299  47.516  1.00  0.00     0.198 C 
HETATM   16  O3  UNL     1      34.210   3.946  47.774  1.00  0.00    -0.378 OA
HETATM   17  C16 UNL     1      32.755   4.016  47.778  1.00  0.00     0.271 C 
HETATM   18  C15 UNL     1      32.550   5.255  48.569  1.00  0.00     0.247 C 
HETATM   19  O2  UNL     1      32.927   6.130  49.367  1.00  0.00    -0.271 OA
BRANCH   9  20
HETATM   20  C5  UNL     1      30.662   9.791  47.231  1.00  0.00    -0.004 A 
HETATM   21  C4  UNL     1      31.236  10.864  47.879  1.00  0.00     0.017 A 
HETATM   22  C3  UNL     1      30.519  11.820  48.558  1.00  0.00     0.040 A 
HETATM   23  C2  UNL     1      29.148  11.673  48.579  1.00  0.00     0.101 A 
HETATM   24  C20 UNL     1      28.531  10.614  47.945  1.00  0.00     0.102 A 
HETATM   25  C19 UNL     1      29.274   9.677  47.275  1.00  0.00     0.053 A 
BRANCH  23  26
HETATM   26  O1  UNL     1      28.342  12.588  49.241  1.00  0.00    -0.353 OA
HETATM   27  C1  UNL     1      27.728  13.699  48.658  1.00  0.00     0.210 C 
ENDBRANCH  23  26
BRANCH  24  28
HETATM   28  O4  UNL     1      27.142  10.509  47.996  1.00  0.00    -0.353 OA
HETATM   29  C21 UNL     1      26.363   9.987  46.966  1.00  0.00     0.210 C 
ENDBRANCH  24  28
ENDBRANCH   9  20
ENDBRANCH   4   5
ENDBRANCH   1   4
TORSDOF 5
ENDMDL
MODEL 9
REMARK VINA RESULT:      -6.9      9.521     11.223
REMARK  5 active torsions:
REMARK  status: ('A' for Active; 'I' for Inactive)
REMARK    1  A    between atoms: O1_2  and  C2_3 
REMARK    2  A    between atoms: C5_6  and  C6_7 
REMARK    3  A    between atoms: N3_15  and  C12_16 
REMARK    4  A    between atoms: C12_16  and  C13_17 
REMARK    5  A    between atoms: C20_27  and  O4_28 
ROOT
HETATM    1  C13 UNL     1      28.459   6.007  48.167  1.00  0.00     0.144 C 
HETATM    2  C14 UNL     1      27.767   4.844  48.691  1.00  0.00     0.060 C 
HETATM    3  N4  UNL     1      27.205   3.929  49.119  1.00  0.00    -0.197 NA
ENDROOT
BRANCH   1   4
HETATM    4  C12 UNL     1      27.657   7.259  48.139  1.00  0.00     0.145 C 
BRANCH   4   5
HETATM    5  N3  UNL     1      28.113   8.259  47.258  1.00  0.00    -0.325 N 
HETATM    6  C11 UNL     1      29.202   7.667  46.500  1.00  0.00     0.107 C 
HETATM    7  C10 UNL     1      29.945   8.801  46.245  1.00  0.00     0.007 C 
HETATM    8  C9  UNL     1      30.497   8.966  47.513  1.00  0.00     0.035 A 
HETATM    9  C6  UNL     1      31.509   8.054  47.663  1.00  0.00     0.082 A 
HETATM   10  C8  UNL     1      30.111   9.730  48.543  1.00  0.00     0.070 A 
HETATM   11  N1  UNL     1      32.165   7.865  48.832  1.00  0.00    -0.240 NA
HETATM   12  C7  UNL     1      31.791   8.614  49.873  1.00  0.00     0.234 A 
HETATM   13  N2  UNL     1      30.811   9.468  49.639  1.00  0.00    -0.241 NA
HETATM   14  C18 UNL     1      29.293  10.757  48.925  1.00  0.00     0.032 C 
HETATM   15  C17 UNL     1      28.265  11.573  48.278  1.00  0.00     0.198 C 
HETATM   16  O3  UNL     1      26.938  11.316  48.753  1.00  0.00    -0.378 OA
HETATM   17  C16 UNL     1      26.884   9.862  48.819  1.00  0.00     0.271 C 
HETATM   18  C15 UNL     1      27.542   9.513  47.535  1.00  0.00     0.247 C 
HETATM   19  O2  UNL     1      27.926   9.780  46.383  1.00  0.00    -0.271 OA
BRANCH   9  20
HETATM   20  C5  UNL     1      31.977   7.202  46.577  1.00  0.00    -0.004 A 
HETATM   21  C4  UNL     1      32.380   7.650  45.338  1.00  0.00     0.017 A 
HETATM   22  C3  UNL     1      32.815   6.822  44.330  1.00  0.00     0.040 A 
HETATM   23  C2  UNL     1      32.838   5.470  44.600  1.00  0.00     0.101 A 
HETATM   24  C20 UNL     1      32.443   4.977  45.826  1.00  0.00     0.102 A 
HETATM   25  C19 UNL     1      32.014   5.829  46.812  1.00  0.00     0.053 A 
BRANCH  23  26
HETATM   26  O1  UNL     1      33.261   4.559  43.643  1.00  0.00    -0.353 OA
HETATM   27  C1  UNL     1      33.295   4.786  42.265  1.00  0.00     0.210 C 
ENDBRANCH  23  26
BRANCH  24  28
HETATM   28  O4  UNL     1      32.485   3.602  46.050  1.00  0.00    -0.353 OA
HETATM   29  C21 UNL     1      32.775   3.022  47.282  1.00  0.00     0.210 C 
ENDBRANCH  24  28
ENDBRANCH   9  20
ENDBRANCH   4   5
ENDBRANCH   1   4
TORSDOF 5
ENDMDL
