MODEL 1
REMARK VINA RESULT:      -7.3      0.000      0.000
REMARK  1 active torsions:
REMARK  status: ('A' for Active; 'I' for Inactive)
REMARK    1  A    between atoms: C2_2  and  N1_3 
ROOT
HETATM    1  N1  UNL     1      25.187   1.332  52.253  1.00  0.00    -0.357 N 
HETATM    2  C3  UNL     1      25.423   0.553  53.466  1.00  0.00     0.043 A 
HETATM    3  C4  UNL     1      24.309   0.009  54.024  1.00  0.00     0.030 A 
HETATM    4  C5  UNL     1      24.215  -0.760  55.162  1.00  0.00     0.002 A 
HETATM    5  C6  UNL     1      25.405  -1.009  55.815  1.00  0.00     0.001 A 
HETATM    6  C7  UNL     1      26.570  -0.452  55.247  1.00  0.00     0.014 A 
HETATM    7  C8  UNL     1      26.672   0.342  54.075  1.00  0.00     0.002 A 
HETATM    8  C9  UNL     1      28.175   0.586  54.130  1.00  0.00    -0.009 C 
HETATM    9  C10 UNL     1      28.905  -0.521  53.839  1.00  0.00    -0.002 C 
HETATM   10  C11 UNL     1      28.374  -1.833  53.458  1.00  0.00    -0.001 A 
HETATM   11  C12 UNL     1      27.432  -2.441  52.577  1.00  0.00     0.011 A 
HETATM   12  O1  UNL     1      26.508  -1.936  51.688  1.00  0.00     0.000 OA
HETATM   13  C13 UNL     1      26.612  -0.556  51.763  1.00  0.00     0.003 A 
HETATM   14  C14 UNL     1      27.484  -1.154  52.601  1.00  0.00     0.053 A 
HETATM   15  C15 UNL     1      26.427   0.977  51.573  1.00  0.00     0.214 C 
HETATM   16  N2  UNL     1      27.405   1.615  52.491  1.00  0.00    -0.257 NA
HETATM   17  C16 UNL     1      26.934   2.237  53.616  1.00  0.00     0.228 C 
HETATM   18  N3  UNL     1      28.208   2.656  54.145  1.00  0.00    -0.254 NA
HETATM   19  C17 UNL     1      29.051   1.654  54.464  1.00  0.00     0.130 C 
ENDROOT
BRANCH   1  20
HETATM   20  C2  UNL     1      24.018   2.169  52.104  1.00  0.00     0.121 C 
HETATM   21  C1  UNL     1      23.335   1.724  50.816  1.00  0.00     0.026 C 
ENDBRANCH   1  20
TORSDOF 1
ENDMDL
MODEL 2
REMARK VINA RESULT:      -7.1      3.177      5.954
REMARK  1 active torsions:
REMARK  status: ('A' for Active; 'I' for Inactive)
REMARK    1  A    between atoms: C2_2  and  N1_3 
ROOT
HETATM    1  N1  UNL     1      23.685   1.459  52.520  1.00  0.00    -0.357 N 
HETATM    2  C3  UNL     1      23.347   1.861  51.157  1.00  0.00     0.043 A 
HETATM    3  C4  UNL     1      22.257   1.242  50.630  1.00  0.00     0.030 A 
HETATM    4  C5  UNL     1      21.707   1.405  49.380  1.00  0.00     0.002 A 
HETATM    5  C6  UNL     1      22.343   2.315  48.560  1.00  0.00     0.001 A 
HETATM    6  C7  UNL     1      23.475   2.966  49.092  1.00  0.00     0.014 A 
HETATM    7  C8  UNL     1      24.048   2.800  50.381  1.00  0.00     0.002 A 
HETATM    8  C9  UNL     1      25.213   3.766  50.207  1.00  0.00    -0.009 C 
HETATM    9  C10 UNL     1      24.827   5.068  50.186  1.00  0.00    -0.002 C 
HETATM   10  C11 UNL     1      23.459   5.568  50.353  1.00  0.00    -0.001 A 
HETATM   11  C12 UNL     1      22.317   5.428  51.195  1.00  0.00     0.011 A 
HETATM   12  O1  UNL     1      22.027   4.610  52.265  1.00  0.00     0.000 OA
HETATM   13  C13 UNL     1      23.143   3.813  52.457  1.00  0.00     0.003 A 
HETATM   14  C14 UNL     1      23.326   4.661  51.423  1.00  0.00     0.053 A 
HETATM   15  C15 UNL     1      24.167   2.760  52.971  1.00  0.00     0.214 C 
HETATM   16  N2  UNL     1      25.358   2.900  52.095  1.00  0.00    -0.257 NA
HETATM   17  C16 UNL     1      25.614   1.916  51.178  1.00  0.00     0.228 C 
HETATM   18  N3  UNL     1      26.800   2.499  50.604  1.00  0.00    -0.254 NA
HETATM   19  C17 UNL     1      26.616   3.688  49.998  1.00  0.00     0.130 C 
ENDROOT
BRANCH   1  20
HETATM   20  C2  UNL     1      23.546   0.091  52.965  1.00  0.00     0.121 C 
HETATM   21  C1  UNL     1      24.724  -0.178  53.894  1.00  0.00     0.026 C 
ENDBRANCH   1  20
TORSDOF 1
ENDMDL
MODEL 3
REMARK VINA RESULT:      -7.1      4.124      6.745
REMARK  1 active torsions:
REMARK  status: ('A' for Active; 'I' for Inactive)
REMARK    1  A    between atoms: C2_2  and  N1_3 
ROOT
HETATM    1  N1  UNL     1      19.727   0.882  51.700  1.00  0.00    -0.357 N 
HETATM    2  C3  UNL     1      20.794   1.310  50.798  1.00  0.00     0.043 A 
HETATM    3  C4  UNL     1      20.433   1.411  49.492  1.00  0.00     0.030 A 
HETATM    4  C5  UNL     1      21.214   1.779  48.419  1.00  0.00     0.002 A 
HETATM    5  C6  UNL     1      22.528   2.083  48.712  1.00  0.00     0.001 A 
HETATM    6  C7  UNL     1      22.917   1.982  50.064  1.00  0.00     0.014 A 
HETATM    7  C8  UNL     1      22.116   1.602  51.173  1.00  0.00     0.002 A 
HETATM    8  C9  UNL     1      23.201   1.688  52.240  1.00  0.00    -0.009 C 
HETATM    9  C10 UNL     1      23.569   2.963  52.525  1.00  0.00    -0.002 C 
HETATM   10  C11 UNL     1      22.997   4.180  51.942  1.00  0.00    -0.001 A 
HETATM   11  C12 UNL     1      21.743   4.796  51.656  1.00  0.00     0.011 A 
HETATM   12  O1  UNL     1      20.436   4.379  51.786  1.00  0.00     0.000 OA
HETATM   13  C13 UNL     1      20.487   3.095  52.302  1.00  0.00     0.003 A 
HETATM   14  C14 UNL     1      21.727   3.600  52.137  1.00  0.00     0.053 A 
HETATM   15  C15 UNL     1      20.139   1.681  52.849  1.00  0.00     0.214 C 
HETATM   16  N2  UNL     1      21.443   1.034  53.146  1.00  0.00    -0.257 NA
HETATM   17  C16 UNL     1      21.873   0.026  52.325  1.00  0.00     0.228 C 
HETATM   18  N3  UNL     1      23.122  -0.239  52.994  1.00  0.00    -0.254 NA
HETATM   19  C17 UNL     1      23.996   0.787  52.999  1.00  0.00     0.130 C 
ENDROOT
BRANCH   1  20
HETATM   20  C2  UNL     1      18.753  -0.110  51.307  1.00  0.00     0.121 C 
HETATM   21  C1  UNL     1      18.104  -0.607  52.593  1.00  0.00     0.026 C 
ENDBRANCH   1  20
TORSDOF 1
ENDMDL
MODEL 4
REMARK VINA RESULT:      -7.0      4.462      6.742
REMARK  1 active torsions:
REMARK  status: ('A' for Active; 'I' for Inactive)
REMARK    1  A    between atoms: C2_2  and  N1_3 
ROOT
HETATM    1  N1  UNL     1      22.065   4.957  51.077  1.00  0.00    -0.357 N 
HETATM    2  C3  UNL     1      22.751   3.717  51.429  1.00  0.00     0.043 A 
HETATM    3  C4  UNL     1      23.651   3.827  52.442  1.00  0.00     0.030 A 
HETATM    4  C5  UNL     1      24.448   2.844  52.984  1.00  0.00     0.002 A 
HETATM    5  C6  UNL     1      24.313   1.589  52.426  1.00  0.00     0.001 A 
HETATM    6  C7  UNL     1      23.383   1.459  51.374  1.00  0.00     0.014 A 
HETATM    7  C8  UNL     1      22.560   2.469  50.811  1.00  0.00     0.002 A 
HETATM    8  C9  UNL     1      21.892   1.610  49.745  1.00  0.00    -0.009 C 
HETATM    9  C10 UNL     1      21.007   0.716  50.257  1.00  0.00    -0.002 C 
HETATM   10  C11 UNL     1      20.648   0.568  51.670  1.00  0.00    -0.001 A 
HETATM   11  C12 UNL     1      20.259   1.334  52.808  1.00  0.00     0.011 A 
HETATM   12  O1  UNL     1      20.126   2.687  53.034  1.00  0.00     0.000 OA
HETATM   13  C13 UNL     1      20.470   3.314  51.848  1.00  0.00     0.003 A 
HETATM   14  C14 UNL     1      20.566   1.973  51.732  1.00  0.00     0.053 A 
HETATM   15  C15 UNL     1      20.781   4.355  50.734  1.00  0.00     0.214 C 
HETATM   16  N2  UNL     1      21.189   3.561  49.547  1.00  0.00    -0.257 NA
HETATM   17  C16 UNL     1      22.508   3.567  49.179  1.00  0.00     0.228 C 
HETATM   18  N3  UNL     1      22.390   2.684  48.046  1.00  0.00    -0.254 NA
HETATM   19  C17 UNL     1      21.976   1.435  48.336  1.00  0.00     0.130 C 
ENDROOT
BRANCH   1  20
HETATM   20  C2  UNL     1      22.747   6.231  51.087  1.00  0.00     0.121 C 
HETATM   21  C1  UNL     1      21.694   7.283  50.757  1.00  0.00     0.026 C 
ENDBRANCH   1  20
TORSDOF 1
ENDMDL
MODEL 5
REMARK VINA RESULT:      -6.8      4.204      6.559
REMARK  1 active torsions:
REMARK  status: ('A' for Active; 'I' for Inactive)
REMARK    1  A    between atoms: C2_2  and  N1_3 
ROOT
HETATM    1  N1  UNL     1      22.457   5.194  50.543  1.00  0.00    -0.357 N 
HETATM    2  C3  UNL     1      22.286   3.847  50.004  1.00  0.00     0.043 A 
HETATM    3  C4  UNL     1      22.573   3.718  48.682  1.00  0.00     0.030 A 
HETATM    4  C5  UNL     1      22.500   2.586  47.901  1.00  0.00     0.002 A 
HETATM    5  C6  UNL     1      22.081   1.441  48.547  1.00  0.00     0.001 A 
HETATM    6  C7  UNL     1      21.779   1.559  49.920  1.00  0.00     0.014 A 
HETATM    7  C8  UNL     1      21.853   2.723  50.728  1.00  0.00     0.002 A 
HETATM    8  C9  UNL     1      21.356   2.096  52.025  1.00  0.00    -0.009 C 
HETATM    9  C10 UNL     1      22.257   1.251  52.588  1.00  0.00    -0.002 C 
HETATM   10  C11 UNL     1      23.602   0.958  52.082  1.00  0.00    -0.001 A 
HETATM   11  C12 UNL     1      24.778   1.607  51.603  1.00  0.00     0.011 A 
HETATM   12  O1  UNL     1      25.092   2.924  51.346  1.00  0.00     0.000 OA
HETATM   13  C13 UNL     1      23.958   3.659  51.650  1.00  0.00     0.003 A 
HETATM   14  C14 UNL     1      23.755   2.343  51.871  1.00  0.00     0.053 A 
HETATM   15  C15 UNL     1      22.918   4.795  51.868  1.00  0.00     0.214 C 
HETATM   16  N2  UNL     1      21.689   4.124  52.365  1.00  0.00    -0.257 NA
HETATM   17  C16 UNL     1      20.613   4.027  51.525  1.00  0.00     0.228 C 
HETATM   18  N3  UNL     1      19.736   3.321  52.425  1.00  0.00    -0.254 NA
HETATM   19  C17 UNL     1      20.166   2.101  52.802  1.00  0.00     0.130 C 
ENDROOT
BRANCH   1  20
HETATM   20  C2  UNL     1      22.112   6.369  49.774  1.00  0.00     0.121 C 
HETATM   21  C1  UNL     1      22.631   7.564  50.564  1.00  0.00     0.026 C 
ENDBRANCH   1  20
TORSDOF 1
ENDMDL
MODEL 6
REMARK VINA RESULT:      -6.7      9.168     10.889
REMARK  1 active torsions:
REMARK  status: ('A' for Active; 'I' for Inactive)
REMARK    1  A    between atoms: C2_2  and  N1_3 
ROOT
HETATM    1  N1  UNL     1      30.594   6.416  47.851  1.00  0.00    -0.357 N 
HETATM    2  C3  UNL     1      31.660   6.536  46.860  1.00  0.00     0.043 A 
HETATM    3  C4  UNL     1      31.434   7.454  45.883  1.00  0.00     0.030 A 
HETATM    4  C5  UNL     1      32.243   7.782  44.819  1.00  0.00     0.002 A 
HETATM    5  C6  UNL     1      33.434   7.089  44.737  1.00  0.00     0.001 A 
HETATM    6  C7  UNL     1      33.683   6.133  45.744  1.00  0.00     0.014 A 
HETATM    7  C8  UNL     1      32.852   5.791  46.842  1.00  0.00     0.002 A 
HETATM    8  C9  UNL     1      33.740   4.703  47.433  1.00  0.00    -0.009 C 
HETATM    9  C10 UNL     1      34.865   5.190  48.015  1.00  0.00    -0.002 C 
HETATM   10  C11 UNL     1      35.232   6.604  48.140  1.00  0.00    -0.001 A 
HETATM   11  C12 UNL     1      34.695   7.863  48.539  1.00  0.00     0.011 A 
HETATM   12  O1  UNL     1      33.442   8.270  48.945  1.00  0.00     0.000 OA
HETATM   13  C13 UNL     1      32.640   7.141  48.913  1.00  0.00     0.003 A 
HETATM   14  C14 UNL     1      33.900   6.849  48.531  1.00  0.00     0.053 A 
HETATM   15  C15 UNL     1      31.452   6.140  48.998  1.00  0.00     0.214 C 
HETATM   16  N2  UNL     1      32.006   4.826  48.581  1.00  0.00    -0.257 NA
HETATM   17  C16 UNL     1      31.647   4.324  47.359  1.00  0.00     0.228 C 
HETATM   18  N3  UNL     1      32.419   3.109  47.421  1.00  0.00    -0.254 NA
HETATM   19  C17 UNL     1      33.752   3.283  47.499  1.00  0.00     0.130 C 
ENDROOT
BRANCH   1  20
HETATM   20  C2  UNL     1      29.200   6.514  47.482  1.00  0.00     0.121 C 
HETATM   21  C1  UNL     1      28.451   5.534  48.378  1.00  0.00     0.026 C 
ENDBRANCH   1  20
TORSDOF 1
ENDMDL
MODEL 7
REMARK VINA RESULT:      -6.6      4.728      6.885
REMARK  1 active torsions:
REMARK  status: ('A' for Active; 'I' for Inactive)
REMARK    1  A    between atoms: C2_2  and  N1_3 
ROOT
HETATM    1  N1  UNL     1      22.448   5.827  50.108  1.00  0.00    -0.357 N 
HETATM    2  C3  UNL     1      23.609   4.961  49.918  1.00  0.00     0.043 A 
HETATM    3  C4  UNL     1      24.783   5.613  49.710  1.00  0.00     0.030 A 
HETATM    4  C5  UNL     1      26.031   5.072  49.494  1.00  0.00     0.002 A 
HETATM    5  C6  UNL     1      26.092   3.694  49.489  1.00  0.00     0.001 A 
HETATM    6  C7  UNL     1      24.881   3.003  49.704  1.00  0.00     0.014 A 
HETATM    7  C8  UNL     1      23.593   3.556  49.926  1.00  0.00     0.002 A 
HETATM    8  C9  UNL     1      22.827   2.242  50.026  1.00  0.00    -0.009 C 
HETATM    9  C10 UNL     1      23.090   1.557  51.169  1.00  0.00    -0.002 C 
HETATM   10  C11 UNL     1      23.970   1.994  52.256  1.00  0.00    -0.001 A 
HETATM   11  C12 UNL     1      24.245   3.124  53.082  1.00  0.00     0.011 A 
HETATM   12  O1  UNL     1      23.757   4.412  53.113  1.00  0.00     0.000 OA
HETATM   13  C13 UNL     1      22.827   4.498  52.090  1.00  0.00     0.003 A 
HETATM   14  C14 UNL     1      23.369   3.264  52.148  1.00  0.00     0.053 A 
HETATM   15  C15 UNL     1      21.754   4.981  51.072  1.00  0.00     0.214 C 
HETATM   16  N2  UNL     1      21.466   3.808  50.207  1.00  0.00    -0.257 NA
HETATM   17  C16 UNL     1      21.924   3.819  48.918  1.00  0.00     0.228 C 
HETATM   18  N3  UNL     1      21.424   2.524  48.530  1.00  0.00    -0.254 NA
HETATM   19  C17 UNL     1      21.938   1.484  49.217  1.00  0.00     0.130 C 
ENDROOT
BRANCH   1  20
HETATM   20  C2  UNL     1      22.286   7.054  49.361  1.00  0.00     0.121 C 
HETATM   21  C1  UNL     1      21.366   7.942  50.190  1.00  0.00     0.026 C 
ENDBRANCH   1  20
TORSDOF 1
ENDMDL
MODEL 8
REMARK VINA RESULT:      -6.5      3.595      6.928
REMARK  1 active torsions:
REMARK  status: ('A' for Active; 'I' for Inactive)
REMARK    1  A    between atoms: C2_2  and  N1_3 
ROOT
HETATM    1  N1  UNL     1      23.936   1.848  51.173  1.00  0.00    -0.357 N 
HETATM    2  C3  UNL     1      24.410   3.036  50.467  1.00  0.00     0.043 A 
HETATM    3  C4  UNL     1      25.695   2.969  50.029  1.00  0.00     0.030 A 
HETATM    4  C5  UNL     1      26.414   3.925  49.348  1.00  0.00     0.002 A 
HETATM    5  C6  UNL     1      25.741   5.098  49.076  1.00  0.00     0.001 A 
HETATM    6  C7  UNL     1      24.406   5.184  49.524  1.00  0.00     0.014 A 
HETATM    7  C8  UNL     1      23.661   4.201  50.229  1.00  0.00     0.002 A 
HETATM    8  C9  UNL     1      22.376   5.003  50.389  1.00  0.00    -0.009 C 
HETATM    9  C10 UNL     1      21.695   5.157  49.224  1.00  0.00    -0.002 C 
HETATM   10  C11 UNL     1      22.071   4.600  47.922  1.00  0.00    -0.001 A 
HETATM   11  C12 UNL     1      22.489   3.383  47.309  1.00  0.00     0.011 A 
HETATM   12  O1  UNL     1      22.794   2.133  47.803  1.00  0.00     0.000 OA
HETATM   13  C13 UNL     1      22.625   2.208  49.176  1.00  0.00     0.003 A 
HETATM   14  C14 UNL     1      22.347   3.391  48.589  1.00  0.00     0.053 A 
HETATM   15  C15 UNL     1      22.558   1.903  50.700  1.00  0.00     0.214 C 
HETATM   16  N2  UNL     1      22.125   3.169  51.343  1.00  0.00    -0.257 NA
HETATM   17  C16 UNL     1      23.043   3.880  52.069  1.00  0.00     0.228 C 
HETATM   18  N3  UNL     1      22.179   4.969  52.449  1.00  0.00    -0.254 NA
HETATM   19  C17 UNL     1      21.700   5.702  51.426  1.00  0.00     0.130 C 
ENDROOT
BRANCH   1  20
HETATM   20  C2  UNL     1      24.796   1.101  52.063  1.00  0.00     0.121 C 
HETATM   21  C1  UNL     1      23.874   0.319  52.991  1.00  0.00     0.026 C 
ENDBRANCH   1  20
TORSDOF 1
ENDMDL
MODEL 9
REMARK VINA RESULT:      -6.4      3.987      6.777
REMARK  1 active torsions:
REMARK  status: ('A' for Active; 'I' for Inactive)
REMARK    1  A    between atoms: C2_2  and  N1_3 
ROOT
HETATM    1  N1  UNL     1      24.990   3.554  49.938  1.00  0.00    -0.357 N 
HETATM    2  C3  UNL     1      24.130   2.606  50.642  1.00  0.00     0.043 A 
HETATM    3  C4  UNL     1      24.736   1.920  51.647  1.00  0.00     0.030 A 
HETATM    4  C5  UNL     1      24.192   0.964  52.474  1.00  0.00     0.002 A 
HETATM    5  C6  UNL     1      22.862   0.669  52.253  1.00  0.00     0.001 A 
HETATM    6  C7  UNL     1      22.219   1.374  51.214  1.00  0.00     0.014 A 
HETATM    7  C8  UNL     1      22.777   2.359  50.357  1.00  0.00     0.002 A 
HETATM    8  C9  UNL     1      21.536   2.611  49.510  1.00  0.00    -0.009 C 
HETATM    9  C10 UNL     1      20.559   3.275  50.180  1.00  0.00    -0.002 C 
HETATM   10  C11 UNL     1      20.637   3.769  51.558  1.00  0.00    -0.001 A 
HETATM   11  C12 UNL     1      21.489   4.507  52.431  1.00  0.00     0.011 A 
HETATM   12  O1  UNL     1      22.752   5.038  52.290  1.00  0.00     0.000 OA
HETATM   13  C13 UNL     1      23.165   4.722  51.006  1.00  0.00     0.003 A 
HETATM   14  C14 UNL     1      21.926   4.245  51.248  1.00  0.00     0.053 A 
HETATM   15  C15 UNL     1      23.967   4.562  49.683  1.00  0.00     0.214 C 
HETATM   16  N2  UNL     1      23.084   3.792  48.770  1.00  0.00    -0.257 NA
HETATM   17  C16 UNL     1      23.403   2.489  48.497  1.00  0.00     0.228 C 
HETATM   18  N3  UNL     1      22.291   2.202  47.627  1.00  0.00    -0.254 NA
HETATM   19  C17 UNL     1      21.077   2.290  48.204  1.00  0.00     0.130 C 
ENDROOT
BRANCH   1  20
HETATM   20  C2  UNL     1      26.378   3.260  49.661  1.00  0.00     0.121 C 
HETATM   21  C1  UNL     1      26.959   4.509  49.009  1.00  0.00     0.026 C 
ENDBRANCH   1  20
TORSDOF 1
ENDMDL
