MODEL 1
REMARK VINA RESULT:      -9.1      0.000      0.000
REMARK  2 active torsions:
REMARK  status: ('A' for Active; 'I' for Inactive)
REMARK    1  A    between atoms: N1_1  and  C1_2 
REMARK    2  A    between atoms: C15_17  and  O1_18 
ROOT
HETATM    1  C1  UNL     1      21.080   0.963  53.584  1.00  0.00     0.251 C 
HETATM    2  C2  UNL     1      20.792  -0.140  54.583  1.00  0.00     0.045 C 
HETATM    3  C3  UNL     1      21.848  -1.189  54.411  1.00  0.00     0.041 C 
HETATM    4  C4  UNL     1      22.939  -0.460  53.718  1.00  0.00    -0.049 A 
HETATM    5  C5  UNL     1      24.229  -0.921  53.550  1.00  0.00     0.020 A 
HETATM    6  C6  UNL     1      25.141  -0.120  52.874  1.00  0.00    -0.021 A 
HETATM    7  C7  UNL     1      24.652   1.111  52.411  1.00  0.00     0.007 A 
HETATM    8  C8  UNL     1      23.343   1.597  52.577  1.00  0.00     0.024 A 
HETATM    9  C9  UNL     1      22.507   0.760  53.248  1.00  0.00    -0.018 A 
HETATM   10  C10 UNL     1      25.302   2.187  51.629  1.00  0.00     0.110 C 
HETATM   11  C11 UNL     1      24.485   2.716  50.564  1.00  0.00     0.032 A 
HETATM   12  C12 UNL     1      23.300   2.595  49.907  1.00  0.00     0.036 A 
HETATM   13  C13 UNL     1      22.765   3.384  48.934  1.00  0.00     0.117 A 
HETATM   14  N2  UNL     1      23.464   4.457  48.513  1.00  0.00    -0.270 NA
HETATM   15  C14 UNL     1      24.668   4.713  49.070  1.00  0.00     0.153 A 
HETATM   16  C15 UNL     1      25.158   3.861  50.068  1.00  0.00     0.095 A 
HETATM   17  N3  UNL     1      26.520   2.670  51.840  1.00  0.00    -0.104 NA
HETATM   18  O2  UNL     1      27.480   2.327  52.793  1.00  0.00    -0.106 OA
HETATM   19  N4  UNL     1      27.856   1.013  53.115  1.00  0.00    -0.103 NA
HETATM   20  C16 UNL     1      27.605  -0.156  52.707  1.00  0.00     0.118 C 
HETATM   21  C17 UNL     1      26.468  -0.779  52.849  1.00  0.00     0.049 C 
ENDROOT
BRANCH  16  22
HETATM   22  O1  UNL     1      26.417   4.367  50.458  1.00  0.00    -0.358 OA
HETATM   23  H13 UNL     1      26.893   3.940  51.255  1.00  0.00     0.217 HD
ENDBRANCH  16  22
BRANCH   1  24
HETATM   24  N1  UNL     1      20.265   0.735  52.407  1.00  0.00     0.087 N 
HETATM   25  H1  UNL     1      19.492   0.078  52.719  1.00  0.00     0.313 HD
HETATM   26  H2  UNL     1      20.857   0.216  51.723  1.00  0.00     0.313 HD
ENDBRANCH   1  24
TORSDOF 2
ENDMDL
MODEL 2
REMARK VINA RESULT:      -8.7      2.196      4.989
REMARK  2 active torsions:
REMARK  status: ('A' for Active; 'I' for Inactive)
REMARK    1  A    between atoms: N1_1  and  C1_2 
REMARK    2  A    between atoms: C15_17  and  O1_18 
ROOT
HETATM    1  C1  UNL     1      26.358   0.291  54.784  1.00  0.00     0.251 C 
HETATM    2  C2  UNL     1      27.873   0.257  54.790  1.00  0.00     0.045 C 
HETATM    3  C3  UNL     1      28.338   0.655  53.423  1.00  0.00     0.041 C 
HETATM    4  C4  UNL     1      27.162   1.362  52.859  1.00  0.00    -0.049 A 
HETATM    5  C5  UNL     1      27.164   2.131  51.713  1.00  0.00     0.020 A 
HETATM    6  C6  UNL     1      25.978   2.731  51.309  1.00  0.00    -0.021 A 
HETATM    7  C7  UNL     1      24.860   2.490  52.123  1.00  0.00     0.007 A 
HETATM    8  C8  UNL     1      24.842   1.713  53.295  1.00  0.00     0.024 A 
HETATM    9  C9  UNL     1      26.038   1.158  53.627  1.00  0.00    -0.018 A 
HETATM   10  C10 UNL     1      23.448   2.915  51.991  1.00  0.00     0.110 C 
HETATM   11  C11 UNL     1      22.491   1.870  52.265  1.00  0.00     0.032 A 
HETATM   12  C12 UNL     1      22.340   0.553  52.570  1.00  0.00     0.036 A 
HETATM   13  C13 UNL     1      21.209  -0.140  52.880  1.00  0.00     0.117 A 
HETATM   14  N2  UNL     1      20.032   0.518  52.902  1.00  0.00    -0.270 NA
HETATM   15  C14 UNL     1      20.016   1.839  52.617  1.00  0.00     0.153 A 
HETATM   16  C15 UNL     1      21.217   2.489  52.309  1.00  0.00     0.095 A 
HETATM   17  N3  UNL     1      23.033   4.131  51.662  1.00  0.00    -0.104 NA
HETATM   18  O2  UNL     1      23.756   5.286  51.358  1.00  0.00    -0.106 OA
HETATM   19  N4  UNL     1      24.858   5.337  50.491  1.00  0.00    -0.103 NA
HETATM   20  C16 UNL     1      25.474   4.551  49.716  1.00  0.00     0.118 C 
HETATM   21  C17 UNL     1      26.212   3.543  50.092  1.00  0.00     0.049 C 
ENDROOT
BRANCH  16  22
HETATM   22  O1  UNL     1      20.898   3.842  52.059  1.00  0.00    -0.358 OA
HETATM   23  H13 UNL     1      19.963   4.179  52.296  1.00  0.00     0.217 HD
ENDBRANCH  16  22
BRANCH   1  24
HETATM   24  N1  UNL     1      25.874  -1.052  54.534  1.00  0.00     0.087 N 
HETATM   25  H1  UNL     1      26.692  -1.693  54.746  1.00  0.00     0.313 HD
HETATM   26  H2  UNL     1      25.681  -1.121  53.512  1.00  0.00     0.313 HD
ENDBRANCH   1  24
TORSDOF 2
ENDMDL
MODEL 3
REMARK VINA RESULT:      -8.6      2.660      4.849
REMARK  2 active torsions:
REMARK  status: ('A' for Active; 'I' for Inactive)
REMARK    1  A    between atoms: N1_1  and  C1_2 
REMARK    2  A    between atoms: C15_17  and  O1_18 
ROOT
HETATM    1  C1  UNL     1      26.491   1.114  51.822  1.00  0.00     0.251 C 
HETATM    2  C2  UNL     1      27.167  -0.137  52.347  1.00  0.00     0.045 C 
HETATM    3  C3  UNL     1      26.319  -0.675  53.458  1.00  0.00     0.041 C 
HETATM    4  C4  UNL     1      24.998  -0.046  53.210  1.00  0.00    -0.049 A 
HETATM    5  C5  UNL     1      23.813  -0.409  53.816  1.00  0.00     0.020 A 
HETATM    6  C6  UNL     1      22.653   0.279  53.480  1.00  0.00    -0.021 A 
HETATM    7  C7  UNL     1      22.801   1.306  52.534  1.00  0.00     0.007 A 
HETATM    8  C8  UNL     1      24.000   1.686  51.905  1.00  0.00     0.024 A 
HETATM    9  C9  UNL     1      25.092   0.968  52.284  1.00  0.00    -0.018 A 
HETATM   10  C10 UNL     1      21.822   2.264  51.974  1.00  0.00     0.110 C 
HETATM   11  C11 UNL     1      22.308   3.620  51.889  1.00  0.00     0.032 A 
HETATM   12  C12 UNL     1      23.349   4.448  52.174  1.00  0.00     0.036 A 
HETATM   13  C13 UNL     1      23.530   5.757  51.843  1.00  0.00     0.117 A 
HETATM   14  N2  UNL     1      22.572   6.384  51.132  1.00  0.00    -0.270 NA
HETATM   15  C14 UNL     1      21.468   5.693  50.771  1.00  0.00     0.153 A 
HETATM   16  C15 UNL     1      21.347   4.349  51.144  1.00  0.00     0.095 A 
HETATM   17  N3  UNL     1      20.596   1.967  51.562  1.00  0.00    -0.104 NA
HETATM   18  O2  UNL     1      19.916   0.748  51.543  1.00  0.00    -0.106 OA
HETATM   19  N4  UNL     1      19.866  -0.159  52.612  1.00  0.00    -0.103 NA
HETATM   20  C16 UNL     1      20.255  -0.209  53.814  1.00  0.00     0.118 C 
HETATM   21  C17 UNL     1      21.497  -0.298  54.203  1.00  0.00     0.049 C 
ENDROOT
BRANCH  16  22
HETATM   22  O1  UNL     1      20.109   3.893  50.638  1.00  0.00    -0.358 OA
HETATM   23  H13 UNL     1      19.260   4.079  51.175  1.00  0.00     0.217 HD
ENDBRANCH  16  22
BRANCH   1  24
HETATM   24  N1  UNL     1      27.099   2.262  52.465  1.00  0.00     0.087 N 
HETATM   25  H1  UNL     1      26.803   2.209  53.482  1.00  0.00     0.313 HD
HETATM   26  H2  UNL     1      26.653   3.111  52.055  1.00  0.00     0.313 HD
ENDBRANCH   1  24
TORSDOF 2
ENDMDL
MODEL 4
REMARK VINA RESULT:      -8.4      2.707      5.324
REMARK  2 active torsions:
REMARK  status: ('A' for Active; 'I' for Inactive)
REMARK    1  A    between atoms: N1_1  and  C1_2 
REMARK    2  A    between atoms: C15_17  and  O1_18 
ROOT
HETATM    1  C1  UNL     1      23.545   4.969  52.270  1.00  0.00     0.251 C 
HETATM    2  C2  UNL     1      22.233   5.452  51.687  1.00  0.00     0.045 C 
HETATM    3  C3  UNL     1      21.556   4.272  51.061  1.00  0.00     0.041 C 
HETATM    4  C4  UNL     1      22.218   3.117  51.716  1.00  0.00    -0.049 A 
HETATM    5  C5  UNL     1      21.783   1.808  51.662  1.00  0.00     0.020 A 
HETATM    6  C6  UNL     1      22.514   0.833  52.328  1.00  0.00    -0.021 A 
HETATM    7  C7  UNL     1      23.657   1.281  53.010  1.00  0.00     0.007 A 
HETATM    8  C8  UNL     1      24.111   2.610  53.078  1.00  0.00     0.024 A 
HETATM    9  C9  UNL     1      23.345   3.508  52.402  1.00  0.00    -0.018 A 
HETATM   10  C10 UNL     1      24.685   0.545  53.779  1.00  0.00     0.110 C 
HETATM   11  C11 UNL     1      26.038   0.962  53.501  1.00  0.00     0.032 A 
HETATM   12  C12 UNL     1      26.816   1.776  52.739  1.00  0.00     0.036 A 
HETATM   13  C13 UNL     1      28.157   2.008  52.810  1.00  0.00     0.117 A 
HETATM   14  N2  UNL     1      28.877   1.364  53.750  1.00  0.00    -0.270 NA
HETATM   15  C14 UNL     1      28.245   0.514  54.589  1.00  0.00     0.153 A 
HETATM   16  C15 UNL     1      26.864   0.324  54.461  1.00  0.00     0.095 A 
HETATM   17  N3  UNL     1      24.450  -0.417  54.663  1.00  0.00    -0.104 NA
HETATM   18  O2  UNL     1      23.248  -0.981  55.092  1.00  0.00    -0.106 OA
HETATM   19  N4  UNL     1      22.207  -1.391  54.245  1.00  0.00    -0.103 NA
HETATM   20  C16 UNL     1      21.996  -1.486  53.003  1.00  0.00     0.118 C 
HETATM   21  C17 UNL     1      21.851  -0.483  52.182  1.00  0.00     0.049 C 
ENDROOT
BRANCH  16  22
HETATM   22  O1  UNL     1      26.484  -0.605  55.455  1.00  0.00    -0.358 OA
HETATM   23  H13 UNL     1      25.517  -0.934  55.477  1.00  0.00     0.217 HD
ENDBRANCH  16  22
BRANCH   1  24
HETATM   24  N1  UNL     1      24.595   5.232  51.307  1.00  0.00     0.087 N 
HETATM   25  H1  UNL     1      24.098   5.433  50.391  1.00  0.00     0.313 HD
HETATM   26  H2  UNL     1      25.126   4.342  51.184  1.00  0.00     0.313 HD
ENDBRANCH   1  24
TORSDOF 2
ENDMDL
MODEL 5
REMARK VINA RESULT:      -8.2      2.483      6.193
REMARK  2 active torsions:
REMARK  status: ('A' for Active; 'I' for Inactive)
REMARK    1  A    between atoms: N1_1  and  C1_2 
REMARK    2  A    between atoms: C15_17  and  O1_18 
ROOT
HETATM    1  C1  UNL     1      25.580   4.538  50.326  1.00  0.00     0.251 C 
HETATM    2  C2  UNL     1      24.988   5.473  49.291  1.00  0.00     0.045 C 
HETATM    3  C3  UNL     1      23.913   4.723  48.568  1.00  0.00     0.041 C 
HETATM    4  C4  UNL     1      23.589   3.615  49.499  1.00  0.00    -0.049 A 
HETATM    5  C5  UNL     1      22.492   2.783  49.403  1.00  0.00     0.020 A 
HETATM    6  C6  UNL     1      22.325   1.785  50.356  1.00  0.00    -0.021 A 
HETATM    7  C7  UNL     1      23.314   1.713  51.350  1.00  0.00     0.007 A 
HETATM    8  C8  UNL     1      24.435   2.555  51.464  1.00  0.00     0.024 A 
HETATM    9  C9  UNL     1      24.532   3.507  50.497  1.00  0.00    -0.018 A 
HETATM   10  C10 UNL     1      23.494   0.776  52.480  1.00  0.00     0.110 C 
HETATM   11  C11 UNL     1      24.850   0.313  52.651  1.00  0.00     0.032 A 
HETATM   12  C12 UNL     1      26.110   0.349  52.139  1.00  0.00     0.036 A 
HETATM   13  C13 UNL     1      27.266  -0.163  52.646  1.00  0.00     0.117 A 
HETATM   14  N2  UNL     1      27.223  -0.817  53.825  1.00  0.00    -0.270 NA
HETATM   15  C14 UNL     1      26.037  -0.940  54.461  1.00  0.00     0.153 A 
HETATM   16  C15 UNL     1      24.887  -0.387  53.883  1.00  0.00     0.095 A 
HETATM   17  N3  UNL     1      22.539   0.363  53.304  1.00  0.00    -0.104 NA
HETATM   18  O2  UNL     1      21.177   0.667  53.339  1.00  0.00    -0.106 OA
HETATM   19  N4  UNL     1      20.327   0.671  52.222  1.00  0.00    -0.103 NA
HETATM   20  C16 UNL     1      20.397   0.379  50.994  1.00  0.00     0.118 C 
HETATM   21  C17 UNL     1      21.069   1.045  50.096  1.00  0.00     0.049 C 
ENDROOT
BRANCH  16  22
HETATM   22  O1  UNL     1      23.814  -0.667  54.758  1.00  0.00    -0.358 OA
HETATM   23  H13 UNL     1      23.414   0.098  55.306  1.00  0.00     0.217 HD
ENDBRANCH  16  22
BRANCH   1  24
HETATM   24  N1  UNL     1      26.771   3.932  49.763  1.00  0.00     0.087 N 
HETATM   25  H1  UNL     1      27.578   4.288  50.352  1.00  0.00     0.313 HD
HETATM   26  H2  UNL     1      26.888   4.325  48.804  1.00  0.00     0.313 HD
ENDBRANCH   1  24
TORSDOF 2
ENDMDL
MODEL 6
REMARK VINA RESULT:      -8.2      2.183      4.467
REMARK  2 active torsions:
REMARK  status: ('A' for Active; 'I' for Inactive)
REMARK    1  A    between atoms: N1_1  and  C1_2 
REMARK    2  A    between atoms: C15_17  and  O1_18 
ROOT
HETATM    1  C1  UNL     1      27.433   1.224  52.569  1.00  0.00     0.251 C 
HETATM    2  C2  UNL     1      27.706   0.160  53.613  1.00  0.00     0.045 C 
HETATM    3  C3  UNL     1      26.428  -0.080  54.356  1.00  0.00     0.041 C 
HETATM    4  C4  UNL     1      25.395   0.448  53.431  1.00  0.00    -0.049 A 
HETATM    5  C5  UNL     1      24.035   0.241  53.547  1.00  0.00     0.020 A 
HETATM    6  C6  UNL     1      23.191   0.805  52.599  1.00  0.00    -0.021 A 
HETATM    7  C7  UNL     1      23.815   1.552  51.588  1.00  0.00     0.007 A 
HETATM    8  C8  UNL     1      25.198   1.769  51.453  1.00  0.00     0.024 A 
HETATM    9  C9  UNL     1      25.961   1.187  52.417  1.00  0.00    -0.018 A 
HETATM   10  C10 UNL     1      23.253   2.321  50.455  1.00  0.00     0.110 C 
HETATM   11  C11 UNL     1      23.863   3.614  50.260  1.00  0.00     0.032 A 
HETATM   12  C12 UNL     1      24.772   4.499  50.750  1.00  0.00     0.036 A 
HETATM   13  C13 UNL     1      25.202   5.679  50.223  1.00  0.00     0.117 A 
HETATM   14  N2  UNL     1      24.688   6.089  49.046  1.00  0.00    -0.270 NA
HETATM   15  C14 UNL     1      23.766   5.316  48.431  1.00  0.00     0.153 A 
HETATM   16  C15 UNL     1      23.370   4.113  49.028  1.00  0.00     0.095 A 
HETATM   17  N3  UNL     1      22.281   1.913  49.649  1.00  0.00    -0.104 NA
HETATM   18  O2  UNL     1      21.550   0.724  49.638  1.00  0.00    -0.106 OA
HETATM   19  N4  UNL     1      20.976   0.124  50.770  1.00  0.00    -0.103 NA
HETATM   20  C16 UNL     1      20.831   0.392  51.996  1.00  0.00     0.118 C 
HETATM   21  C17 UNL     1      21.788   0.422  52.882  1.00  0.00     0.049 C 
ENDROOT
BRANCH  16  22
HETATM   22  O1  UNL     1      22.410   3.527  48.173  1.00  0.00    -0.358 OA
HETATM   23  H13 UNL     1      21.978   2.644  48.452  1.00  0.00     0.217 HD
ENDBRANCH  16  22
BRANCH   1  24
HETATM   24  N1  UNL     1      27.835   2.507  53.111  1.00  0.00     0.087 N 
HETATM   25  H1  UNL     1      28.764   2.334  53.593  1.00  0.00     0.313 HD
HETATM   26  H2  UNL     1      27.143   2.755  53.850  1.00  0.00     0.313 HD
ENDBRANCH   1  24
TORSDOF 2
ENDMDL
MODEL 7
REMARK VINA RESULT:      -8.1      2.588      5.648
REMARK  2 active torsions:
REMARK  status: ('A' for Active; 'I' for Inactive)
REMARK    1  A    between atoms: N1_1  and  C1_2 
REMARK    2  A    between atoms: C15_17  and  O1_18 
ROOT
HETATM    1  C1  UNL     1      21.486   1.588  48.237  1.00  0.00     0.251 C 
HETATM    2  C2  UNL     1      22.268   2.533  47.348  1.00  0.00     0.045 C 
HETATM    3  C3  UNL     1      23.032   3.462  48.240  1.00  0.00     0.041 C 
HETATM    4  C4  UNL     1      23.067   2.736  49.534  1.00  0.00    -0.049 A 
HETATM    5  C5  UNL     1      23.862   3.061  50.614  1.00  0.00     0.020 A 
HETATM    6  C6  UNL     1      23.780   2.283  51.762  1.00  0.00    -0.021 A 
HETATM    7  C7  UNL     1      22.871   1.214  51.716  1.00  0.00     0.007 A 
HETATM    8  C8  UNL     1      22.056   0.868  50.623  1.00  0.00     0.024 A 
HETATM    9  C9  UNL     1      22.191   1.673  49.536  1.00  0.00    -0.018 A 
HETATM   10  C10 UNL     1      22.485   0.217  52.739  1.00  0.00     0.110 C 
HETATM   11  C11 UNL     1      21.065  -0.023  52.821  1.00  0.00     0.032 A 
HETATM   12  C12 UNL     1      19.845   0.348  52.346  1.00  0.00     0.036 A 
HETATM   13  C13 UNL     1      18.620  -0.196  52.588  1.00  0.00     0.117 A 
HETATM   14  N2  UNL     1      18.534  -1.258  53.413  1.00  0.00    -0.270 NA
HETATM   15  C14 UNL     1      19.664  -1.746  53.970  1.00  0.00     0.153 A 
HETATM   16  C15 UNL     1      20.891  -1.140  53.677  1.00  0.00     0.095 A 
HETATM   17  N3  UNL     1      23.321  -0.438  53.535  1.00  0.00    -0.104 NA
HETATM   18  O2  UNL     1      24.711  -0.377  53.639  1.00  0.00    -0.106 OA
HETATM   19  N4  UNL     1      25.461   0.808  53.689  1.00  0.00    -0.103 NA
HETATM   20  C16 UNL     1      25.240   2.052  53.741  1.00  0.00     0.118 C 
HETATM   21  C17 UNL     1      24.746   2.773  52.773  1.00  0.00     0.049 C 
ENDROOT
BRANCH  16  22
HETATM   22  O1  UNL     1      21.882  -1.852  54.390  1.00  0.00    -0.358 OA
HETATM   23  H13 UNL     1      21.622  -2.312  55.265  1.00  0.00     0.217 HD
ENDBRANCH  16  22
BRANCH   1  24
HETATM   24  N1  UNL     1      20.140   2.108  48.379  1.00  0.00     0.087 N 
HETATM   25  H1  UNL     1      20.031   2.831  47.611  1.00  0.00     0.313 HD
HETATM   26  H2  UNL     1      20.103   2.614  49.290  1.00  0.00     0.313 HD
ENDBRANCH   1  24
TORSDOF 2
ENDMDL
MODEL 8
REMARK VINA RESULT:      -7.9      3.144      5.294
REMARK  2 active torsions:
REMARK  status: ('A' for Active; 'I' for Inactive)
REMARK    1  A    between atoms: N1_1  and  C1_2 
REMARK    2  A    between atoms: C15_17  and  O1_18 
ROOT
HETATM    1  C1  UNL     1      22.127  -0.944  54.898  1.00  0.00     0.251 C 
HETATM    2  C2  UNL     1      23.557  -1.266  55.283  1.00  0.00     0.045 C 
HETATM    3  C3  UNL     1      24.441  -0.783  54.176  1.00  0.00     0.041 C 
HETATM    4  C4  UNL     1      23.589   0.205  53.469  1.00  0.00    -0.049 A 
HETATM    5  C5  UNL     1      24.026   1.107  52.521  1.00  0.00     0.020 A 
HETATM    6  C6  UNL     1      23.103   1.970  51.944  1.00  0.00    -0.021 A 
HETATM    7  C7  UNL     1      21.778   1.838  52.389  1.00  0.00     0.007 A 
HETATM    8  C8  UNL     1      21.317   0.927  53.356  1.00  0.00     0.024 A 
HETATM    9  C9  UNL     1      22.276   0.116  53.875  1.00  0.00    -0.018 A 
HETATM   10  C10 UNL     1      20.539   2.537  51.982  1.00  0.00     0.110 C 
HETATM   11  C11 UNL     1      19.402   1.666  51.808  1.00  0.00     0.032 A 
HETATM   12  C12 UNL     1      18.980   0.372  51.820  1.00  0.00     0.036 A 
HETATM   13  C13 UNL     1      17.719  -0.128  51.700  1.00  0.00     0.117 A 
HETATM   14  N2  UNL     1      16.693   0.732  51.541  1.00  0.00    -0.270 NA
HETATM   15  C14 UNL     1      16.950   2.058  51.507  1.00  0.00     0.153 A 
HETATM   16  C15 UNL     1      18.271   2.504  51.638  1.00  0.00     0.095 A 
HETATM   17  N3  UNL     1      20.415   3.844  51.785  1.00  0.00    -0.104 NA
HETATM   18  O2  UNL     1      21.355   4.870  51.891  1.00  0.00    -0.106 OA
HETATM   19  N4  UNL     1      22.652   4.828  51.356  1.00  0.00    -0.103 NA
HETATM   20  C16 UNL     1      23.340   4.051  50.635  1.00  0.00     0.118 C 
HETATM   21  C17 UNL     1      23.787   2.881  50.996  1.00  0.00     0.049 C 
ENDROOT
BRANCH  16  22
HETATM   22  O1  UNL     1      18.236   3.914  51.566  1.00  0.00    -0.358 OA
HETATM   23  H13 UNL     1      18.281   4.452  52.433  1.00  0.00     0.217 HD
ENDBRANCH  16  22
BRANCH   1  24
HETATM   24  N1  UNL     1      21.543  -2.125  54.293  1.00  0.00     0.087 N 
HETATM   25  H1  UNL     1      21.461  -2.835  55.077  1.00  0.00     0.313 HD
HETATM   26  H2  UNL     1      22.239  -2.494  53.610  1.00  0.00     0.313 HD
ENDBRANCH   1  24
TORSDOF 2
ENDMDL
MODEL 9
REMARK VINA RESULT:      -7.8      3.058      6.447
REMARK  2 active torsions:
REMARK  status: ('A' for Active; 'I' for Inactive)
REMARK    1  A    between atoms: N1_1  and  C1_2 
REMARK    2  A    between atoms: C15_17  and  O1_18 
ROOT
HETATM    1  C1  UNL     1      23.477   4.763  52.062  1.00  0.00     0.251 C 
HETATM    2  C2  UNL     1      22.809   5.793  51.174  1.00  0.00     0.045 C 
HETATM    3  C3  UNL     1      21.912   5.057  50.227  1.00  0.00     0.041 C 
HETATM    4  C4  UNL     1      21.711   3.750  50.899  1.00  0.00    -0.049 A 
HETATM    5  C5  UNL     1      20.768   2.806  50.548  1.00  0.00     0.020 A 
HETATM    6  C6  UNL     1      20.704   1.623  51.275  1.00  0.00    -0.021 A 
HETATM    7  C7  UNL     1      21.629   1.496  52.323  1.00  0.00     0.007 A 
HETATM    8  C8  UNL     1      22.593   2.449  52.696  1.00  0.00     0.024 A 
HETATM    9  C9  UNL     1      22.597   3.580  51.940  1.00  0.00    -0.018 A 
HETATM   10  C10 UNL     1      21.886   0.386  53.268  1.00  0.00     0.110 C 
HETATM   11  C11 UNL     1      23.285   0.098  53.471  1.00  0.00     0.032 A 
HETATM   12  C12 UNL     1      24.552   0.416  53.091  1.00  0.00     0.036 A 
HETATM   13  C13 UNL     1      25.741  -0.017  53.596  1.00  0.00     0.117 A 
HETATM   14  N2  UNL     1      25.731  -0.892  54.620  1.00  0.00    -0.270 NA
HETATM   15  C14 UNL     1      24.542  -1.309  55.111  1.00  0.00     0.153 A 
HETATM   16  C15 UNL     1      23.357  -0.823  54.547  1.00  0.00     0.095 A 
HETATM   17  N3  UNL     1      20.960  -0.316  53.908  1.00  0.00    -0.104 NA
HETATM   18  O2  UNL     1      19.568  -0.223  53.876  1.00  0.00    -0.106 OA
HETATM   19  N4  UNL     1      18.797  -0.117  52.707  1.00  0.00    -0.103 NA
HETATM   20  C16 UNL     1      18.987  -0.143  51.458  1.00  0.00     0.118 C 
HETATM   21  C17 UNL     1      19.598   0.778  50.767  1.00  0.00     0.049 C 
ENDROOT
BRANCH  16  22
HETATM   22  O1  UNL     1      22.290  -1.423  55.251  1.00  0.00    -0.358 OA
HETATM   23  H13 UNL     1      21.587  -1.947  54.726  1.00  0.00     0.217 HD
ENDBRANCH  16  22
BRANCH   1  24
HETATM   24  N1  UNL     1      24.781   4.460  51.506  1.00  0.00     0.087 N 
HETATM   25  H1  UNL     1      25.479   4.967  52.123  1.00  0.00     0.313 HD
HETATM   26  H2  UNL     1      24.820   4.904  50.563  1.00  0.00     0.313 HD
ENDBRANCH   1  24
TORSDOF 2
ENDMDL
