MODEL 1
REMARK VINA RESULT:      -7.6      0.000      0.000
REMARK  5 active torsions:
REMARK  status: ('A' for Active; 'I' for Inactive)
REMARK    1  A    between atoms: O1_2  and  C2_3 
REMARK    2  A    between atoms: N2_13  and  C11_14 
REMARK    3  A    between atoms: N3_15  and  C12_16 
REMARK    4  A    between atoms: C12_16  and  N4_17 
REMARK    5  A    between atoms: N4_17  and  C13_18 
ROOT
HETATM    1  C2  UNL     1      27.176  -0.417  53.276  1.00  0.00     0.069 A 
HETATM    2  C3  UNL     1      26.210  -0.245  54.235  1.00  0.00     0.039 A 
HETATM    3  C4  UNL     1      25.371   0.851  54.240  1.00  0.00     0.040 A 
HETATM    4  C5  UNL     1      25.481   1.836  53.254  1.00  0.00     0.085 A 
HETATM    5  C6  UNL     1      26.470   1.610  52.316  1.00  0.00     0.006 A 
HETATM    6  C7  UNL     1      27.310   0.537  52.289  1.00  0.00     0.048 A 
HETATM    7  C8  UNL     1      26.736   2.560  51.182  1.00  0.00     0.311 C 
HETATM    8  N1  UNL     1      25.491   2.714  50.499  1.00  0.00     0.095 N 
HETATM    9  C9  UNL     1      24.660   3.790  50.953  1.00  0.00     0.356 C 
HETATM   10  C10 UNL     1      24.052   3.580  52.278  1.00  0.00     0.175 C 
HETATM   11  N2  UNL     1      22.869   4.102  52.485  1.00  0.00    -0.220 NA
HETATM   12  O2  UNL     1      24.566   2.882  53.389  1.00  0.00    -0.293 OA
HETATM   13  H9  UNL     1      25.720   2.927  49.494  1.00  0.00     0.316 HD
ENDROOT
BRANCH  11  14
HETATM   14  C11 UNL     1      22.319   4.815  51.382  1.00  0.00     0.231 C 
HETATM   15  N3  UNL     1      21.056   4.486  51.270  1.00  0.00    -0.263 NA
BRANCH  15  16
HETATM   16  C12 UNL     1      20.576   3.528  52.252  1.00  0.00     0.272 C 
BRANCH  16  17
HETATM   17  N4  UNL     1      20.717   2.217  51.646  1.00  0.00    -0.372 N 
HETATM   18  H15 UNL     1      20.812   2.122  50.621  1.00  0.00     0.161 HD
BRANCH  17  19
HETATM   19  C13 UNL     1      20.721   1.069  52.457  1.00  0.00     0.030 A 
HETATM   20  C14 UNL     1      21.799   0.625  53.169  1.00  0.00     0.029 A 
HETATM   21  C15 UNL     1      21.833  -0.501  53.975  1.00  0.00     0.004 A 
HETATM   22  C16 UNL     1      20.686  -1.261  54.083  1.00  0.00     0.019 A 
HETATM   23  C17 UNL     1      19.569  -0.857  53.382  1.00  0.00     0.013 A 
HETATM   24 BR1  UNL     1      17.904  -1.814  53.437  1.00  0.00    -0.051 Br
HETATM   25  C18 UNL     1      19.587   0.283  52.587  1.00  0.00     0.048 A 
ENDBRANCH  17  19
ENDBRANCH  16  17
ENDBRANCH  15  16
ENDBRANCH  11  14
BRANCH   1  26
HETATM   26  O1  UNL     1      27.953  -1.550  53.375  1.00  0.00    -0.356 OA
HETATM   27  C1  UNL     1      29.351  -1.583  53.378  1.00  0.00     0.210 C 
ENDBRANCH   1  26
TORSDOF 5
ENDMDL
MODEL 2
REMARK VINA RESULT:      -7.5      3.062      5.429
REMARK  5 active torsions:
REMARK  status: ('A' for Active; 'I' for Inactive)
REMARK    1  A    between atoms: O1_2  and  C2_3 
REMARK    2  A    between atoms: N2_13  and  C11_14 
REMARK    3  A    between atoms: N3_15  and  C12_16 
REMARK    4  A    between atoms: C12_16  and  N4_17 
REMARK    5  A    between atoms: N4_17  and  C13_18 
ROOT
HETATM    1  C2  UNL     1      26.993  -0.391  53.442  1.00  0.00     0.069 A 
HETATM    2  C3  UNL     1      27.208   0.655  52.580  1.00  0.00     0.039 A 
HETATM    3  C4  UNL     1      26.167   1.311  51.953  1.00  0.00     0.040 A 
HETATM    4  C5  UNL     1      24.843   0.924  52.178  1.00  0.00     0.085 A 
HETATM    5  C6  UNL     1      24.689  -0.133  53.055  1.00  0.00     0.006 A 
HETATM    6  C7  UNL     1      25.698  -0.796  53.686  1.00  0.00     0.048 A 
HETATM    7  C8  UNL     1      23.339  -0.686  53.419  1.00  0.00     0.311 C 
HETATM    8  N1  UNL     1      22.580   0.421  53.907  1.00  0.00     0.095 N 
HETATM    9  C9  UNL     1      21.813   1.131  52.926  1.00  0.00     0.356 C 
HETATM   10  C10 UNL     1      22.611   1.931  51.982  1.00  0.00     0.175 C 
HETATM   11  N2  UNL     1      22.076   3.038  51.532  1.00  0.00    -0.220 NA
HETATM   12  O2  UNL     1      23.902   1.679  51.477  1.00  0.00    -0.293 OA
HETATM   13  H9  UNL     1      21.885   0.033  54.596  1.00  0.00     0.316 HD
ENDROOT
BRANCH  11  14
HETATM   14  C11 UNL     1      20.770   3.325  52.023  1.00  0.00     0.231 C 
HETATM   15  N3  UNL     1      20.365   4.445  51.480  1.00  0.00    -0.263 NA
BRANCH  15  16
HETATM   16  C12 UNL     1      21.307   5.066  50.565  1.00  0.00     0.272 C 
BRANCH  16  17
HETATM   17  N4  UNL     1      22.110   5.975  51.362  1.00  0.00    -0.372 N 
HETATM   18  H15 UNL     1      21.774   6.297  52.284  1.00  0.00     0.161 HD
BRANCH  17  19
HETATM   19  C13 UNL     1      23.351   6.422  50.875  1.00  0.00     0.030 A 
HETATM   20  C14 UNL     1      23.745   7.729  50.837  1.00  0.00     0.029 A 
HETATM   21  C15 UNL     1      24.959   8.199  50.364  1.00  0.00     0.004 A 
HETATM   22  C16 UNL     1      25.869   7.281  49.879  1.00  0.00     0.019 A 
HETATM   23  C17 UNL     1      25.520   5.947  49.893  1.00  0.00     0.013 A 
HETATM   24 BR1  UNL     1      26.684   4.560  49.252  1.00  0.00    -0.051 Br
HETATM   25  C18 UNL     1      24.287   5.527  50.381  1.00  0.00     0.048 A 
ENDBRANCH  17  19
ENDBRANCH  16  17
ENDBRANCH  15  16
ENDBRANCH  11  14
BRANCH   1  26
HETATM   26  O1  UNL     1      28.109  -0.967  54.007  1.00  0.00    -0.356 OA
HETATM   27  C1  UNL     1      29.412  -0.891  53.503  1.00  0.00     0.210 C 
ENDBRANCH   1  26
TORSDOF 5
ENDMDL
MODEL 3
REMARK VINA RESULT:      -7.5      2.830      5.776
REMARK  5 active torsions:
REMARK  status: ('A' for Active; 'I' for Inactive)
REMARK    1  A    between atoms: O1_2  and  C2_3 
REMARK    2  A    between atoms: N2_13  and  C11_14 
REMARK    3  A    between atoms: N3_15  and  C12_16 
REMARK    4  A    between atoms: C12_16  and  N4_17 
REMARK    5  A    between atoms: N4_17  and  C13_18 
ROOT
HETATM    1  C2  UNL     1      22.864   6.019  50.291  1.00  0.00     0.069 A 
HETATM    2  C3  UNL     1      22.448   5.740  51.568  1.00  0.00     0.039 A 
HETATM    3  C4  UNL     1      23.010   4.723  52.314  1.00  0.00     0.040 A 
HETATM    4  C5  UNL     1      24.035   3.933  51.784  1.00  0.00     0.085 A 
HETATM    5  C6  UNL     1      24.411   4.261  50.495  1.00  0.00     0.006 A 
HETATM    6  C7  UNL     1      23.873   5.259  49.739  1.00  0.00     0.048 A 
HETATM    7  C8  UNL     1      25.495   3.522  49.761  1.00  0.00     0.311 C 
HETATM    8  N1  UNL     1      26.650   3.585  50.600  1.00  0.00     0.095 N 
HETATM    9  C9  UNL     1      26.805   2.504  51.528  1.00  0.00     0.356 C 
HETATM   10  C10 UNL     1      25.840   2.505  52.640  1.00  0.00     0.175 C 
HETATM   11  N2  UNL     1      26.252   2.038  53.792  1.00  0.00    -0.220 NA
HETATM   12  O2  UNL     1      24.502   2.947  52.653  1.00  0.00    -0.293 OA
HETATM   13  H9  UNL     1      27.489   3.548  49.965  1.00  0.00     0.316 HD
ENDROOT
BRANCH  11  14
HETATM   14  C11 UNL     1      27.601   1.583  53.815  1.00  0.00     0.231 C 
HETATM   15  N3  UNL     1      27.681   0.580  54.653  1.00  0.00    -0.263 NA
BRANCH  15  16
HETATM   16  C12 UNL     1      26.434   0.216  55.304  1.00  0.00     0.272 C 
BRANCH  16  17
HETATM   17  N4  UNL     1      25.816  -0.794  54.465  1.00  0.00    -0.372 N 
HETATM   18  H15 UNL     1      26.400  -1.465  53.938  1.00  0.00     0.161 HD
BRANCH  17  19
HETATM   19  C13 UNL     1      24.415  -0.860  54.366  1.00  0.00     0.030 A 
HETATM   20  C14 UNL     1      23.597  -1.427  55.300  1.00  0.00     0.029 A 
HETATM   21  C15 UNL     1      22.216  -1.507  55.230  1.00  0.00     0.004 A 
HETATM   22  C16 UNL     1      21.588  -0.972  54.124  1.00  0.00     0.019 A 
HETATM   23  C17 UNL     1      22.369  -0.388  53.150  1.00  0.00     0.013 A 
HETATM   24 BR1  UNL     1      21.634   0.397  51.558  1.00  0.00    -0.051 Br
HETATM   25  C18 UNL     1      23.753  -0.333  53.268  1.00  0.00     0.048 A 
ENDBRANCH  17  19
ENDBRANCH  16  17
ENDBRANCH  15  16
ENDBRANCH  11  14
BRANCH   1  26
HETATM   26  O1  UNL     1      22.228   7.057  49.645  1.00  0.00    -0.356 OA
HETATM   27  C1  UNL     1      21.010   7.631  50.024  1.00  0.00     0.210 C 
ENDBRANCH   1  26
TORSDOF 5
ENDMDL
MODEL 4
REMARK VINA RESULT:      -7.5      2.945      6.747
REMARK  5 active torsions:
REMARK  status: ('A' for Active; 'I' for Inactive)
REMARK    1  A    between atoms: O1_2  and  C2_3 
REMARK    2  A    between atoms: N2_13  and  C11_14 
REMARK    3  A    between atoms: N3_15  and  C12_16 
REMARK    4  A    between atoms: C12_16  and  N4_17 
REMARK    5  A    between atoms: N4_17  and  C13_18 
ROOT
HETATM    1  C2  UNL     1      19.026  -0.522  52.831  1.00  0.00     0.069 A 
HETATM    2  C3  UNL     1      20.237  -0.764  53.430  1.00  0.00     0.039 A 
HETATM    3  C4  UNL     1      21.419  -0.268  52.916  1.00  0.00     0.040 A 
HETATM    4  C5  UNL     1      21.420   0.506  51.752  1.00  0.00     0.085 A 
HETATM    5  C6  UNL     1      20.173   0.717  51.194  1.00  0.00     0.006 A 
HETATM    6  C7  UNL     1      18.993   0.239  51.682  1.00  0.00     0.048 A 
HETATM    7  C8  UNL     1      19.977   1.525  49.942  1.00  0.00     0.311 C 
HETATM    8  N1  UNL     1      20.580   2.795  50.197  1.00  0.00     0.095 N 
HETATM    9  C9  UNL     1      21.960   2.914  49.830  1.00  0.00     0.356 C 
HETATM   10  C10 UNL     1      22.891   2.159  50.686  1.00  0.00     0.175 C 
HETATM   11  N2  UNL     1      24.082   2.669  50.871  1.00  0.00    -0.220 NA
HETATM   12  O2  UNL     1      22.687   0.936  51.355  1.00  0.00    -0.293 OA
HETATM   13  H9  UNL     1      20.061   3.500  49.612  1.00  0.00     0.316 HD
ENDROOT
BRANCH  11  14
HETATM   14  C11 UNL     1      24.323   3.907  50.210  1.00  0.00     0.231 C 
HETATM   15  N3  UNL     1      25.599   3.977  49.924  1.00  0.00    -0.263 NA
BRANCH  15  16
HETATM   16  C12 UNL     1      26.391   2.831  50.337  1.00  0.00     0.272 C 
BRANCH  16  17
HETATM   17  N4  UNL     1      26.820   3.100  51.697  1.00  0.00    -0.372 N 
HETATM   18  H15 UNL     1      26.696   4.040  52.108  1.00  0.00     0.161 HD
BRANCH  17  19
HETATM   19  C13 UNL     1      27.410   2.077  52.460  1.00  0.00     0.030 A 
HETATM   20  C14 UNL     1      28.358   2.274  53.422  1.00  0.00     0.029 A 
HETATM   21  C15 UNL     1      28.957   1.288  54.188  1.00  0.00     0.004 A 
HETATM   22  C16 UNL     1      28.578  -0.022  53.976  1.00  0.00     0.019 A 
HETATM   23  C17 UNL     1      27.624  -0.277  53.014  1.00  0.00     0.013 A 
HETATM   24 BR1  UNL     1      26.999  -2.048  52.611  1.00  0.00    -0.051 Br
HETATM   25  C18 UNL     1      27.053   0.751  52.272  1.00  0.00     0.048 A 
ENDBRANCH  17  19
ENDBRANCH  16  17
ENDBRANCH  15  16
ENDBRANCH  11  14
BRANCH   1  26
HETATM   26  O1  UNL     1      17.916  -1.069  53.435  1.00  0.00    -0.356 OA
HETATM   27  C1  UNL     1      16.760  -1.505  52.778  1.00  0.00     0.210 C 
ENDBRANCH   1  26
TORSDOF 5
ENDMDL
MODEL 5
REMARK VINA RESULT:      -7.4      1.773      2.205
REMARK  5 active torsions:
REMARK  status: ('A' for Active; 'I' for Inactive)
REMARK    1  A    between atoms: O1_2  and  C2_3 
REMARK    2  A    between atoms: N2_13  and  C11_14 
REMARK    3  A    between atoms: N3_15  and  C12_16 
REMARK    4  A    between atoms: C12_16  and  N4_17 
REMARK    5  A    between atoms: N4_17  and  C13_18 
ROOT
HETATM    1  C2  UNL     1      27.340  -0.467  53.481  1.00  0.00     0.069 A 
HETATM    2  C3  UNL     1      26.057  -0.861  53.768  1.00  0.00     0.039 A 
HETATM    3  C4  UNL     1      24.959  -0.145  53.336  1.00  0.00     0.040 A 
HETATM    4  C5  UNL     1      25.120   1.021  52.582  1.00  0.00     0.085 A 
HETATM    5  C6  UNL     1      26.432   1.368  52.324  1.00  0.00     0.006 A 
HETATM    6  C7  UNL     1      27.533   0.679  52.739  1.00  0.00     0.048 A 
HETATM    7  C8  UNL     1      26.800   2.589  51.529  1.00  0.00     0.311 C 
HETATM    8  N1  UNL     1      26.111   2.470  50.284  1.00  0.00     0.095 N 
HETATM    9  C9  UNL     1      24.807   3.064  50.235  1.00  0.00     0.356 C 
HETATM   10  C10 UNL     1      23.779   2.358  51.017  1.00  0.00     0.175 C 
HETATM   11  N2  UNL     1      22.553   2.386  50.559  1.00  0.00    -0.220 NA
HETATM   12  O2  UNL     1      23.920   1.634  52.218  1.00  0.00    -0.293 OA
HETATM   13  H9  UNL     1      26.690   2.977  49.566  1.00  0.00     0.316 HD
ENDROOT
BRANCH  11  14
HETATM   14  C11 UNL     1      22.374   3.109  49.346  1.00  0.00     0.231 C 
HETATM   15  N3  UNL     1      21.573   2.419  48.572  1.00  0.00    -0.263 NA
BRANCH  15  16
HETATM   16  C12 UNL     1      21.103   1.162  49.130  1.00  0.00     0.272 C 
BRANCH  16  17
HETATM   17  N4  UNL     1      19.849   1.456  49.798  1.00  0.00    -0.372 N 
HETATM   18  H15 UNL     1      19.253   2.236  49.472  1.00  0.00     0.161 HD
BRANCH  17  19
HETATM   19  C13 UNL     1      19.442   0.678  50.896  1.00  0.00     0.030 A 
HETATM   20  C14 UNL     1      18.208   0.108  51.029  1.00  0.00     0.029 A 
HETATM   21  C15 UNL     1      17.779  -0.662  52.097  1.00  0.00     0.004 A 
HETATM   22  C16 UNL     1      18.661  -0.886  53.135  1.00  0.00     0.019 A 
HETATM   23  C17 UNL     1      19.921  -0.331  53.051  1.00  0.00     0.013 A 
HETATM   24 BR1  UNL     1      21.252  -0.558  54.418  1.00  0.00    -0.051 Br
HETATM   25  C18 UNL     1      20.302   0.434  51.955  1.00  0.00     0.048 A 
ENDBRANCH  17  19
ENDBRANCH  16  17
ENDBRANCH  15  16
ENDBRANCH  11  14
BRANCH   1  26
HETATM   26  O1  UNL     1      28.356  -1.261  53.966  1.00  0.00    -0.356 OA
HETATM   27  C1  UNL     1      29.685  -1.243  53.530  1.00  0.00     0.210 C 
ENDBRANCH   1  26
TORSDOF 5
ENDMDL
MODEL 6
REMARK VINA RESULT:      -7.2      5.982      9.219
REMARK  5 active torsions:
REMARK  status: ('A' for Active; 'I' for Inactive)
REMARK    1  A    between atoms: O1_2  and  C2_3 
REMARK    2  A    between atoms: N2_13  and  C11_14 
REMARK    3  A    between atoms: N3_15  and  C12_16 
REMARK    4  A    between atoms: C12_16  and  N4_17 
REMARK    5  A    between atoms: N4_17  and  C13_18 
ROOT
HETATM    1  C2  UNL     1      25.155   0.621  53.084  1.00  0.00     0.069 A 
HETATM    2  C3  UNL     1      26.452   0.499  52.655  1.00  0.00     0.039 A 
HETATM    3  C4  UNL     1      26.950   1.247  51.606  1.00  0.00     0.040 A 
HETATM    4  C5  UNL     1      26.135   2.166  50.938  1.00  0.00     0.085 A 
HETATM    5  C6  UNL     1      24.840   2.246  51.414  1.00  0.00     0.006 A 
HETATM    6  C7  UNL     1      24.326   1.519  52.446  1.00  0.00     0.048 A 
HETATM    7  C8  UNL     1      23.821   3.178  50.820  1.00  0.00     0.311 C 
HETATM    8  N1  UNL     1      24.404   4.481  50.871  1.00  0.00     0.095 N 
HETATM    9  C9  UNL     1      25.156   4.873  49.716  1.00  0.00     0.356 C 
HETATM   10  C10 UNL     1      26.437   4.168  49.548  1.00  0.00     0.175 C 
HETATM   11  N2  UNL     1      27.420   4.834  48.996  1.00  0.00    -0.220 NA
HETATM   12  O2  UNL     1      26.776   2.847  49.902  1.00  0.00    -0.293 OA
HETATM   13  H9  UNL     1      23.609   5.166  50.949  1.00  0.00     0.316 HD
ENDROOT
BRANCH  11  14
HETATM   14  C11 UNL     1      27.113   6.174  48.626  1.00  0.00     0.231 C 
HETATM   15  N3  UNL     1      28.166   6.690  48.042  1.00  0.00    -0.263 NA
BRANCH  15  16
HETATM   16  C12 UNL     1      29.311   5.801  47.932  1.00  0.00     0.272 C 
BRANCH  16  17
HETATM   17  N4  UNL     1      30.181   6.118  49.049  1.00  0.00    -0.372 N 
HETATM   18  H15 UNL     1      29.797   6.198  50.005  1.00  0.00     0.161 HD
BRANCH  17  19
HETATM   19  C13 UNL     1      31.555   6.321  48.829  1.00  0.00     0.030 A 
HETATM   20  C14 UNL     1      32.185   7.529  48.918  1.00  0.00     0.029 A 
HETATM   21  C15 UNL     1      33.535   7.759  48.707  1.00  0.00     0.004 A 
HETATM   22  C16 UNL     1      34.335   6.685  48.374  1.00  0.00     0.019 A 
HETATM   23  C17 UNL     1      33.748   5.442  48.270  1.00  0.00     0.013 A 
HETATM   24 BR1  UNL     1      34.736   3.859  47.816  1.00  0.00    -0.051 Br
HETATM   25  C18 UNL     1      32.387   5.265  48.493  1.00  0.00     0.048 A 
ENDBRANCH  17  19
ENDBRANCH  16  17
ENDBRANCH  15  16
ENDBRANCH  11  14
BRANCH   1  26
HETATM   26  O1  UNL     1      24.773  -0.178  54.139  1.00  0.00    -0.356 OA
HETATM   27  C1  UNL     1      25.594  -0.582  55.196  1.00  0.00     0.210 C 
ENDBRANCH   1  26
TORSDOF 5
ENDMDL
MODEL 7
REMARK VINA RESULT:      -7.1      3.177      6.099
REMARK  5 active torsions:
REMARK  status: ('A' for Active; 'I' for Inactive)
REMARK    1  A    between atoms: O1_2  and  C2_3 
REMARK    2  A    between atoms: N2_13  and  C11_14 
REMARK    3  A    between atoms: N3_15  and  C12_16 
REMARK    4  A    between atoms: C12_16  and  N4_17 
REMARK    5  A    between atoms: N4_17  and  C13_18 
ROOT
HETATM    1  C2  UNL     1      20.458   0.683  52.872  1.00  0.00     0.069 A 
HETATM    2  C3  UNL     1      21.081   0.041  51.831  1.00  0.00     0.039 A 
HETATM    3  C4  UNL     1      21.712   0.734  50.817  1.00  0.00     0.040 A 
HETATM    4  C5  UNL     1      21.738   2.131  50.818  1.00  0.00     0.085 A 
HETATM    5  C6  UNL     1      21.096   2.722  51.891  1.00  0.00     0.006 A 
HETATM    6  C7  UNL     1      20.466   2.061  52.903  1.00  0.00     0.048 A 
HETATM    7  C8  UNL     1      21.020   4.214  52.060  1.00  0.00     0.311 C 
HETATM    8  N1  UNL     1      22.369   4.682  52.027  1.00  0.00     0.095 N 
HETATM    9  C9  UNL     1      22.870   5.046  50.734  1.00  0.00     0.356 C 
HETATM   10  C10 UNL     1      23.106   3.912  49.824  1.00  0.00     0.175 C 
HETATM   11  N2  UNL     1      24.093   4.024  48.971  1.00  0.00    -0.220 NA
HETATM   12  O2  UNL     1      22.412   2.690  49.732  1.00  0.00    -0.293 OA
HETATM   13  H9  UNL     1      22.402   5.558  52.609  1.00  0.00     0.316 HD
ENDROOT
BRANCH  11  14
HETATM   14  C11 UNL     1      24.818   5.248  49.038  1.00  0.00     0.231 C 
HETATM   15  N3  UNL     1      26.057   4.973  49.362  1.00  0.00    -0.263 NA
BRANCH  15  16
HETATM   16  C12 UNL     1      26.348   3.563  49.558  1.00  0.00     0.272 C 
BRANCH  16  17
HETATM   17  N4  UNL     1      26.924   3.447  50.885  1.00  0.00    -0.372 N 
HETATM   18  H15 UNL     1      27.603   4.148  51.224  1.00  0.00     0.161 HD
BRANCH  17  19
HETATM   19  C13 UNL     1      26.558   2.372  51.714  1.00  0.00     0.030 A 
HETATM   20  C14 UNL     1      25.315   1.808  51.751  1.00  0.00     0.029 A 
HETATM   21  C15 UNL     1      24.925   0.751  52.557  1.00  0.00     0.004 A 
HETATM   22  C16 UNL     1      25.862   0.201  53.409  1.00  0.00     0.019 A 
HETATM   23  C17 UNL     1      27.133   0.735  53.412  1.00  0.00     0.013 A 
HETATM   24 BR1  UNL     1      28.537   0.073  54.543  1.00  0.00    -0.051 Br
HETATM   25  C18 UNL     1      27.473   1.797  52.582  1.00  0.00     0.048 A 
ENDBRANCH  17  19
ENDBRANCH  16  17
ENDBRANCH  15  16
ENDBRANCH  11  14
BRANCH   1  26
HETATM   26  O1  UNL     1      19.862  -0.114  53.824  1.00  0.00    -0.356 OA
HETATM   27  C1  UNL     1      19.155  -1.294  53.574  1.00  0.00     0.210 C 
ENDBRANCH   1  26
TORSDOF 5
ENDMDL
MODEL 8
REMARK VINA RESULT:      -7.1      4.265      7.843
REMARK  5 active torsions:
REMARK  status: ('A' for Active; 'I' for Inactive)
REMARK    1  A    between atoms: O1_2  and  C2_3 
REMARK    2  A    between atoms: N2_13  and  C11_14 
REMARK    3  A    between atoms: N3_15  and  C12_16 
REMARK    4  A    between atoms: C12_16  and  N4_17 
REMARK    5  A    between atoms: N4_17  and  C13_18 
ROOT
HETATM    1  C2  UNL     1      20.120  -0.856  53.537  1.00  0.00     0.069 A 
HETATM    2  C3  UNL     1      19.903   0.280  52.797  1.00  0.00     0.039 A 
HETATM    3  C4  UNL     1      20.919   1.170  52.511  1.00  0.00     0.040 A 
HETATM    4  C5  UNL     1      22.218   0.941  52.972  1.00  0.00     0.085 A 
HETATM    5  C6  UNL     1      22.376  -0.217  53.710  1.00  0.00     0.006 A 
HETATM    6  C7  UNL     1      21.390  -1.111  54.006  1.00  0.00     0.048 A 
HETATM    7  C8  UNL     1      23.700  -0.629  54.288  1.00  0.00     0.311 C 
HETATM    8  N1  UNL     1      24.614  -0.664  53.190  1.00  0.00     0.095 N 
HETATM    9  C9  UNL     1      25.322   0.555  52.930  1.00  0.00     0.356 C 
HETATM   10  C10 UNL     1      24.495   1.639  52.373  1.00  0.00     0.175 C 
HETATM   11  N2  UNL     1      25.075   2.468  51.542  1.00  0.00    -0.220 NA
HETATM   12  O2  UNL     1      23.136   1.926  52.604  1.00  0.00    -0.293 OA
HETATM   13  H9  UNL     1      25.346  -1.382  53.427  1.00  0.00     0.316 HD
ENDROOT
BRANCH  11  14
HETATM   14  C11 UNL     1      26.451   2.207  51.284  1.00  0.00     0.231 C 
HETATM   15  N3  UNL     1      26.824   2.941  50.266  1.00  0.00    -0.263 NA
BRANCH  15  16
HETATM   16  C12 UNL     1      25.786   3.784  49.697  1.00  0.00     0.272 C 
BRANCH  16  17
HETATM   17  N4  UNL     1      26.142   5.151  50.032  1.00  0.00    -0.372 N 
HETATM   18  H15 UNL     1      26.136   5.467  51.016  1.00  0.00     0.161 HD
BRANCH  17  19
HETATM   19  C13 UNL     1      26.496   6.051  49.011  1.00  0.00     0.030 A 
HETATM   20  C14 UNL     1      27.759   6.207  48.517  1.00  0.00     0.029 A 
HETATM   21  C15 UNL     1      28.137   7.085  47.514  1.00  0.00     0.004 A 
HETATM   22  C16 UNL     1      27.166   7.886  46.950  1.00  0.00     0.019 A 
HETATM   23  C17 UNL     1      25.873   7.769  47.414  1.00  0.00     0.013 A 
HETATM   24 BR1  UNL     1      24.420   8.819  46.723  1.00  0.00    -0.051 Br
HETATM   25  C18 UNL     1      25.546   6.871  48.423  1.00  0.00     0.048 A 
ENDBRANCH  17  19
ENDBRANCH  16  17
ENDBRANCH  15  16
ENDBRANCH  11  14
BRANCH   1  26
HETATM   26  O1  UNL     1      19.030  -1.669  53.758  1.00  0.00    -0.356 OA
HETATM   27  C1  UNL     1      17.790  -1.564  53.118  1.00  0.00     0.210 C 
ENDBRANCH   1  26
TORSDOF 5
ENDMDL
MODEL 9
REMARK VINA RESULT:      -7.0      5.753      9.083
REMARK  5 active torsions:
REMARK  status: ('A' for Active; 'I' for Inactive)
REMARK    1  A    between atoms: O1_2  and  C2_3 
REMARK    2  A    between atoms: N2_13  and  C11_14 
REMARK    3  A    between atoms: N3_15  and  C12_16 
REMARK    4  A    between atoms: C12_16  and  N4_17 
REMARK    5  A    between atoms: N4_17  and  C13_18 
ROOT
HETATM    1  C2  UNL     1      24.077   2.305  52.262  1.00  0.00     0.069 A 
HETATM    2  C3  UNL     1      25.070   1.989  51.371  1.00  0.00     0.039 A 
HETATM    3  C4  UNL     1      25.580   2.918  50.485  1.00  0.00     0.040 A 
HETATM    4  C5  UNL     1      25.093   4.228  50.468  1.00  0.00     0.085 A 
HETATM    5  C6  UNL     1      24.095   4.487  51.388  1.00  0.00     0.006 A 
HETATM    6  C7  UNL     1      23.575   3.589  52.271  1.00  0.00     0.048 A 
HETATM    7  C8  UNL     1      23.450   5.839  51.515  1.00  0.00     0.311 C 
HETATM    8  N1  UNL     1      24.517   6.764  51.732  1.00  0.00     0.095 N 
HETATM    9  C9  UNL     1      25.079   7.354  50.553  1.00  0.00     0.356 C 
HETATM   10  C10 UNL     1      25.875   6.434  49.724  1.00  0.00     0.175 C 
HETATM   11  N2  UNL     1      26.892   6.941  49.074  1.00  0.00    -0.220 NA
HETATM   12  O2  UNL     1      25.705   5.051  49.521  1.00  0.00    -0.293 OA
HETATM   13  H9  UNL     1      24.119   7.559  52.296  1.00  0.00     0.316 HD
ENDROOT
BRANCH  11  14
HETATM   14  C11 UNL     1      27.095   8.339  49.257  1.00  0.00     0.231 C 
HETATM   15  N3  UNL     1      28.227   8.667  48.686  1.00  0.00    -0.263 NA
BRANCH  15  16
HETATM   16  C12 UNL     1      28.940   7.573  48.049  1.00  0.00     0.272 C 
BRANCH  16  17
HETATM   17  N4  UNL     1      29.790   6.990  49.071  1.00  0.00    -0.372 N 
HETATM   18  H15 UNL     1      29.497   6.998  50.062  1.00  0.00     0.161 HD
BRANCH  17  19
HETATM   19  C13 UNL     1      31.021   6.414  48.711  1.00  0.00     0.030 A 
HETATM   20  C14 UNL     1      32.243   6.915  49.057  1.00  0.00     0.029 A 
HETATM   21  C15 UNL     1      33.471   6.371  48.717  1.00  0.00     0.004 A 
HETATM   22  C16 UNL     1      33.485   5.217  47.960  1.00  0.00     0.019 A 
HETATM   23  C17 UNL     1      32.277   4.670  47.583  1.00  0.00     0.013 A 
HETATM   24 BR1  UNL     1      32.143   3.069  46.530  1.00  0.00    -0.051 Br
HETATM   25  C18 UNL     1      31.071   5.256  47.951  1.00  0.00     0.048 A 
ENDBRANCH  17  19
ENDBRANCH  16  17
ENDBRANCH  15  16
ENDBRANCH  11  14
BRANCH   1  26
HETATM   26  O1  UNL     1      23.648   1.296  53.096  1.00  0.00    -0.356 OA
HETATM   27  C1  UNL     1      24.420   0.213  53.531  1.00  0.00     0.210 C 
ENDBRANCH   1  26
TORSDOF 5
ENDMDL
