MODEL 1
REMARK VINA RESULT:      -8.6      0.000      0.000
REMARK  7 active torsions:
REMARK  status: ('A' for Active; 'I' for Inactive)
REMARK    1  A    between atoms: C3_5  and  C4_6 
REMARK    2  A    between atoms: C5_7  and  C6_8 
REMARK    3  A    between atoms: C7_9  and  C8_10 
REMARK    4  A    between atoms: C13_17  and  N3_18 
REMARK    5  A    between atoms: N3_18  and  C14_19 
REMARK    6  A    between atoms: C18_23  and  C19_24 
REMARK    7  A    between atoms: C19_24  and  O2_25 
ROOT
HETATM    1  C1  UNL     1      23.368  -1.276  55.203  1.00  0.00     0.161 C 
HETATM    2  N1  UNL     1      22.541  -0.729  54.137  1.00  0.00    -0.301 N 
HETATM    3  C2  UNL     1      21.232  -0.989  54.048  1.00  0.00     0.259 A 
HETATM    4  O1  UNL     1      20.787  -1.736  54.955  1.00  0.00    -0.267 OA
HETATM    5  C3  UNL     1      20.344  -0.543  53.099  1.00  0.00     0.033 A 
HETATM    6  C10 UNL     1      20.952   0.275  52.145  1.00  0.00     0.033 A 
HETATM    7  C11 UNL     1      22.279   0.570  52.193  1.00  0.00     0.030 A 
HETATM    8  C12 UNL     1      22.833   1.381  51.229  1.00  0.00     0.151 A 
HETATM    9  N2  UNL     1      24.142   1.647  51.309  1.00  0.00    -0.074 NA
HETATM   10  C13 UNL     1      24.967   1.182  52.263  1.00  0.00     0.728 A 
HETATM   11  N4  UNL     1      24.365   0.404  53.162  1.00  0.00    -0.044 NA
HETATM   12  C21 UNL     1      23.078   0.065  53.193  1.00  0.00     0.163 A 
ENDROOT
BRANCH  10  13
HETATM   13  N3  UNL     1      26.330   1.543  52.219  1.00  0.00    -0.188 N 
HETATM   14  H12 UNL     1      26.582   2.410  51.655  1.00  0.00     0.184 HD
BRANCH  13  15
HETATM   15  C14 UNL     1      27.437   0.905  52.828  1.00  0.00     0.050 A 
HETATM   16  C15 UNL     1      28.344   1.602  53.597  1.00  0.00     0.030 A 
HETATM   17  C16 UNL     1      29.426   1.012  54.206  1.00  0.00     0.003 A 
HETATM   18  C17 UNL     1      29.660  -0.341  54.074  1.00  0.00     0.009 A 
HETATM   19  C18 UNL     1      28.787  -1.091  53.317  1.00  0.00    -0.033 A 
HETATM   20  C20 UNL     1      27.725  -0.438  52.735  1.00  0.00     0.039 A 
BRANCH  19  21
HETATM   21  C19 UNL     1      29.006  -2.554  53.155  1.00  0.00     0.203 C 
BRANCH  21  22
HETATM   22  O2  UNL     1      27.824  -3.143  52.704  1.00  0.00    -0.396 OA
HETATM   23  H18 UNL     1      27.087  -2.554  53.005  1.00  0.00     0.209 HD
ENDBRANCH  21  22
ENDBRANCH  19  21
ENDBRANCH  13  15
ENDBRANCH  10  13
BRANCH   5  24
HETATM   24  C4  UNL     1      18.945  -0.822  53.009  1.00  0.00     0.017 C 
HETATM   25  C5  UNL     1      18.078  -0.412  52.104  1.00  0.00     0.001 C 
BRANCH  25  26
HETATM   26  C6  UNL     1      16.646  -0.786  52.139  1.00  0.00     0.000 C 
HETATM   27  C7  UNL     1      16.215  -2.017  52.331  1.00  0.00     0.001 C 
BRANCH  27  28
HETATM   28  C8  UNL     1      14.781  -2.221  52.336  1.00  0.00     0.012 C 
HETATM   29  C9  UNL     1      13.906  -1.236  52.347  1.00  0.00     0.084 C 
HETATM   30 CL1  UNL     1      12.171  -1.408  52.352  1.00  0.00    -0.097 Cl
ENDBRANCH  27  28
ENDBRANCH  25  26
ENDBRANCH   5  24
TORSDOF 7
ENDMDL
MODEL 2
REMARK VINA RESULT:      -8.4      2.305      3.051
REMARK  7 active torsions:
REMARK  status: ('A' for Active; 'I' for Inactive)
REMARK    1  A    between atoms: C3_5  and  C4_6 
REMARK    2  A    between atoms: C5_7  and  C6_8 
REMARK    3  A    between atoms: C7_9  and  C8_10 
REMARK    4  A    between atoms: C13_17  and  N3_18 
REMARK    5  A    between atoms: N3_18  and  C14_19 
REMARK    6  A    between atoms: C18_23  and  C19_24 
REMARK    7  A    between atoms: C19_24  and  O2_25 
ROOT
HETATM    1  C1  UNL     1      20.222   1.550  51.326  1.00  0.00     0.161 C 
HETATM    2  N1  UNL     1      20.198   0.424  52.249  1.00  0.00    -0.301 N 
HETATM    3  C2  UNL     1      19.088  -0.289  52.472  1.00  0.00     0.259 A 
HETATM    4  O1  UNL     1      18.084   0.094  51.821  1.00  0.00    -0.267 OA
HETATM    5  C3  UNL     1      18.929  -1.366  53.311  1.00  0.00     0.033 A 
HETATM    6  C10 UNL     1      20.109  -1.698  53.979  1.00  0.00     0.033 A 
HETATM    7  C11 UNL     1      21.263  -1.003  53.786  1.00  0.00     0.030 A 
HETATM    8  C12 UNL     1      22.401  -1.369  54.468  1.00  0.00     0.151 A 
HETATM    9  N2  UNL     1      23.517  -0.662  54.252  1.00  0.00    -0.074 NA
HETATM   10  C13 UNL     1      23.616   0.385  53.417  1.00  0.00     0.728 A 
HETATM   11  N4  UNL     1      22.478   0.685  52.790  1.00  0.00    -0.044 NA
HETATM   12  C21 UNL     1      21.308   0.062  52.917  1.00  0.00     0.163 A 
ENDROOT
BRANCH  10  13
HETATM   13  N3  UNL     1      24.859   1.041  53.292  1.00  0.00    -0.188 N 
HETATM   14  H12 UNL     1      24.836   2.097  53.154  1.00  0.00     0.184 HD
BRANCH  13  15
HETATM   15  C14 UNL     1      26.161   0.490  53.324  1.00  0.00     0.050 A 
HETATM   16  C15 UNL     1      27.256   1.231  53.716  1.00  0.00     0.030 A 
HETATM   17  C16 UNL     1      28.532   0.724  53.763  1.00  0.00     0.003 A 
HETATM   18  C17 UNL     1      28.785  -0.586  53.413  1.00  0.00     0.009 A 
HETATM   19  C18 UNL     1      27.730  -1.378  53.013  1.00  0.00    -0.033 A 
HETATM   20  C20 UNL     1      26.479  -0.807  52.988  1.00  0.00     0.039 A 
BRANCH  19  21
HETATM   21  C19 UNL     1      27.965  -2.797  52.631  1.00  0.00     0.203 C 
BRANCH  21  22
HETATM   22  O2  UNL     1      28.845  -3.374  53.547  1.00  0.00    -0.396 OA
HETATM   23  H18 UNL     1      29.273  -4.135  53.081  1.00  0.00     0.209 HD
ENDBRANCH  21  22
ENDBRANCH  19  21
ENDBRANCH  13  15
ENDBRANCH  10  13
BRANCH   5  24
HETATM   24  C4  UNL     1      17.742  -2.125  53.546  1.00  0.00     0.017 C 
HETATM   25  C5  UNL     1      17.535  -3.414  53.357  1.00  0.00     0.001 C 
BRANCH  25  26
HETATM   26  C6  UNL     1      16.239  -4.069  53.647  1.00  0.00     0.000 C 
HETATM   27  C7  UNL     1      16.126  -5.228  54.263  1.00  0.00     0.001 C 
BRANCH  27  28
HETATM   28  C8  UNL     1      14.786  -5.738  54.469  1.00  0.00     0.012 C 
HETATM   29  C9  UNL     1      13.944  -5.234  55.349  1.00  0.00     0.084 C 
HETATM   30 CL1  UNL     1      12.320  -5.796  55.648  1.00  0.00    -0.097 Cl
ENDBRANCH  27  28
ENDBRANCH  25  26
ENDBRANCH   5  24
TORSDOF 7
ENDMDL
MODEL 3
REMARK VINA RESULT:      -8.3      4.786     10.111
REMARK  7 active torsions:
REMARK  status: ('A' for Active; 'I' for Inactive)
REMARK    1  A    between atoms: C3_5  and  C4_6 
REMARK    2  A    between atoms: C5_7  and  C6_8 
REMARK    3  A    between atoms: C7_9  and  C8_10 
REMARK    4  A    between atoms: C13_17  and  N3_18 
REMARK    5  A    between atoms: N3_18  and  C14_19 
REMARK    6  A    between atoms: C18_23  and  C19_24 
REMARK    7  A    between atoms: C19_24  and  O2_25 
ROOT
HETATM    1  C1  UNL     1      22.633  -1.306  55.189  1.00  0.00     0.161 C 
HETATM    2  N1  UNL     1      22.498  -0.537  53.961  1.00  0.00    -0.301 N 
HETATM    3  C2  UNL     1      23.543   0.056  53.373  1.00  0.00     0.259 A 
HETATM    4  O1  UNL     1      24.637  -0.110  53.969  1.00  0.00    -0.267 OA
HETATM    5  C3  UNL     1      23.553   0.806  52.222  1.00  0.00     0.033 A 
HETATM    6  C10 UNL     1      22.285   0.921  51.651  1.00  0.00     0.033 A 
HETATM    7  C11 UNL     1      21.191   0.336  52.210  1.00  0.00     0.030 A 
HETATM    8  C12 UNL     1      19.960   0.479  51.610  1.00  0.00     0.151 A 
HETATM    9  N2  UNL     1      18.907  -0.110  52.191  1.00  0.00    -0.074 NA
HETATM   10  C13 UNL     1      18.955  -0.835  53.320  1.00  0.00     0.728 A 
HETATM   11  N4  UNL     1      20.175  -0.932  53.847  1.00  0.00    -0.044 NA
HETATM   12  C21 UNL     1      21.297  -0.396  53.370  1.00  0.00     0.163 A 
ENDROOT
BRANCH  10  13
HETATM   13  N3  UNL     1      17.761  -1.394  53.821  1.00  0.00    -0.188 N 
HETATM   14  H12 UNL     1      17.355  -0.957  54.703  1.00  0.00     0.184 HD
BRANCH  13  15
HETATM   15  C14 UNL     1      17.006  -2.477  53.311  1.00  0.00     0.050 A 
HETATM   16  C15 UNL     1      17.191  -3.768  53.760  1.00  0.00     0.030 A 
HETATM   17  C16 UNL     1      16.471  -4.840  53.290  1.00  0.00     0.003 A 
HETATM   18  C17 UNL     1      15.503  -4.670  52.322  1.00  0.00     0.009 A 
HETATM   19  C18 UNL     1      15.272  -3.403  51.834  1.00  0.00    -0.033 A 
HETATM   20  C20 UNL     1      16.028  -2.376  52.348  1.00  0.00     0.039 A 
BRANCH  19  21
HETATM   21  C19 UNL     1      14.232  -3.182  50.791  1.00  0.00     0.203 C 
BRANCH  21  22
HETATM   22  O2  UNL     1      13.588  -4.392  50.530  1.00  0.00    -0.396 OA
HETATM   23  H18 UNL     1      12.630  -4.175  50.403  1.00  0.00     0.209 HD
ENDBRANCH  21  22
ENDBRANCH  19  21
ENDBRANCH  13  15
ENDBRANCH  10  13
BRANCH   5  24
HETATM   24  C4  UNL     1      24.674   1.436  51.597  1.00  0.00     0.017 C 
HETATM   25  C5  UNL     1      24.710   2.557  50.904  1.00  0.00     0.001 C 
BRANCH  25  26
HETATM   26  C6  UNL     1      25.956   3.093  50.310  1.00  0.00     0.000 C 
HETATM   27  C7  UNL     1      25.988   4.099  49.460  1.00  0.00     0.001 C 
BRANCH  27  28
HETATM   28  C8  UNL     1      27.289   4.504  48.966  1.00  0.00     0.012 C 
HETATM   29  C9  UNL     1      27.553   5.714  48.518  1.00  0.00     0.084 C 
HETATM   30 CL1  UNL     1      29.092   6.268  47.912  1.00  0.00    -0.097 Cl
ENDBRANCH  27  28
ENDBRANCH  25  26
ENDBRANCH   5  24
TORSDOF 7
ENDMDL
MODEL 4
REMARK VINA RESULT:      -8.3      1.663      1.736
REMARK  7 active torsions:
REMARK  status: ('A' for Active; 'I' for Inactive)
REMARK    1  A    between atoms: C3_5  and  C4_6 
REMARK    2  A    between atoms: C5_7  and  C6_8 
REMARK    3  A    between atoms: C7_9  and  C8_10 
REMARK    4  A    between atoms: C13_17  and  N3_18 
REMARK    5  A    between atoms: N3_18  and  C14_19 
REMARK    6  A    between atoms: C18_23  and  C19_24 
REMARK    7  A    between atoms: C19_24  and  O2_25 
ROOT
HETATM    1  C1  UNL     1      22.539  -0.963  54.677  1.00  0.00     0.161 C 
HETATM    2  N1  UNL     1      21.960  -0.293  53.522  1.00  0.00    -0.301 N 
HETATM    3  C2  UNL     1      20.681  -0.462  53.168  1.00  0.00     0.259 A 
HETATM    4  O1  UNL     1      20.034  -1.239  53.913  1.00  0.00    -0.267 OA
HETATM    5  C3  UNL     1      20.015   0.105  52.108  1.00  0.00     0.033 A 
HETATM    6  C10 UNL     1      20.834   0.947  51.354  1.00  0.00     0.033 A 
HETATM    7  C11 UNL     1      22.141   1.151  51.673  1.00  0.00     0.030 A 
HETATM    8  C12 UNL     1      22.909   1.991  50.898  1.00  0.00     0.151 A 
HETATM    9  N2  UNL     1      24.190   2.166  51.243  1.00  0.00    -0.074 NA
HETATM   10  C13 UNL     1      24.792   1.585  52.294  1.00  0.00     0.728 A 
HETATM   11  N4  UNL     1      23.992   0.786  53.000  1.00  0.00    -0.044 NA
HETATM   12  C21 UNL     1      22.707   0.529  52.762  1.00  0.00     0.163 A 
ENDROOT
BRANCH  10  13
HETATM   13  N3  UNL     1      26.154   1.859  52.536  1.00  0.00    -0.188 N 
HETATM   14  H12 UNL     1      26.467   2.872  52.440  1.00  0.00     0.184 HD
BRANCH  13  15
HETATM   15  C14 UNL     1      27.191   0.964  52.894  1.00  0.00     0.050 A 
HETATM   16  C15 UNL     1      28.352   1.400  53.496  1.00  0.00     0.030 A 
HETATM   17  C16 UNL     1      29.374   0.557  53.861  1.00  0.00     0.003 A 
HETATM   18  C17 UNL     1      29.283  -0.801  53.636  1.00  0.00     0.009 A 
HETATM   19  C18 UNL     1      28.146  -1.297  53.037  1.00  0.00    -0.033 A 
HETATM   20  C20 UNL     1      27.162  -0.398  52.698  1.00  0.00     0.039 A 
BRANCH  19  21
HETATM   21  C19 UNL     1      28.011  -2.757  52.783  1.00  0.00     0.203 C 
BRANCH  21  22
HETATM   22  O2  UNL     1      28.978  -3.438  53.525  1.00  0.00    -0.396 OA
HETATM   23  H18 UNL     1      28.637  -3.479  54.454  1.00  0.00     0.209 HD
ENDBRANCH  21  22
ENDBRANCH  19  21
ENDBRANCH  13  15
ENDBRANCH  10  13
BRANCH   5  24
HETATM   24  C4  UNL     1      18.648  -0.078  51.735  1.00  0.00     0.017 C 
HETATM   25  C5  UNL     1      18.074   0.140  50.567  1.00  0.00     0.001 C 
BRANCH  25  26
HETATM   26  C6  UNL     1      16.633  -0.097  50.326  1.00  0.00     0.000 C 
HETATM   27  C7  UNL     1      16.166  -0.796  49.311  1.00  0.00     0.001 C 
BRANCH  27  28
HETATM   28  C8  UNL     1      14.727  -0.934  49.212  1.00  0.00     0.012 C 
HETATM   29  C9  UNL     1      14.099  -1.220  48.090  1.00  0.00     0.084 C 
HETATM   30 CL1  UNL     1      12.375  -1.402  47.900  1.00  0.00    -0.097 Cl
ENDBRANCH  27  28
ENDBRANCH  25  26
ENDBRANCH   5  24
TORSDOF 7
ENDMDL
MODEL 5
REMARK VINA RESULT:      -8.3      4.731      5.803
REMARK  7 active torsions:
REMARK  status: ('A' for Active; 'I' for Inactive)
REMARK    1  A    between atoms: C3_5  and  C4_6 
REMARK    2  A    between atoms: C5_7  and  C6_8 
REMARK    3  A    between atoms: C7_9  and  C8_10 
REMARK    4  A    between atoms: C13_17  and  N3_18 
REMARK    5  A    between atoms: N3_18  and  C14_19 
REMARK    6  A    between atoms: C18_23  and  C19_24 
REMARK    7  A    between atoms: C19_24  and  O2_25 
ROOT
HETATM    1  C1  UNL     1      24.636   1.531  53.120  1.00  0.00     0.161 C 
HETATM    2  N1  UNL     1      23.231   1.705  52.783  1.00  0.00    -0.301 N 
HETATM    3  C2  UNL     1      22.349   0.703  52.868  1.00  0.00     0.259 A 
HETATM    4  O1  UNL     1      22.835  -0.386  53.262  1.00  0.00    -0.267 OA
HETATM    5  C3  UNL     1      21.005   0.733  52.581  1.00  0.00     0.033 A 
HETATM    6  C10 UNL     1      20.580   1.992  52.154  1.00  0.00     0.033 A 
HETATM    7  C11 UNL     1      21.439   3.042  52.051  1.00  0.00     0.030 A 
HETATM    8  C12 UNL     1      20.972   4.265  51.625  1.00  0.00     0.151 A 
HETATM    9  N2  UNL     1      21.847   5.274  51.535  1.00  0.00    -0.074 NA
HETATM   10  C13 UNL     1      23.154   5.189  51.831  1.00  0.00     0.728 A 
HETATM   11  N4  UNL     1      23.538   3.979  52.236  1.00  0.00    -0.044 NA
HETATM   12  C21 UNL     1      22.770   2.899  52.367  1.00  0.00     0.163 A 
ENDROOT
BRANCH  10  13
HETATM   13  N3  UNL     1      23.961   6.337  51.685  1.00  0.00    -0.188 N 
HETATM   14  H12 UNL     1      23.827   7.116  52.398  1.00  0.00     0.184 HD
BRANCH  13  15
HETATM   15  C14 UNL     1      24.945   6.613  50.705  1.00  0.00     0.050 A 
HETATM   16  C15 UNL     1      25.184   5.754  49.653  1.00  0.00     0.030 A 
HETATM   17  C16 UNL     1      26.127   5.995  48.683  1.00  0.00     0.003 A 
HETATM   18  C17 UNL     1      26.899   7.137  48.717  1.00  0.00     0.009 A 
HETATM   19  C18 UNL     1      26.706   8.034  49.745  1.00  0.00    -0.033 A 
HETATM   20  C20 UNL     1      25.746   7.732  50.682  1.00  0.00     0.039 A 
BRANCH  19  21
HETATM   21  C19 UNL     1      27.519   9.280  49.812  1.00  0.00     0.203 C 
BRANCH  21  22
HETATM   22  O2  UNL     1      27.578   9.713  51.137  1.00  0.00    -0.396 OA
HETATM   23  H18 UNL     1      28.163  10.511  51.143  1.00  0.00     0.209 HD
ENDBRANCH  21  22
ENDBRANCH  19  21
ENDBRANCH  13  15
ENDBRANCH  10  13
BRANCH   5  24
HETATM   24  C4  UNL     1      20.066  -0.341  52.675  1.00  0.00     0.017 C 
HETATM   25  C5  UNL     1      18.752  -0.282  52.763  1.00  0.00     0.001 C 
BRANCH  25  26
HETATM   26  C6  UNL     1      17.900  -1.490  52.855  1.00  0.00     0.000 C 
HETATM   27  C7  UNL     1      18.098  -2.461  53.724  1.00  0.00     0.001 C 
BRANCH  27  28
HETATM   28  C8  UNL     1      17.177  -3.579  53.685  1.00  0.00     0.012 C 
HETATM   29  C9  UNL     1      16.105  -3.612  52.921  1.00  0.00     0.084 C 
HETATM   30 CL1  UNL     1      14.958  -4.922  52.824  1.00  0.00    -0.097 Cl
ENDBRANCH  27  28
ENDBRANCH  25  26
ENDBRANCH   5  24
TORSDOF 7
ENDMDL
MODEL 6
REMARK VINA RESULT:      -8.2      5.387     10.096
REMARK  7 active torsions:
REMARK  status: ('A' for Active; 'I' for Inactive)
REMARK    1  A    between atoms: C3_5  and  C4_6 
REMARK    2  A    between atoms: C5_7  and  C6_8 
REMARK    3  A    between atoms: C7_9  and  C8_10 
REMARK    4  A    between atoms: C13_17  and  N3_18 
REMARK    5  A    between atoms: N3_18  and  C14_19 
REMARK    6  A    between atoms: C18_23  and  C19_24 
REMARK    7  A    between atoms: C19_24  and  O2_25 
ROOT
HETATM    1  C1  UNL     1      20.028   3.125  52.028  1.00  0.00     0.161 C 
HETATM    2  N1  UNL     1      21.365   2.547  52.022  1.00  0.00    -0.301 N 
HETATM    3  C2  UNL     1      22.419   3.199  51.519  1.00  0.00     0.259 A 
HETATM    4  O1  UNL     1      22.156   4.339  51.062  1.00  0.00    -0.267 OA
HETATM    5  C3  UNL     1      23.724   2.771  51.451  1.00  0.00     0.033 A 
HETATM    6  C10 UNL     1      23.893   1.494  51.988  1.00  0.00     0.033 A 
HETATM    7  C11 UNL     1      22.852   0.791  52.511  1.00  0.00     0.030 A 
HETATM    8  C12 UNL     1      23.070  -0.465  53.029  1.00  0.00     0.151 A 
HETATM    9  N2  UNL     1      22.020  -1.126  53.533  1.00  0.00    -0.074 NA
HETATM   10  C13 UNL     1      20.762  -0.658  53.575  1.00  0.00     0.728 A 
HETATM   11  N4  UNL     1      20.623   0.562  53.058  1.00  0.00    -0.044 NA
HETATM   12  C21 UNL     1      21.582   1.320  52.528  1.00  0.00     0.163 A 
ENDROOT
BRANCH  10  13
HETATM   13  N3  UNL     1      19.752  -1.470  54.134  1.00  0.00    -0.188 N 
HETATM   14  H12 UNL     1      19.947  -1.892  55.092  1.00  0.00     0.184 HD
BRANCH  13  15
HETATM   15  C14 UNL     1      18.490  -1.814  53.595  1.00  0.00     0.050 A 
HETATM   16  C15 UNL     1      17.793  -0.956  52.771  1.00  0.00     0.030 A 
HETATM   17  C16 UNL     1      16.568  -1.262  52.227  1.00  0.00     0.003 A 
HETATM   18  C17 UNL     1      15.964  -2.475  52.486  1.00  0.00     0.009 A 
HETATM   19  C18 UNL     1      16.613  -3.375  53.302  1.00  0.00    -0.033 A 
HETATM   20  C20 UNL     1      17.835  -3.004  53.813  1.00  0.00     0.039 A 
BRANCH  19  21
HETATM   21  C19 UNL     1      15.992  -4.694  53.601  1.00  0.00     0.203 C 
BRANCH  21  22
HETATM   22  O2  UNL     1      14.852  -4.494  54.380  1.00  0.00    -0.396 OA
HETATM   23  H18 UNL     1      15.114  -4.695  55.313  1.00  0.00     0.209 HD
ENDBRANCH  21  22
ENDBRANCH  19  21
ENDBRANCH  13  15
ENDBRANCH  10  13
BRANCH   5  24
HETATM   24  C4  UNL     1      24.848   3.472  50.915  1.00  0.00     0.017 C 
HETATM   25  C5  UNL     1      25.437   3.316  49.745  1.00  0.00     0.001 C 
BRANCH  25  26
HETATM   26  C6  UNL     1      26.604   4.122  49.322  1.00  0.00     0.000 C 
HETATM   27  C7  UNL     1      26.511   5.337  48.821  1.00  0.00     0.001 C 
BRANCH  27  28
HETATM   28  C8  UNL     1      27.749   5.995  48.451  1.00  0.00     0.012 C 
HETATM   29  C9  UNL     1      28.898   5.364  48.327  1.00  0.00     0.084 C 
HETATM   30 CL1  UNL     1      30.422   6.090  47.886  1.00  0.00    -0.097 Cl
ENDBRANCH  27  28
ENDBRANCH  25  26
ENDBRANCH   5  24
TORSDOF 7
ENDMDL
MODEL 7
REMARK VINA RESULT:      -8.0      4.904      9.919
REMARK  7 active torsions:
REMARK  status: ('A' for Active; 'I' for Inactive)
REMARK    1  A    between atoms: C3_5  and  C4_6 
REMARK    2  A    between atoms: C5_7  and  C6_8 
REMARK    3  A    between atoms: C7_9  and  C8_10 
REMARK    4  A    between atoms: C13_17  and  N3_18 
REMARK    5  A    between atoms: N3_18  and  C14_19 
REMARK    6  A    between atoms: C18_23  and  C19_24 
REMARK    7  A    between atoms: C19_24  and  O2_25 
ROOT
HETATM    1  C1  UNL     1      24.581  -0.546  53.981  1.00  0.00     0.161 C 
HETATM    2  N1  UNL     1      24.056   0.381  52.989  1.00  0.00    -0.301 N 
HETATM    3  C2  UNL     1      24.854   1.158  52.248  1.00  0.00     0.259 A 
HETATM    4  O1  UNL     1      26.080   1.016  52.481  1.00  0.00    -0.267 OA
HETATM    5  C3  UNL     1      24.490   2.070  51.286  1.00  0.00     0.033 A 
HETATM    6  C10 UNL     1      23.107   2.141  51.116  1.00  0.00     0.033 A 
HETATM    7  C11 UNL     1      22.254   1.372  51.845  1.00  0.00     0.030 A 
HETATM    8  C12 UNL     1      20.897   1.478  51.642  1.00  0.00     0.151 A 
HETATM    9  N2  UNL     1      20.090   0.705  52.379  1.00  0.00    -0.074 NA
HETATM   10  C13 UNL     1      20.500  -0.173  53.308  1.00  0.00     0.728 A 
HETATM   11  N4  UNL     1      21.824  -0.224  53.454  1.00  0.00    -0.044 NA
HETATM   12  C21 UNL     1      22.730   0.488  52.786  1.00  0.00     0.163 A 
ENDROOT
BRANCH  10  13
HETATM   13  N3  UNL     1      19.533  -0.919  54.014  1.00  0.00    -0.188 N 
HETATM   14  H12 UNL     1      19.698  -1.060  55.056  1.00  0.00     0.184 HD
BRANCH  13  15
HETATM   15  C14 UNL     1      18.350  -1.524  53.528  1.00  0.00     0.050 A 
HETATM   16  C15 UNL     1      17.486  -0.857  52.686  1.00  0.00     0.030 A 
HETATM   17  C16 UNL     1      16.332  -1.417  52.192  1.00  0.00     0.003 A 
HETATM   18  C17 UNL     1      15.975  -2.708  52.524  1.00  0.00     0.009 A 
HETATM   19  C18 UNL     1      16.799  -3.425  53.363  1.00  0.00    -0.033 A 
HETATM   20  C20 UNL     1      17.938  -2.804  53.821  1.00  0.00     0.039 A 
BRANCH  19  21
HETATM   21  C19 UNL     1      16.448  -4.822  53.740  1.00  0.00     0.203 C 
BRANCH  21  22
HETATM   22  O2  UNL     1      15.317  -4.800  54.558  1.00  0.00    -0.396 OA
HETATM   23  H18 UNL     1      14.922  -3.897  54.462  1.00  0.00     0.209 HD
ENDBRANCH  21  22
ENDBRANCH  19  21
ENDBRANCH  13  15
ENDBRANCH  10  13
BRANCH   5  24
HETATM   24  C4  UNL     1      25.347   2.897  50.496  1.00  0.00     0.017 C 
HETATM   25  C5  UNL     1      25.103   4.088  49.985  1.00  0.00     0.001 C 
BRANCH  25  26
HETATM   26  C6  UNL     1      26.097   4.833  49.179  1.00  0.00     0.000 C 
HETATM   27  C7  UNL     1      27.377   4.522  49.125  1.00  0.00     0.001 C 
BRANCH  27  28
HETATM   28  C8  UNL     1      28.223   5.352  48.291  1.00  0.00     0.012 C 
HETATM   29  C9  UNL     1      28.039   6.647  48.129  1.00  0.00     0.084 C 
HETATM   30 CL1  UNL     1      29.016   7.703  47.143  1.00  0.00    -0.097 Cl
ENDBRANCH  27  28
ENDBRANCH  25  26
ENDBRANCH   5  24
TORSDOF 7
ENDMDL
MODEL 8
REMARK VINA RESULT:      -8.0      6.091     10.611
REMARK  7 active torsions:
REMARK  status: ('A' for Active; 'I' for Inactive)
REMARK    1  A    between atoms: C3_5  and  C4_6 
REMARK    2  A    between atoms: C5_7  and  C6_8 
REMARK    3  A    between atoms: C7_9  and  C8_10 
REMARK    4  A    between atoms: C13_17  and  N3_18 
REMARK    5  A    between atoms: N3_18  and  C14_19 
REMARK    6  A    between atoms: C18_23  and  C19_24 
REMARK    7  A    between atoms: C19_24  and  O2_25 
ROOT
HETATM    1  C1  UNL     1      24.962   1.532  51.943  1.00  0.00     0.161 C 
HETATM    2  N1  UNL     1      24.930   2.581  50.934  1.00  0.00    -0.301 N 
HETATM    3  C2  UNL     1      26.047   3.120  50.433  1.00  0.00     0.259 A 
HETATM    4  O1  UNL     1      27.110   2.645  50.904  1.00  0.00    -0.267 OA
HETATM    5  C3  UNL     1      26.157   4.109  49.485  1.00  0.00     0.033 A 
HETATM    6  C10 UNL     1      24.913   4.558  49.038  1.00  0.00     0.033 A 
HETATM    7  C11 UNL     1      23.749   4.040  49.517  1.00  0.00     0.030 A 
HETATM    8  C12 UNL     1      22.547   4.516  49.045  1.00  0.00     0.151 A 
HETATM    9  N2  UNL     1      21.423   3.983  49.541  1.00  0.00    -0.074 NA
HETATM   10  C13 UNL     1      21.374   3.014  50.469  1.00  0.00     0.728 A 
HETATM   11  N4  UNL     1      22.572   2.601  50.881  1.00  0.00    -0.044 NA
HETATM   12  C21 UNL     1      23.758   3.048  50.469  1.00  0.00     0.163 A 
ENDROOT
BRANCH  10  13
HETATM   13  N3  UNL     1      20.114   2.551  50.903  1.00  0.00    -0.188 N 
HETATM   14  H12 UNL     1      19.261   3.105  50.589  1.00  0.00     0.184 HD
BRANCH  13  15
HETATM   15  C14 UNL     1      19.811   1.432  51.715  1.00  0.00     0.050 A 
HETATM   16  C15 UNL     1      18.697   0.651  51.492  1.00  0.00     0.030 A 
HETATM   17  C16 UNL     1      18.378  -0.444  52.258  1.00  0.00     0.003 A 
HETATM   18  C17 UNL     1      19.179  -0.825  53.314  1.00  0.00     0.009 A 
HETATM   19  C18 UNL     1      20.308  -0.084  53.587  1.00  0.00    -0.033 A 
HETATM   20  C20 UNL     1      20.568   1.000  52.781  1.00  0.00     0.039 A 
BRANCH  19  21
HETATM   21  C19 UNL     1      21.198  -0.467  54.717  1.00  0.00     0.203 C 
BRANCH  21  22
HETATM   22  O2  UNL     1      21.035  -1.828  54.981  1.00  0.00    -0.396 OA
HETATM   23  H18 UNL     1      20.468  -2.186  54.253  1.00  0.00     0.209 HD
ENDBRANCH  21  22
ENDBRANCH  19  21
ENDBRANCH  13  15
ENDBRANCH  10  13
BRANCH   5  24
HETATM   24  C4  UNL     1      27.353   4.682  48.951  1.00  0.00     0.017 C 
HETATM   25  C5  UNL     1      27.536   5.883  48.441  1.00  0.00     0.001 C 
BRANCH  25  26
HETATM   26  C6  UNL     1      28.845   6.342  47.921  1.00  0.00     0.000 C 
HETATM   27  C7  UNL     1      29.957   5.640  48.015  1.00  0.00     0.001 C 
BRANCH  27  28
HETATM   28  C8  UNL     1      31.158   6.229  47.459  1.00  0.00     0.012 C 
HETATM   29  C9  UNL     1      31.934   7.062  48.122  1.00  0.00     0.084 C 
HETATM   30 CL1  UNL     1      33.391   7.805  47.516  1.00  0.00    -0.097 Cl
ENDBRANCH  27  28
ENDBRANCH  25  26
ENDBRANCH   5  24
TORSDOF 7
ENDMDL
MODEL 9
REMARK VINA RESULT:      -8.0      1.410      2.291
REMARK  7 active torsions:
REMARK  status: ('A' for Active; 'I' for Inactive)
REMARK    1  A    between atoms: C3_5  and  C4_6 
REMARK    2  A    between atoms: C5_7  and  C6_8 
REMARK    3  A    between atoms: C7_9  and  C8_10 
REMARK    4  A    between atoms: C13_17  and  N3_18 
REMARK    5  A    between atoms: N3_18  and  C14_19 
REMARK    6  A    between atoms: C18_23  and  C19_24 
REMARK    7  A    between atoms: C19_24  and  O2_25 
ROOT
HETATM    1  C1  UNL     1      22.066   2.406  49.537  1.00  0.00     0.161 C 
HETATM    2  N1  UNL     1      21.700   1.535  50.645  1.00  0.00    -0.301 N 
HETATM    3  C2  UNL     1      20.447   1.101  50.825  1.00  0.00     0.259 A 
HETATM    4  O1  UNL     1      19.628   1.506  49.963  1.00  0.00    -0.267 OA
HETATM    5  C3  UNL     1      19.971   0.284  51.821  1.00  0.00     0.033 A 
HETATM    6  C10 UNL     1      20.969  -0.100  52.718  1.00  0.00     0.033 A 
HETATM    7  C11 UNL     1      22.258   0.315  52.577  1.00  0.00     0.030 A 
HETATM    8  C12 UNL     1      23.207  -0.091  53.487  1.00  0.00     0.151 A 
HETATM    9  N2  UNL     1      24.464   0.339  53.317  1.00  0.00    -0.074 NA
HETATM   10  C13 UNL     1      24.876   1.139  52.320  1.00  0.00     0.728 A 
HETATM   11  N4  UNL     1      23.906   1.493  51.476  1.00  0.00    -0.044 NA
HETATM   12  C21 UNL     1      22.625   1.136  51.536  1.00  0.00     0.163 A 
ENDROOT
BRANCH  10  13
HETATM   13  N3  UNL     1      26.234   1.516  52.267  1.00  0.00    -0.188 N 
HETATM   14  H12 UNL     1      26.462   2.436  51.781  1.00  0.00     0.184 HD
BRANCH  13  15
HETATM   15  C14 UNL     1      27.365   0.836  52.778  1.00  0.00     0.050 A 
HETATM   16  C15 UNL     1      28.408   1.508  53.380  1.00  0.00     0.030 A 
HETATM   17  C16 UNL     1      29.517   0.876  53.890  1.00  0.00     0.003 A 
HETATM   18  C17 UNL     1      29.642  -0.496  53.823  1.00  0.00     0.009 A 
HETATM   19  C18 UNL     1      28.631  -1.223  53.233  1.00  0.00    -0.033 A 
HETATM   20  C20 UNL     1      27.550  -0.528  52.743  1.00  0.00     0.039 A 
BRANCH  19  21
HETATM   21  C19 UNL     1      28.730  -2.705  53.147  1.00  0.00     0.203 C 
BRANCH  21  22
HETATM   22  O2  UNL     1      27.584  -3.201  52.524  1.00  0.00    -0.396 OA
HETATM   23  H18 UNL     1      27.888  -3.638  51.689  1.00  0.00     0.209 HD
ENDBRANCH  21  22
ENDBRANCH  19  21
ENDBRANCH  13  15
ENDBRANCH  10  13
BRANCH   5  24
HETATM   24  C4  UNL     1      18.631  -0.178  52.009  1.00  0.00     0.017 C 
HETATM   25  C5  UNL     1      18.168  -1.023  52.909  1.00  0.00     0.001 C 
BRANCH  25  26
HETATM   26  C6  UNL     1      16.741  -1.412  52.983  1.00  0.00     0.000 C 
HETATM   27  C7  UNL     1      16.113  -2.075  52.033  1.00  0.00     0.001 C 
BRANCH  27  28
HETATM   28  C8  UNL     1      14.713  -2.378  52.255  1.00  0.00     0.012 C 
HETATM   29  C9  UNL     1      13.783  -1.457  52.398  1.00  0.00     0.084 C 
HETATM   30 CL1  UNL     1      12.085  -1.750  52.666  1.00  0.00    -0.097 Cl
ENDBRANCH  27  28
ENDBRANCH  25  26
ENDBRANCH   5  24
TORSDOF 7
ENDMDL
