MODEL 1
REMARK VINA RESULT:      -7.1      0.000      0.000
REMARK  6 active torsions:
REMARK  status: ('A' for Active; 'I' for Inactive)
REMARK    1  A    between atoms: C2_2  and  C3_4 
REMARK    2  A    between atoms: C4_5  and  C5_6 
REMARK    3  A    between atoms: C5_6  and  S1_7 
REMARK    4  A    between atoms: S1_7  and  N1_10 
REMARK       I    between atoms: N1_10  and  C6_11 
REMARK    5  A    between atoms: C6_11  and  C7_13 
REMARK    6  A    between atoms: C7_13  and  C8_14 
ROOT
HETATM    1  N1  UNL     1      25.309   3.456  52.037  1.00  0.00    -0.254 N 
HETATM    2  C6  UNL     1      24.638   3.308  50.814  1.00  0.00     0.235 C 
HETATM    3  O3  UNL     1      24.292   2.205  50.319  1.00  0.00    -0.272 OA
HETATM    4  H7  UNL     1      25.565   4.397  52.385  1.00  0.00     0.181 HD
ENDROOT
BRANCH   1   5
HETATM    5  S1  UNL     1      25.656   1.987  52.866  1.00  0.00     0.236 S 
HETATM    6  O1  UNL     1      26.252   2.312  54.187  1.00  0.00    -0.205 OA
HETATM    7  O2  UNL     1      24.417   1.170  53.085  1.00  0.00    -0.205 OA
BRANCH   5   8
HETATM    8  C5  UNL     1      26.817   0.988  51.951  1.00  0.00     0.190 C 
BRANCH   8   9
HETATM    9  C4  UNL     1      26.625  -0.453  52.246  1.00  0.00    -0.007 C 
HETATM   10  C3  UNL     1      27.449  -1.118  53.036  1.00  0.00     0.038 C 
BRANCH  10  11
HETATM   11  C2  UNL     1      28.603  -0.578  53.702  1.00  0.00     0.106 C 
HETATM   12  C1  UNL     1      29.890  -0.870  53.564  1.00  0.00     0.056 C 
HETATM   13  F1  UNL     1      29.038   0.297  54.613  1.00  0.00    -0.207 F 
ENDBRANCH  10  11
ENDBRANCH   8   9
ENDBRANCH   5   8
ENDBRANCH   1   5
BRANCH   2  14
HETATM   14  C7  UNL     1      24.250   4.455  49.950  1.00  0.00     0.142 C 
BRANCH  14  15
HETATM   15  C8  UNL     1      25.502   5.021  49.341  1.00  0.00    -0.048 A 
HETATM   16  C9  UNL     1      26.653   4.262  49.209  1.00  0.00     0.007 A 
HETATM   17  C10 UNL     1      27.798   4.817  48.640  1.00  0.00     0.002 A 
HETATM   18  C11 UNL     1      27.798   6.145  48.197  1.00  0.00     0.019 A 
HETATM   19  C12 UNL     1      26.634   6.873  48.344  1.00  0.00     0.011 A 
HETATM   20 BR1  UNL     1      26.640   8.685  47.737  1.00  0.00    -0.051 Br
HETATM   21  C13 UNL     1      25.478   6.334  48.911  1.00  0.00     0.026 A 
ENDBRANCH  14  15
ENDBRANCH   2  14
TORSDOF 6
ENDMDL
MODEL 2
REMARK VINA RESULT:      -7.1      4.404      5.629
REMARK  6 active torsions:
REMARK  status: ('A' for Active; 'I' for Inactive)
REMARK    1  A    between atoms: C2_2  and  C3_4 
REMARK    2  A    between atoms: C4_5  and  C5_6 
REMARK    3  A    between atoms: C5_6  and  S1_7 
REMARK    4  A    between atoms: S1_7  and  N1_10 
REMARK       I    between atoms: N1_10  and  C6_11 
REMARK    5  A    between atoms: C6_11  and  C7_13 
REMARK    6  A    between atoms: C7_13  and  C8_14 
ROOT
HETATM    1  N1  UNL     1      25.903   2.545  53.672  1.00  0.00    -0.254 N 
HETATM    2  C6  UNL     1      25.068   2.805  52.574  1.00  0.00     0.235 C 
HETATM    3  O3  UNL     1      25.423   2.715  51.372  1.00  0.00    -0.272 OA
HETATM    4  H7  UNL     1      25.545   2.640  54.639  1.00  0.00     0.181 HD
ENDROOT
BRANCH   1   5
HETATM    5  S1  UNL     1      27.512   2.076  53.274  1.00  0.00     0.236 S 
HETATM    6  O1  UNL     1      27.842   2.601  51.923  1.00  0.00    -0.205 OA
HETATM    7  O2  UNL     1      28.505   2.619  54.257  1.00  0.00    -0.205 OA
BRANCH   5   8
HETATM    8  C5  UNL     1      27.679   0.300  53.248  1.00  0.00     0.190 C 
BRANCH   8   9
HETATM    9  C4  UNL     1      26.523  -0.331  52.564  1.00  0.00    -0.007 C 
HETATM   10  C3  UNL     1      25.486  -0.797  53.237  1.00  0.00     0.038 C 
BRANCH  10  11
HETATM   11  C2  UNL     1      25.321  -0.767  54.665  1.00  0.00     0.106 C 
HETATM   12  C1  UNL     1      24.345  -1.241  55.428  1.00  0.00     0.056 C 
HETATM   13  F1  UNL     1      25.855  -0.376  55.825  1.00  0.00    -0.207 F 
ENDBRANCH  10  11
ENDBRANCH   8   9
ENDBRANCH   5   8
ENDBRANCH   1   5
BRANCH   2  14
HETATM   14  C7  UNL     1      23.647   3.222  52.708  1.00  0.00     0.142 C 
BRANCH  14  15
HETATM   15  C8  UNL     1      22.784   2.080  52.250  1.00  0.00    -0.048 A 
HETATM   16  C9  UNL     1      22.408   1.939  50.925  1.00  0.00     0.007 A 
HETATM   17  C10 UNL     1      21.607   0.867  50.532  1.00  0.00     0.002 A 
HETATM   18  C11 UNL     1      21.174  -0.076  51.472  1.00  0.00     0.019 A 
HETATM   19  C12 UNL     1      21.567   0.095  52.785  1.00  0.00     0.011 A 
HETATM   20 BR1  UNL     1      20.972  -1.196  54.062  1.00  0.00    -0.051 Br
HETATM   21  C13 UNL     1      22.368   1.162  53.196  1.00  0.00     0.026 A 
ENDBRANCH  14  15
ENDBRANCH   2  14
TORSDOF 6
ENDMDL
MODEL 3
REMARK VINA RESULT:      -7.0      1.876      2.521
REMARK  6 active torsions:
REMARK  status: ('A' for Active; 'I' for Inactive)
REMARK    1  A    between atoms: C2_2  and  C3_4 
REMARK    2  A    between atoms: C4_5  and  C5_6 
REMARK    3  A    between atoms: C5_6  and  S1_7 
REMARK    4  A    between atoms: S1_7  and  N1_10 
REMARK       I    between atoms: N1_10  and  C6_11 
REMARK    5  A    between atoms: C6_11  and  C7_13 
REMARK    6  A    between atoms: C7_13  and  C8_14 
ROOT
HETATM    1  N1  UNL     1      27.166   2.184  51.824  1.00  0.00    -0.254 N 
HETATM    2  C6  UNL     1      25.874   2.631  51.503  1.00  0.00     0.235 C 
HETATM    3  O3  UNL     1      24.971   2.866  52.344  1.00  0.00    -0.272 OA
HETATM    4  H7  UNL     1      27.862   2.009  51.078  1.00  0.00     0.181 HD
ENDROOT
BRANCH   1   5
HETATM    5  S1  UNL     1      27.466   1.960  53.505  1.00  0.00     0.236 S 
HETATM    6  O1  UNL     1      28.648   2.773  53.892  1.00  0.00    -0.205 OA
HETATM    7  O2  UNL     1      26.294   2.388  54.337  1.00  0.00    -0.205 OA
BRANCH   5   8
HETATM    8  C5  UNL     1      27.809   0.249  53.878  1.00  0.00     0.190 C 
BRANCH   8   9
HETATM    9  C4  UNL     1      27.359  -0.634  52.774  1.00  0.00    -0.007 C 
HETATM   10  C3  UNL     1      26.112  -1.063  52.691  1.00  0.00     0.038 C 
BRANCH  10  11
HETATM   11  C2  UNL     1      25.048  -0.759  53.609  1.00  0.00     0.106 C 
HETATM   12  C1  UNL     1      23.828  -0.288  53.386  1.00  0.00     0.056 C 
HETATM   13  F1  UNL     1      24.675  -0.743  54.891  1.00  0.00    -0.207 F 
ENDBRANCH  10  11
ENDBRANCH   8   9
ENDBRANCH   5   8
ENDBRANCH   1   5
BRANCH   2  14
HETATM   14  C7  UNL     1      25.420   2.884  50.109  1.00  0.00     0.142 C 
BRANCH  14  15
HETATM   15  C8  UNL     1      25.991   4.202  49.667  1.00  0.00    -0.048 A 
HETATM   16  C9  UNL     1      27.171   4.279  48.946  1.00  0.00     0.007 A 
HETATM   17  C10 UNL     1      27.673   5.518  48.551  1.00  0.00     0.002 A 
HETATM   18  C11 UNL     1      26.992   6.696  48.879  1.00  0.00     0.019 A 
HETATM   19  C12 UNL     1      25.819   6.584  49.599  1.00  0.00     0.011 A 
HETATM   20 BR1  UNL     1      24.895   8.196  50.043  1.00  0.00    -0.051 Br
HETATM   21  C13 UNL     1      25.301   5.352  50.003  1.00  0.00     0.026 A 
ENDBRANCH  14  15
ENDBRANCH   2  14
TORSDOF 6
ENDMDL
MODEL 4
REMARK VINA RESULT:      -7.0      4.365      5.984
REMARK  6 active torsions:
REMARK  status: ('A' for Active; 'I' for Inactive)
REMARK    1  A    between atoms: C2_2  and  C3_4 
REMARK    2  A    between atoms: C4_5  and  C5_6 
REMARK    3  A    between atoms: C5_6  and  S1_7 
REMARK    4  A    between atoms: S1_7  and  N1_10 
REMARK       I    between atoms: N1_10  and  C6_11 
REMARK    5  A    between atoms: C6_11  and  C7_13 
REMARK    6  A    between atoms: C7_13  and  C8_14 
ROOT
HETATM    1  N1  UNL     1      25.354   2.641  52.712  1.00  0.00    -0.254 N 
HETATM    2  C6  UNL     1      24.168   2.295  52.045  1.00  0.00     0.235 C 
HETATM    3  O3  UNL     1      24.119   1.720  50.929  1.00  0.00    -0.272 OA
HETATM    4  H7  UNL     1      25.320   3.116  53.631  1.00  0.00     0.181 HD
ENDROOT
BRANCH   1   5
HETATM    5  S1  UNL     1      26.806   2.220  51.888  1.00  0.00     0.236 S 
HETATM    6  O1  UNL     1      26.873   2.986  50.616  1.00  0.00    -0.205 OA
HETATM    7  O2  UNL     1      28.020   2.541  52.707  1.00  0.00    -0.205 OA
BRANCH   5   8
HETATM    8  C5  UNL     1      26.848   0.478  51.502  1.00  0.00     0.190 C 
BRANCH   8   9
HETATM    9  C4  UNL     1      26.398  -0.332  52.661  1.00  0.00    -0.007 C 
HETATM   10  C3  UNL     1      27.257  -0.908  53.483  1.00  0.00     0.038 C 
BRANCH  10  11
HETATM   11  C2  UNL     1      28.690  -0.845  53.390  1.00  0.00     0.106 C 
HETATM   12  C1  UNL     1      29.596  -1.814  53.406  1.00  0.00     0.056 C 
HETATM   13  F1  UNL     1      29.749  -0.040  53.265  1.00  0.00    -0.207 F 
ENDBRANCH  10  11
ENDBRANCH   8   9
ENDBRANCH   5   8
ENDBRANCH   1   5
BRANCH   2  14
HETATM   14  C7  UNL     1      22.812   2.574  52.591  1.00  0.00     0.142 C 
BRANCH  14  15
HETATM   15  C8  UNL     1      22.214   1.267  53.033  1.00  0.00    -0.048 A 
HETATM   16  C9  UNL     1      22.947   0.340  53.756  1.00  0.00     0.007 A 
HETATM   17  C10 UNL     1      22.362  -0.862  54.152  1.00  0.00     0.002 A 
HETATM   18  C11 UNL     1      21.031  -1.145  53.824  1.00  0.00     0.019 A 
HETATM   19  C12 UNL     1      20.329  -0.199  53.103  1.00  0.00     0.011 A 
HETATM   20 BR1  UNL     1      18.513  -0.592  52.659  1.00  0.00    -0.051 Br
HETATM   21  C13 UNL     1      20.899   1.010  52.698  1.00  0.00     0.026 A 
ENDBRANCH  14  15
ENDBRANCH   2  14
TORSDOF 6
ENDMDL
MODEL 5
REMARK VINA RESULT:      -6.9      4.046      6.716
REMARK  6 active torsions:
REMARK  status: ('A' for Active; 'I' for Inactive)
REMARK    1  A    between atoms: C2_2  and  C3_4 
REMARK    2  A    between atoms: C4_5  and  C5_6 
REMARK    3  A    between atoms: C5_6  and  S1_7 
REMARK    4  A    between atoms: S1_7  and  N1_10 
REMARK       I    between atoms: N1_10  and  C6_11 
REMARK    5  A    between atoms: C6_11  and  C7_13 
REMARK    6  A    between atoms: C7_13  and  C8_14 
ROOT
HETATM    1  N1  UNL     1      26.612   0.847  54.831  1.00  0.00    -0.254 N 
HETATM    2  C6  UNL     1      26.011  -0.393  54.561  1.00  0.00     0.235 C 
HETATM    3  O3  UNL     1      26.385  -1.185  53.660  1.00  0.00    -0.272 OA
HETATM    4  H7  UNL     1      26.250   1.452  55.590  1.00  0.00     0.181 HD
ENDROOT
BRANCH   1   5
HETATM    5  S1  UNL     1      27.947   1.249  53.821  1.00  0.00     0.236 S 
HETATM    6  O1  UNL     1      28.961   1.971  54.633  1.00  0.00    -0.205 OA
HETATM    7  O2  UNL     1      28.584   0.026  53.233  1.00  0.00    -0.205 OA
BRANCH   5   8
HETATM    8  C5  UNL     1      27.443   2.307  52.475  1.00  0.00     0.190 C 
BRANCH   8   9
HETATM    9  C4  UNL     1      26.623   1.558  51.491  1.00  0.00    -0.007 C 
HETATM   10  C3  UNL     1      26.240   2.099  50.348  1.00  0.00     0.038 C 
BRANCH  10  11
HETATM   11  C2  UNL     1      26.542   3.432  49.900  1.00  0.00     0.106 C 
HETATM   12  C1  UNL     1      25.794   4.528  49.896  1.00  0.00     0.056 C 
HETATM   13  F1  UNL     1      27.470   4.226  49.359  1.00  0.00    -0.207 F 
ENDBRANCH  10  11
ENDBRANCH   8   9
ENDBRANCH   5   8
ENDBRANCH   1   5
BRANCH   2  14
HETATM   14  C7  UNL     1      24.846  -0.920  55.322  1.00  0.00     0.142 C 
BRANCH  14  15
HETATM   15  C8  UNL     1      23.615  -0.716  54.484  1.00  0.00    -0.048 A 
HETATM   16  C9  UNL     1      22.424  -1.360  54.773  1.00  0.00     0.007 A 
HETATM   17  C10 UNL     1      21.300  -1.149  53.976  1.00  0.00     0.002 A 
HETATM   18  C11 UNL     1      21.362  -0.285  52.876  1.00  0.00     0.019 A 
HETATM   19  C12 UNL     1      22.566   0.341  52.616  1.00  0.00     0.011 A 
HETATM   20 BR1  UNL     1      22.644   1.519  51.114  1.00  0.00    -0.051 Br
HETATM   21  C13 UNL     1      23.701   0.141  53.403  1.00  0.00     0.026 A 
ENDBRANCH  14  15
ENDBRANCH   2  14
TORSDOF 6
ENDMDL
MODEL 6
REMARK VINA RESULT:      -6.8      3.539      4.771
REMARK  6 active torsions:
REMARK  status: ('A' for Active; 'I' for Inactive)
REMARK    1  A    between atoms: C2_2  and  C3_4 
REMARK    2  A    between atoms: C4_5  and  C5_6 
REMARK    3  A    between atoms: C5_6  and  S1_7 
REMARK    4  A    between atoms: S1_7  and  N1_10 
REMARK       I    between atoms: N1_10  and  C6_11 
REMARK    5  A    between atoms: C6_11  and  C7_13 
REMARK    6  A    between atoms: C7_13  and  C8_14 
ROOT
HETATM    1  N1  UNL     1      27.206   2.851  52.610  1.00  0.00    -0.254 N 
HETATM    2  C6  UNL     1      26.668   2.338  51.420  1.00  0.00     0.235 C 
HETATM    3  O3  UNL     1      26.777   1.144  51.044  1.00  0.00    -0.272 OA
HETATM    4  H7  UNL     1      27.078   3.848  52.858  1.00  0.00     0.181 HD
ENDROOT
BRANCH   1   5
HETATM    5  S1  UNL     1      28.065   1.713  53.576  1.00  0.00     0.236 S 
HETATM    6  O1  UNL     1      28.877   0.846  52.683  1.00  0.00    -0.205 OA
HETATM    7  O2  UNL     1      28.980   2.393  54.549  1.00  0.00    -0.205 OA
BRANCH   5   8
HETATM    8  C5  UNL     1      26.945   0.678  54.504  1.00  0.00     0.190 C 
BRANCH   8   9
HETATM    9  C4  UNL     1      26.682  -0.594  53.788  1.00  0.00    -0.007 C 
HETATM   10  C3  UNL     1      25.491  -0.880  53.294  1.00  0.00     0.038 C 
BRANCH  10  11
HETATM   11  C2  UNL     1      24.321  -0.048  53.368  1.00  0.00     0.106 C 
HETATM   12  C1  UNL     1      23.034  -0.365  53.295  1.00  0.00     0.056 C 
HETATM   13  F1  UNL     1      23.867   1.200  53.512  1.00  0.00    -0.207 F 
ENDBRANCH  10  11
ENDBRANCH   8   9
ENDBRANCH   5   8
ENDBRANCH   1   5
BRANCH   2  14
HETATM   14  C7  UNL     1      25.893   3.161  50.452  1.00  0.00     0.142 C 
BRANCH  14  15
HETATM   15  C8  UNL     1      24.460   3.180  50.904  1.00  0.00    -0.048 A 
HETATM   16  C9  UNL     1      24.001   4.105  51.827  1.00  0.00     0.007 A 
HETATM   17  C10 UNL     1      22.665   4.097  52.225  1.00  0.00     0.002 A 
HETATM   18  C11 UNL     1      21.774   3.155  51.697  1.00  0.00     0.019 A 
HETATM   19  C12 UNL     1      22.264   2.248  50.778  1.00  0.00     0.011 A 
HETATM   20 BR1  UNL     1      21.042   0.967  50.061  1.00  0.00    -0.051 Br
HETATM   21  C13 UNL     1      23.599   2.242  50.368  1.00  0.00     0.026 A 
ENDBRANCH  14  15
ENDBRANCH   2  14
TORSDOF 6
ENDMDL
MODEL 7
REMARK VINA RESULT:      -6.7      3.372      4.654
REMARK  6 active torsions:
REMARK  status: ('A' for Active; 'I' for Inactive)
REMARK    1  A    between atoms: C2_2  and  C3_4 
REMARK    2  A    between atoms: C4_5  and  C5_6 
REMARK    3  A    between atoms: C5_6  and  S1_7 
REMARK    4  A    between atoms: S1_7  and  N1_10 
REMARK       I    between atoms: N1_10  and  C6_11 
REMARK    5  A    between atoms: C6_11  and  C7_13 
REMARK    6  A    between atoms: C7_13  and  C8_14 
ROOT
HETATM    1  N1  UNL     1      25.620   3.126  52.076  1.00  0.00    -0.254 N 
HETATM    2  C6  UNL     1      25.819   3.335  50.703  1.00  0.00     0.235 C 
HETATM    3  O3  UNL     1      26.721   2.787  50.021  1.00  0.00    -0.272 OA
HETATM    4  H7  UNL     1      24.855   3.612  52.577  1.00  0.00     0.181 HD
ENDROOT
BRANCH   1   5
HETATM    5  S1  UNL     1      26.724   2.031  52.817  1.00  0.00     0.236 S 
HETATM    6  O1  UNL     1      28.104   2.383  52.392  1.00  0.00    -0.205 OA
HETATM    7  O2  UNL     1      26.649   2.098  54.313  1.00  0.00    -0.205 OA
BRANCH   5   8
HETATM    8  C5  UNL     1      26.392   0.348  52.326  1.00  0.00     0.190 C 
BRANCH   8   9
HETATM    9  C4  UNL     1      25.726  -0.402  53.419  1.00  0.00    -0.007 C 
HETATM   10  C3  UNL     1      24.415  -0.379  53.580  1.00  0.00     0.038 C 
BRANCH  10  11
HETATM   11  C2  UNL     1      23.474   0.340  52.764  1.00  0.00     0.106 C 
HETATM   12  C1  UNL     1      22.301   0.876  53.073  1.00  0.00     0.056 C 
HETATM   13  F1  UNL     1      23.214   0.808  51.540  1.00  0.00    -0.207 F 
ENDBRANCH  10  11
ENDBRANCH   8   9
ENDBRANCH   5   8
ENDBRANCH   1   5
BRANCH   2  14
HETATM   14  C7  UNL     1      24.971   4.243  49.883  1.00  0.00     0.142 C 
BRANCH  14  15
HETATM   15  C8  UNL     1      23.635   3.582  49.693  1.00  0.00    -0.048 A 
HETATM   16  C9  UNL     1      23.415   2.664  48.680  1.00  0.00     0.007 A 
HETATM   17  C10 UNL     1      22.164   2.069  48.531  1.00  0.00     0.002 A 
HETATM   18  C11 UNL     1      21.116   2.392  49.401  1.00  0.00     0.019 A 
HETATM   19  C12 UNL     1      21.369   3.311  50.401  1.00  0.00     0.011 A 
HETATM   20 BR1  UNL     1      19.935   3.748  51.586  1.00  0.00    -0.051 Br
HETATM   21  C13 UNL     1      22.616   3.917  50.565  1.00  0.00     0.026 A 
ENDBRANCH  14  15
ENDBRANCH   2  14
TORSDOF 6
ENDMDL
MODEL 8
REMARK VINA RESULT:      -6.6      4.579      6.215
REMARK  6 active torsions:
REMARK  status: ('A' for Active; 'I' for Inactive)
REMARK    1  A    between atoms: C2_2  and  C3_4 
REMARK    2  A    between atoms: C4_5  and  C5_6 
REMARK    3  A    between atoms: C5_6  and  S1_7 
REMARK    4  A    between atoms: S1_7  and  N1_10 
REMARK       I    between atoms: N1_10  and  C6_11 
REMARK    5  A    between atoms: C6_11  and  C7_13 
REMARK    6  A    between atoms: C7_13  and  C8_14 
ROOT
HETATM    1  N1  UNL     1      24.149   1.395  51.198  1.00  0.00    -0.254 N 
HETATM    2  C6  UNL     1      22.925   1.997  50.868  1.00  0.00     0.235 C 
HETATM    3  O3  UNL     1      22.630   3.194  51.109  1.00  0.00    -0.272 OA
HETATM    4  H7  UNL     1      24.325   0.401  50.969  1.00  0.00     0.181 HD
ENDROOT
BRANCH   1   5
HETATM    5  S1  UNL     1      25.281   2.425  51.988  1.00  0.00     0.236 S 
HETATM    6  O1  UNL     1      25.596   3.567  51.091  1.00  0.00    -0.205 OA
HETATM    7  O2  UNL     1      24.734   2.962  53.276  1.00  0.00    -0.205 OA
BRANCH   5   8
HETATM    8  C5  UNL     1      26.797   1.558  52.354  1.00  0.00     0.190 C 
BRANCH   8   9
HETATM    9  C4  UNL     1      26.643   0.101  52.121  1.00  0.00    -0.007 C 
HETATM   10  C3  UNL     1      27.380  -0.788  52.763  1.00  0.00     0.038 C 
BRANCH  10  11
HETATM   11  C2  UNL     1      28.395  -0.500  53.740  1.00  0.00     0.106 C 
HETATM   12  C1  UNL     1      29.713  -0.421  53.613  1.00  0.00     0.056 C 
HETATM   13  F1  UNL     1      28.636  -0.209  55.021  1.00  0.00    -0.207 F 
ENDBRANCH  10  11
ENDBRANCH   8   9
ENDBRANCH   5   8
ENDBRANCH   1   5
BRANCH   2  14
HETATM   14  C7  UNL     1      21.818   1.276  50.182  1.00  0.00     0.142 C 
BRANCH  14  15
HETATM   15  C8  UNL     1      20.977   0.610  51.235  1.00  0.00    -0.048 A 
HETATM   16  C9  UNL     1      19.596   0.568  51.143  1.00  0.00     0.007 A 
HETATM   17  C10 UNL     1      18.845  -0.058  52.137  1.00  0.00     0.002 A 
HETATM   18  C11 UNL     1      19.477  -0.649  53.237  1.00  0.00     0.019 A 
HETATM   19  C12 UNL     1      20.855  -0.589  53.298  1.00  0.00     0.011 A 
HETATM   20 BR1  UNL     1      21.711  -1.398  54.802  1.00  0.00    -0.051 Br
HETATM   21  C13 UNL     1      21.623   0.034  52.312  1.00  0.00     0.026 A 
ENDBRANCH  14  15
ENDBRANCH   2  14
TORSDOF 6
ENDMDL
MODEL 9
REMARK VINA RESULT:      -6.6      2.471      3.108
REMARK  6 active torsions:
REMARK  status: ('A' for Active; 'I' for Inactive)
REMARK    1  A    between atoms: C2_2  and  C3_4 
REMARK    2  A    between atoms: C4_5  and  C5_6 
REMARK    3  A    between atoms: C5_6  and  S1_7 
REMARK    4  A    between atoms: S1_7  and  N1_10 
REMARK       I    between atoms: N1_10  and  C6_11 
REMARK    5  A    between atoms: C6_11  and  C7_13 
REMARK    6  A    between atoms: C7_13  and  C8_14 
ROOT
HETATM    1  N1  UNL     1      26.618   2.809  51.629  1.00  0.00    -0.254 N 
HETATM    2  C6  UNL     1      25.610   2.845  50.653  1.00  0.00     0.235 C 
HETATM    3  O3  UNL     1      24.437   2.428  50.824  1.00  0.00    -0.272 OA
HETATM    4  H7  UNL     1      27.566   3.170  51.419  1.00  0.00     0.181 HD
ENDROOT
BRANCH   1   5
HETATM    5  S1  UNL     1      26.149   2.134  53.143  1.00  0.00     0.236 S 
HETATM    6  O1  UNL     1      27.261   2.314  54.112  1.00  0.00    -0.205 OA
HETATM    7  O2  UNL     1      24.921   2.801  53.688  1.00  0.00    -0.205 OA
BRANCH   5   8
HETATM    8  C5  UNL     1      25.806   0.389  52.993  1.00  0.00     0.190 C 
BRANCH   8   9
HETATM    9  C4  UNL     1      25.858  -0.277  54.318  1.00  0.00    -0.007 C 
HETATM   10  C3  UNL     1      24.786  -0.822  54.865  1.00  0.00     0.038 C 
BRANCH  10  11
HETATM   11  C2  UNL     1      23.468  -0.856  54.293  1.00  0.00     0.106 C 
HETATM   12  C1  UNL     1      22.283  -1.007  54.871  1.00  0.00     0.056 C 
HETATM   13  F1  UNL     1      22.757  -0.784  53.164  1.00  0.00    -0.207 F 
ENDBRANCH  10  11
ENDBRANCH   8   9
ENDBRANCH   5   8
ENDBRANCH   1   5
BRANCH   2  14
HETATM   14  C7  UNL     1      25.816   3.389  49.284  1.00  0.00     0.142 C 
BRANCH  14  15
HETATM   15  C8  UNL     1      26.031   4.872  49.403  1.00  0.00    -0.048 A 
HETATM   16  C9  UNL     1      25.222   5.662  50.203  1.00  0.00     0.007 A 
HETATM   17  C10 UNL     1      25.449   7.035  50.292  1.00  0.00     0.002 A 
HETATM   18  C11 UNL     1      26.494   7.629  49.574  1.00  0.00     0.019 A 
HETATM   19  C12 UNL     1      27.281   6.812  48.786  1.00  0.00     0.011 A 
HETATM   20 BR1  UNL     1      28.705   7.630  47.809  1.00  0.00    -0.051 Br
HETATM   21  C13 UNL     1      27.069   5.436  48.685  1.00  0.00     0.026 A 
ENDBRANCH  14  15
ENDBRANCH   2  14
TORSDOF 6
ENDMDL
