MODEL 1
REMARK VINA RESULT:      -7.3      0.000      0.000
REMARK  5 active torsions:
REMARK  status: ('A' for Active; 'I' for Inactive)
REMARK    1  A    between atoms: O1_2  and  C2_3 
REMARK    2  A    between atoms: C3_4  and  O2_5 
REMARK    3  A    between atoms: C6_9  and  C7_10 
REMARK    4  A    between atoms: C8_12  and  C9_13 
REMARK    5  A    between atoms: C12_16  and  O5_17 
ROOT
HETATM    1  C2  UNL     1      27.400  -0.628  53.750  1.00  0.00     0.090 C 
HETATM    2  C3  UNL     1      28.726  -0.423  53.677  1.00  0.00     0.097 C 
HETATM    3  C4  UNL     1      29.492   0.796  54.010  1.00  0.00     0.063 C 
HETATM    4  C5  UNL     1      28.965   2.032  54.064  1.00  0.00     0.138 C 
HETATM    5  O3  UNL     1      27.647   2.416  53.830  1.00  0.00    -0.350 OA
HETATM    6  C6  UNL     1      26.543   1.623  53.358  1.00  0.00     0.203 C 
HETATM    7  C8  UNL     1      26.436   0.408  54.209  1.00  0.00     0.114 C 
ENDROOT
BRANCH   7   8
HETATM    8  C9  UNL     1      25.109  -0.186  54.326  1.00  0.00    -0.044 A 
HETATM    9  C10 UNL     1      24.781  -0.821  55.511  1.00  0.00     0.011 A 
HETATM   10  C11 UNL     1      23.538  -1.424  55.735  1.00  0.00     0.037 A 
HETATM   11  C12 UNL     1      22.582  -1.394  54.741  1.00  0.00     0.068 A 
HETATM   12  C14 UNL     1      22.872  -0.766  53.540  1.00  0.00     0.037 A 
HETATM   13  C15 UNL     1      24.114  -0.191  53.380  1.00  0.00     0.011 A 
BRANCH  11  14
HETATM   14  O5  UNL     1      21.314  -1.952  54.838  1.00  0.00    -0.356 OA
HETATM   15  C13 UNL     1      20.289  -1.443  54.037  1.00  0.00     0.210 C 
ENDBRANCH  11  14
ENDBRANCH   7   8
BRANCH   1  16
HETATM   16  O1  UNL     1      26.853  -1.846  53.393  1.00  0.00    -0.357 OA
HETATM   17  C1  UNL     1      26.811  -2.265  52.056  1.00  0.00     0.209 C 
ENDBRANCH   1  16
BRANCH   6  18
HETATM   18  C7  UNL     1      25.346   2.507  53.417  1.00  0.00     0.264 C 
HETATM   19  O4  UNL     1      25.053   2.926  52.303  1.00  0.00    -0.304 OA
ENDBRANCH   6  18
BRANCH   2  20
HETATM   20  O2  UNL     1      29.593  -1.434  53.239  1.00  0.00    -0.358 OA
HETATM   21  H4  UNL     1      29.773  -2.178  53.891  1.00  0.00     0.217 HD
ENDBRANCH   2  20
TORSDOF 5
ENDMDL
MODEL 2
REMARK VINA RESULT:      -6.5      2.210      6.274
REMARK  5 active torsions:
REMARK  status: ('A' for Active; 'I' for Inactive)
REMARK    1  A    between atoms: O1_2  and  C2_3 
REMARK    2  A    between atoms: C3_4  and  O2_5 
REMARK    3  A    between atoms: C6_9  and  C7_10 
REMARK    4  A    between atoms: C8_12  and  C9_13 
REMARK    5  A    between atoms: C12_16  and  O5_17 
ROOT
HETATM    1  C2  UNL     1      22.922   1.520  51.805  1.00  0.00     0.090 C 
HETATM    2  C3  UNL     1      21.638   1.809  51.537  1.00  0.00     0.097 C 
HETATM    3  C4  UNL     1      20.466   1.731  52.435  1.00  0.00     0.063 C 
HETATM    4  C5  UNL     1      20.415   0.983  53.551  1.00  0.00     0.138 C 
HETATM    5  O3  UNL     1      21.405   0.158  54.080  1.00  0.00    -0.350 OA
HETATM    6  C6  UNL     1      22.680  -0.201  53.518  1.00  0.00     0.203 C 
HETATM    7  C8  UNL     1      23.394   1.046  53.134  1.00  0.00     0.114 C 
ENDROOT
BRANCH   7   8
HETATM    8  C9  UNL     1      24.851   0.983  53.133  1.00  0.00    -0.044 A 
HETATM    9  C10 UNL     1      25.548   2.025  53.722  1.00  0.00     0.011 A 
HETATM   10  C11 UNL     1      26.947   2.069  53.781  1.00  0.00     0.037 A 
HETATM   11  C12 UNL     1      27.681   1.037  53.234  1.00  0.00     0.068 A 
HETATM   12  C14 UNL     1      27.019  -0.023  52.637  1.00  0.00     0.037 A 
HETATM   13  C15 UNL     1      25.642  -0.010  52.610  1.00  0.00     0.011 A 
BRANCH  11  14
HETATM   14  O5  UNL     1      29.067   0.962  53.228  1.00  0.00    -0.356 OA
HETATM   15  C13 UNL     1      29.681  -0.229  53.625  1.00  0.00     0.210 C 
ENDBRANCH  11  14
ENDBRANCH   7   8
BRANCH   1  16
HETATM   16  O1  UNL     1      23.894   1.652  50.831  1.00  0.00    -0.357 OA
HETATM   17  C1  UNL     1      24.321   2.912  50.390  1.00  0.00     0.209 C 
ENDBRANCH   1  16
BRANCH   6  18
HETATM   18  C7  UNL     1      23.381  -0.998  54.563  1.00  0.00     0.264 C 
HETATM   19  O4  UNL     1      22.591  -1.411  55.404  1.00  0.00    -0.304 OA
ENDBRANCH   6  18
BRANCH   2  20
HETATM   20  O2  UNL     1      21.245   2.255  50.267  1.00  0.00    -0.358 OA
HETATM   21  H4  UNL     1      21.872   2.047  49.509  1.00  0.00     0.217 HD
ENDBRANCH   2  20
TORSDOF 5
ENDMDL
MODEL 3
REMARK VINA RESULT:      -6.5      2.566      5.782
REMARK  5 active torsions:
REMARK  status: ('A' for Active; 'I' for Inactive)
REMARK    1  A    between atoms: O1_2  and  C2_3 
REMARK    2  A    between atoms: C3_4  and  O2_5 
REMARK    3  A    between atoms: C6_9  and  C7_10 
REMARK    4  A    between atoms: C8_12  and  C9_13 
REMARK    5  A    between atoms: C12_16  and  O5_17 
ROOT
HETATM    1  C2  UNL     1      22.516   0.021  53.686  1.00  0.00     0.090 C 
HETATM    2  C3  UNL     1      22.301  -0.884  54.656  1.00  0.00     0.097 C 
HETATM    3  C4  UNL     1      23.253  -1.411  55.655  1.00  0.00     0.063 C 
HETATM    4  C5  UNL     1      24.591  -1.377  55.521  1.00  0.00     0.138 C 
HETATM    5  O3  UNL     1      25.335  -0.863  54.462  1.00  0.00    -0.350 OA
HETATM    6  C6  UNL     1      24.878  -0.349  53.198  1.00  0.00     0.203 C 
HETATM    7  C8  UNL     1      23.832   0.676  53.455  1.00  0.00     0.114 C 
ENDROOT
BRANCH   7   8
HETATM    8  C9  UNL     1      23.682   1.716  52.444  1.00  0.00    -0.044 A 
HETATM    9  C10 UNL     1      23.794   3.036  52.845  1.00  0.00     0.011 A 
HETATM   10  C11 UNL     1      23.670   4.115  51.961  1.00  0.00     0.037 A 
HETATM   11  C12 UNL     1      23.426   3.871  50.625  1.00  0.00     0.068 A 
HETATM   12  C14 UNL     1      23.309   2.563  50.185  1.00  0.00     0.037 A 
HETATM   13  C15 UNL     1      23.441   1.544  51.103  1.00  0.00     0.011 A 
BRANCH  11  14
HETATM   14  O5  UNL     1      23.284   4.849  49.650  1.00  0.00    -0.356 OA
HETATM   15  C13 UNL     1      22.940   4.465  48.352  1.00  0.00     0.210 C 
ENDBRANCH  11  14
ENDBRANCH   7   8
BRANCH   1  16
HETATM   16  O1  UNL     1      21.496   0.398  52.832  1.00  0.00    -0.357 OA
HETATM   17  C1  UNL     1      20.451   1.227  53.263  1.00  0.00     0.209 C 
ENDBRANCH   1  16
BRANCH   6  18
HETATM   18  C7  UNL     1      26.086   0.183  52.508  1.00  0.00     0.264 C 
HETATM   19  O4  UNL     1      26.771  -0.728  52.057  1.00  0.00    -0.304 OA
ENDBRANCH   6  18
BRANCH   2  20
HETATM   20  O2  UNL     1      21.040  -1.470  54.833  1.00  0.00    -0.358 OA
HETATM   21  H4  UNL     1      20.533  -1.195  55.656  1.00  0.00     0.217 HD
ENDBRANCH   2  20
TORSDOF 5
ENDMDL
MODEL 4
REMARK VINA RESULT:      -6.5      2.261      5.792
REMARK  5 active torsions:
REMARK  status: ('A' for Active; 'I' for Inactive)
REMARK    1  A    between atoms: O1_2  and  C2_3 
REMARK    2  A    between atoms: C3_4  and  O2_5 
REMARK    3  A    between atoms: C6_9  and  C7_10 
REMARK    4  A    between atoms: C8_12  and  C9_13 
REMARK    5  A    between atoms: C12_16  and  O5_17 
ROOT
HETATM    1  C2  UNL     1      24.265   2.211  51.476  1.00  0.00     0.090 C 
HETATM    2  C3  UNL     1      23.332   3.040  50.978  1.00  0.00     0.097 C 
HETATM    3  C4  UNL     1      21.981   3.332  51.502  1.00  0.00     0.063 C 
HETATM    4  C5  UNL     1      21.302   2.528  52.339  1.00  0.00     0.138 C 
HETATM    5  O3  UNL     1      21.702   1.304  52.870  1.00  0.00    -0.350 OA
HETATM    6  C6  UNL     1      22.878   0.530  52.574  1.00  0.00     0.203 C 
HETATM    7  C8  UNL     1      24.070   1.408  52.714  1.00  0.00     0.114 C 
ENDROOT
BRANCH   7   8
HETATM    8  C9  UNL     1      25.323   0.749  53.062  1.00  0.00    -0.044 A 
HETATM    9  C10 UNL     1      26.014   1.208  54.170  1.00  0.00     0.011 A 
HETATM   10  C11 UNL     1      27.225   0.651  54.599  1.00  0.00     0.037 A 
HETATM   11  C12 UNL     1      27.769  -0.406  53.899  1.00  0.00     0.068 A 
HETATM   12  C14 UNL     1      27.106  -0.895  52.786  1.00  0.00     0.037 A 
HETATM   13  C15 UNL     1      25.918  -0.304  52.413  1.00  0.00     0.011 A 
BRANCH  11  14
HETATM   14  O5  UNL     1      28.959  -1.046  54.220  1.00  0.00    -0.356 OA
HETATM   15  C13 UNL     1      30.111  -0.736  53.494  1.00  0.00     0.210 C 
ENDBRANCH  11  14
ENDBRANCH   7   8
BRANCH   1  16
HETATM   16  O1  UNL     1      25.485   2.061  50.845  1.00  0.00    -0.357 OA
HETATM   17  C1  UNL     1      26.423   3.102  50.807  1.00  0.00     0.209 C 
ENDBRANCH   1  16
BRANCH   6  18
HETATM   18  C7  UNL     1      22.863  -0.620  53.520  1.00  0.00     0.264 C 
HETATM   19  O4  UNL     1      22.145  -0.386  54.485  1.00  0.00    -0.304 OA
ENDBRANCH   6  18
BRANCH   2  20
HETATM   20  O2  UNL     1      23.566   3.776  49.809  1.00  0.00    -0.358 OA
HETATM   21  H4  UNL     1      23.046   4.631  49.710  1.00  0.00     0.217 HD
ENDBRANCH   2  20
TORSDOF 5
ENDMDL
MODEL 5
REMARK VINA RESULT:      -6.5      1.878      5.777
REMARK  5 active torsions:
REMARK  status: ('A' for Active; 'I' for Inactive)
REMARK    1  A    between atoms: O1_2  and  C2_3 
REMARK    2  A    between atoms: C3_4  and  O2_5 
REMARK    3  A    between atoms: C6_9  and  C7_10 
REMARK    4  A    between atoms: C8_12  and  C9_13 
REMARK    5  A    between atoms: C12_16  and  O5_17 
ROOT
HETATM    1  C2  UNL     1      22.705  -0.061  53.461  1.00  0.00     0.090 C 
HETATM    2  C3  UNL     1      21.388  -0.182  53.222  1.00  0.00     0.097 C 
HETATM    3  C4  UNL     1      20.655   0.035  51.957  1.00  0.00     0.063 C 
HETATM    4  C5  UNL     1      21.115   0.771  50.930  1.00  0.00     0.138 C 
HETATM    5  O3  UNL     1      22.324   1.457  50.837  1.00  0.00    -0.350 OA
HETATM    6  C6  UNL     1      23.332   1.656  51.845  1.00  0.00     0.203 C 
HETATM    7  C8  UNL     1      23.693   0.334  52.421  1.00  0.00     0.114 C 
ENDROOT
BRANCH   7   8
HETATM    8  C9  UNL     1      25.040   0.210  52.964  1.00  0.00    -0.044 A 
HETATM    9  C10 UNL     1      25.807  -0.872  52.565  1.00  0.00     0.011 A 
HETATM   10  C11 UNL     1      27.113  -1.090  53.020  1.00  0.00     0.037 A 
HETATM   11  C12 UNL     1      27.679  -0.197  53.906  1.00  0.00     0.068 A 
HETATM   12  C14 UNL     1      26.944   0.898  54.328  1.00  0.00     0.037 A 
HETATM   13  C15 UNL     1      25.664   1.059  53.845  1.00  0.00     0.011 A 
BRANCH  11  14
HETATM   14  O5  UNL     1      28.961  -0.299  54.430  1.00  0.00    -0.356 OA
HETATM   15  C13 UNL     1      29.945  -0.958  53.688  1.00  0.00     0.210 C 
ENDBRANCH  11  14
ENDBRANCH   7   8
BRANCH   1  16
HETATM   16  O1  UNL     1      23.220  -0.305  54.721  1.00  0.00    -0.357 OA
HETATM   17  C1  UNL     1      23.072  -1.553  55.342  1.00  0.00     0.209 C 
ENDBRANCH   1  16
BRANCH   6  18
HETATM   18  C7  UNL     1      24.463   2.346  51.164  1.00  0.00     0.264 C 
HETATM   19  O4  UNL     1      24.519   3.526  51.491  1.00  0.00    -0.304 OA
ENDBRANCH   6  18
BRANCH   2  20
HETATM   20  O2  UNL     1      20.499  -0.559  54.238  1.00  0.00    -0.358 OA
HETATM   21  H4  UNL     1      19.700  -1.097  53.951  1.00  0.00     0.217 HD
ENDBRANCH   2  20
TORSDOF 5
ENDMDL
MODEL 6
REMARK VINA RESULT:      -6.4      2.959      4.014
REMARK  5 active torsions:
REMARK  status: ('A' for Active; 'I' for Inactive)
REMARK    1  A    between atoms: O1_2  and  C2_3 
REMARK    2  A    between atoms: C3_4  and  O2_5 
REMARK    3  A    between atoms: C6_9  and  C7_10 
REMARK    4  A    between atoms: C8_12  and  C9_13 
REMARK    5  A    between atoms: C12_16  and  O5_17 
ROOT
HETATM    1  C2  UNL     1      25.440   0.653  53.012  1.00  0.00     0.090 C 
HETATM    2  C3  UNL     1      26.457   0.085  53.682  1.00  0.00     0.097 C 
HETATM    3  C4  UNL     1      27.785   0.654  54.000  1.00  0.00     0.063 C 
HETATM    4  C5  UNL     1      28.350   1.679  53.338  1.00  0.00     0.138 C 
HETATM    5  O3  UNL     1      27.834   2.394  52.260  1.00  0.00    -0.350 OA
HETATM    6  C6  UNL     1      26.634   2.154  51.504  1.00  0.00     0.203 C 
HETATM    7  C8  UNL     1      25.495   2.030  52.453  1.00  0.00     0.114 C 
ENDROOT
BRANCH   7   8
HETATM    8  C9  UNL     1      24.180   2.393  51.937  1.00  0.00    -0.044 A 
HETATM    9  C10 UNL     1      23.465   3.371  52.607  1.00  0.00     0.011 A 
HETATM   10  C11 UNL     1      22.195   3.800  52.201  1.00  0.00     0.037 A 
HETATM   11  C12 UNL     1      21.615   3.236  51.085  1.00  0.00     0.068 A 
HETATM   12  C14 UNL     1      22.300   2.254  50.387  1.00  0.00     0.037 A 
HETATM   13  C15 UNL     1      23.546   1.874  50.835  1.00  0.00     0.011 A 
BRANCH  11  14
HETATM   14  O5  UNL     1      20.366   3.572  50.580  1.00  0.00    -0.356 OA
HETATM   15  C13 UNL     1      19.281   3.652  51.456  1.00  0.00     0.210 C 
ENDBRANCH  11  14
ENDBRANCH   7   8
BRANCH   1  16
HETATM   16  O1  UNL     1      24.259  -0.037  52.806  1.00  0.00    -0.357 OA
HETATM   17  C1  UNL     1      23.395  -0.340  53.866  1.00  0.00     0.209 C 
ENDBRANCH   1  16
BRANCH   6  18
HETATM   18  C7  UNL     1      26.507   3.297  50.558  1.00  0.00     0.264 C 
HETATM   19  O4  UNL     1      26.865   2.976  49.430  1.00  0.00    -0.304 OA
ENDBRANCH   6  18
BRANCH   2  20
HETATM   20  O2  UNL     1      26.354  -1.216  54.192  1.00  0.00    -0.358 OA
HETATM   21  H4  UNL     1      27.012  -1.466  54.910  1.00  0.00     0.217 HD
ENDBRANCH   2  20
TORSDOF 5
ENDMDL
MODEL 7
REMARK VINA RESULT:      -6.3      2.984      5.237
REMARK  5 active torsions:
REMARK  status: ('A' for Active; 'I' for Inactive)
REMARK    1  A    between atoms: O1_2  and  C2_3 
REMARK    2  A    between atoms: C3_4  and  O2_5 
REMARK    3  A    between atoms: C6_9  and  C7_10 
REMARK    4  A    between atoms: C8_12  and  C9_13 
REMARK    5  A    between atoms: C12_16  and  O5_17 
ROOT
HETATM    1  C2  UNL     1      24.187   4.115  51.062  1.00  0.00     0.090 C 
HETATM    2  C3  UNL     1      24.793   5.141  50.442  1.00  0.00     0.097 C 
HETATM    3  C4  UNL     1      25.928   5.109  49.495  1.00  0.00     0.063 C 
HETATM    4  C5  UNL     1      26.804   4.094  49.396  1.00  0.00     0.138 C 
HETATM    5  O3  UNL     1      26.833   2.909  50.128  1.00  0.00    -0.350 OA
HETATM    6  C6  UNL     1      26.020   2.515  51.247  1.00  0.00     0.203 C 
HETATM    7  C8  UNL     1      24.590   2.695  50.879  1.00  0.00     0.114 C 
ENDROOT
BRANCH   7   8
HETATM    8  C9  UNL     1      23.633   1.830  51.559  1.00  0.00    -0.044 A 
HETATM    9  C10 UNL     1      22.599   1.289  50.813  1.00  0.00     0.011 A 
HETATM   10  C11 UNL     1      21.625   0.446  51.360  1.00  0.00     0.037 A 
HETATM   11  C12 UNL     1      21.681   0.126  52.701  1.00  0.00     0.068 A 
HETATM   12  C14 UNL     1      22.701   0.648  53.480  1.00  0.00     0.037 A 
HETATM   13  C15 UNL     1      23.630   1.472  52.885  1.00  0.00     0.011 A 
BRANCH  11  14
HETATM   14  O5  UNL     1      20.779  -0.697  53.362  1.00  0.00    -0.356 OA
HETATM   15  C13 UNL     1      21.255  -1.568  54.345  1.00  0.00     0.210 C 
ENDBRANCH  11  14
ENDBRANCH   7   8
BRANCH   1  16
HETATM   16  O1  UNL     1      23.129   4.336  51.924  1.00  0.00    -0.357 OA
HETATM   17  C1  UNL     1      21.904   4.838  51.466  1.00  0.00     0.209 C 
ENDBRANCH   1  16
BRANCH   6  18
HETATM   18  C7  UNL     1      26.391   1.105  51.550  1.00  0.00     0.264 C 
HETATM   19  O4  UNL     1      27.231   1.053  52.441  1.00  0.00    -0.304 OA
ENDBRANCH   6  18
BRANCH   2  20
HETATM   20  O2  UNL     1      24.372   6.463  50.647  1.00  0.00    -0.358 OA
HETATM   21  H4  UNL     1      24.019   6.679  51.563  1.00  0.00     0.217 HD
ENDBRANCH   2  20
TORSDOF 5
ENDMDL
MODEL 8
REMARK VINA RESULT:      -6.2      3.352      5.011
REMARK  5 active torsions:
REMARK  status: ('A' for Active; 'I' for Inactive)
REMARK    1  A    between atoms: O1_2  and  C2_3 
REMARK    2  A    between atoms: C3_4  and  O2_5 
REMARK    3  A    between atoms: C6_9  and  C7_10 
REMARK    4  A    between atoms: C8_12  and  C9_13 
REMARK    5  A    between atoms: C12_16  and  O5_17 
ROOT
HETATM    1  C2  UNL     1      25.155   2.113  51.812  1.00  0.00     0.090 C 
HETATM    2  C3  UNL     1      26.463   1.841  51.948  1.00  0.00     0.097 C 
HETATM    3  C4  UNL     1      27.114   0.538  52.203  1.00  0.00     0.063 C 
HETATM    4  C5  UNL     1      26.493  -0.529  52.735  1.00  0.00     0.138 C 
HETATM    5  O3  UNL     1      25.165  -0.636  53.144  1.00  0.00    -0.350 OA
HETATM    6  C6  UNL     1      24.155   0.385  53.215  1.00  0.00     0.203 C 
HETATM    7  C8  UNL     1      24.090   1.078  51.901  1.00  0.00     0.114 C 
ENDROOT
BRANCH   7   8
HETATM    8  C9  UNL     1      22.807   1.675  51.546  1.00  0.00    -0.044 A 
HETATM    9  C10 UNL     1      22.284   1.400  50.294  1.00  0.00     0.011 A 
HETATM   10  C11 UNL     1      21.062   1.917  49.848  1.00  0.00     0.037 A 
HETATM   11  C12 UNL     1      20.329   2.738  50.680  1.00  0.00     0.068 A 
HETATM   12  C14 UNL     1      20.819   3.035  51.942  1.00  0.00     0.037 A 
HETATM   13  C15 UNL     1      22.028   2.497  52.323  1.00  0.00     0.011 A 
BRANCH  11  14
HETATM   14  O5  UNL     1      19.106   3.311  50.359  1.00  0.00    -0.356 OA
HETATM   15  C13 UNL     1      18.257   3.716  51.391  1.00  0.00     0.210 C 
ENDBRANCH  11  14
ENDBRANCH   7   8
BRANCH   1  16
HETATM   16  O1  UNL     1      24.723   3.405  51.575  1.00  0.00    -0.357 OA
HETATM   17  C1  UNL     1      24.958   4.041  50.348  1.00  0.00     0.209 C 
ENDBRANCH   1  16
BRANCH   6  18
HETATM   18  C7  UNL     1      22.893  -0.309  53.592  1.00  0.00     0.264 C 
HETATM   19  O4  UNL     1      23.034  -0.943  54.632  1.00  0.00    -0.304 OA
ENDBRANCH   6  18
BRANCH   2  20
HETATM   20  O2  UNL     1      27.429   2.853  51.853  1.00  0.00    -0.358 OA
HETATM   21  H4  UNL     1      27.497   3.320  50.965  1.00  0.00     0.217 HD
ENDBRANCH   2  20
TORSDOF 5
ENDMDL
MODEL 9
REMARK VINA RESULT:      -6.2      2.740      4.856
REMARK  5 active torsions:
REMARK  status: ('A' for Active; 'I' for Inactive)
REMARK    1  A    between atoms: O1_2  and  C2_3 
REMARK    2  A    between atoms: C3_4  and  O2_5 
REMARK    3  A    between atoms: C6_9  and  C7_10 
REMARK    4  A    between atoms: C8_12  and  C9_13 
REMARK    5  A    between atoms: C12_16  and  O5_17 
ROOT
HETATM    1  C2  UNL     1      23.964   2.795  51.445  1.00  0.00     0.090 C 
HETATM    2  C3  UNL     1      25.131   3.361  51.096  1.00  0.00     0.097 C 
HETATM    3  C4  UNL     1      26.457   2.726  50.944  1.00  0.00     0.063 C 
HETATM    4  C5  UNL     1      26.807   1.557  51.509  1.00  0.00     0.138 C 
HETATM    5  O3  UNL     1      26.036   0.730  52.322  1.00  0.00    -0.350 OA
HETATM    6  C6  UNL     1      24.723   0.960  52.862  1.00  0.00     0.203 C 
HETATM    7  C8  UNL     1      23.815   1.346  51.750  1.00  0.00     0.114 C 
ENDROOT
BRANCH   7   8
HETATM    8  C9  UNL     1      22.402   1.034  51.929  1.00  0.00    -0.044 A 
HETATM    9  C10 UNL     1      21.661   0.703  50.807  1.00  0.00     0.011 A 
HETATM   10  C11 UNL     1      20.299   0.383  50.861  1.00  0.00     0.037 A 
HETATM   11  C12 UNL     1      19.648   0.391  52.077  1.00  0.00     0.068 A 
HETATM   12  C14 UNL     1      20.357   0.717  53.222  1.00  0.00     0.037 A 
HETATM   13  C15 UNL     1      21.695   1.023  53.106  1.00  0.00     0.011 A 
BRANCH  11  14
HETATM   14  O5  UNL     1      18.305   0.094  52.264  1.00  0.00    -0.356 OA
HETATM   15  C13 UNL     1      17.961  -1.059  52.974  1.00  0.00     0.210 C 
ENDBRANCH  11  14
ENDBRANCH   7   8
BRANCH   1  16
HETATM   16  O1  UNL     1      22.811   3.553  51.539  1.00  0.00    -0.357 OA
HETATM   17  C1  UNL     1      22.675   4.560  52.505  1.00  0.00     0.209 C 
ENDBRANCH   1  16
BRANCH   6  18
HETATM   18  C7  UNL     1      24.332  -0.304  53.547  1.00  0.00     0.264 C 
HETATM   19  O4  UNL     1      25.227  -0.698  54.287  1.00  0.00    -0.304 OA
ENDBRANCH   6  18
BRANCH   2  20
HETATM   20  O2  UNL     1      25.217   4.732  50.816  1.00  0.00    -0.358 OA
HETATM   21  H4  UNL     1      25.998   5.220  51.220  1.00  0.00     0.217 HD
ENDBRANCH   2  20
TORSDOF 5
ENDMDL
