MODEL 1
REMARK VINA RESULT:      -7.7      0.000      0.000
REMARK  5 active torsions:
REMARK  status: ('A' for Active; 'I' for Inactive)
REMARK    1  A    between atoms: C3_3  and  N1_4 
REMARK    2  A    between atoms: C4_5  and  C6_7 
REMARK    3  A    between atoms: C6_7  and  C7_8 
REMARK       I    between atoms: C7_8  and  N2_10 
REMARK    4  A    between atoms: N2_10  and  S1_11 
REMARK    5  A    between atoms: S1_11  and  C8_14 
ROOT
HETATM    1  C7  UNL     1      25.962   1.918  52.644  1.00  0.00     0.236 C 
HETATM    2  O1  UNL     1      26.146   1.338  51.536  1.00  0.00    -0.272 OA
HETATM    3  N2  UNL     1      25.161   3.089  52.537  1.00  0.00    -0.250 N 
HETATM    4  H11 UNL     1      24.861   3.750  53.304  1.00  0.00     0.181 HD
ENDROOT
BRANCH   3   5
HETATM    5  S1  UNL     1      24.512   3.649  51.048  1.00  0.00     0.265 S 
HETATM    6  O2  UNL     1      23.897   2.485  50.288  1.00  0.00    -0.200 OA
HETATM    7  O3  UNL     1      23.354   4.600  51.274  1.00  0.00    -0.200 OA
BRANCH   5   8
HETATM    8  C8  UNL     1      25.695   4.470  50.054  1.00  0.00     0.080 A 
HETATM    9  C9  UNL     1      26.771   3.877  49.427  1.00  0.00     0.026 A 
HETATM   10  C10 UNL     1      27.607   4.689  48.677  1.00  0.00     0.008 A 
HETATM   11  C11 UNL     1      27.372   6.030  48.564  1.00  0.00    -0.062 A 
HETATM   12  C12 UNL     1      28.313   6.852  47.737  1.00  0.00     0.048 C 
HETATM   13  C13 UNL     1      26.310   6.645  49.176  1.00  0.00     0.008 A 
HETATM   14  C14 UNL     1      25.469   5.838  49.928  1.00  0.00     0.026 A 
ENDBRANCH   5   8
ENDBRANCH   3   5
BRANCH   1  15
HETATM   15  C6  UNL     1      26.388   1.671  54.045  1.00  0.00     0.158 C 
BRANCH  15  16
HETATM   16  C4  UNL     1      26.476   0.231  54.359  1.00  0.00     0.017 C 
HETATM   17  N1  UNL     1      27.633  -0.356  54.548  1.00  0.00    -0.270 NA
HETATM   18  C5  UNL     1      25.204  -0.532  54.455  1.00  0.00     0.066 C 
BRANCH  17  19
HETATM   19  C3  UNL     1      28.831   0.440  54.442  1.00  0.00     0.112 C 
HETATM   20  C2  UNL     1      29.708  -0.323  53.778  1.00  0.00    -0.012 C 
HETATM   21  C1  UNL     1      29.354  -1.675  53.323  1.00  0.00     0.037 C 
ENDBRANCH  17  19
ENDBRANCH  15  16
ENDBRANCH   1  15
TORSDOF 5
ENDMDL
MODEL 2
REMARK VINA RESULT:      -7.1      3.266      4.896
REMARK  5 active torsions:
REMARK  status: ('A' for Active; 'I' for Inactive)
REMARK    1  A    between atoms: C3_3  and  N1_4 
REMARK    2  A    between atoms: C4_5  and  C6_7 
REMARK    3  A    between atoms: C6_7  and  C7_8 
REMARK       I    between atoms: C7_8  and  N2_10 
REMARK    4  A    between atoms: N2_10  and  S1_11 
REMARK    5  A    between atoms: S1_11  and  C8_14 
ROOT
HETATM    1  C7  UNL     1      25.955   1.994  52.779  1.00  0.00     0.236 C 
HETATM    2  O1  UNL     1      25.770   1.704  51.563  1.00  0.00    -0.272 OA
HETATM    3  N2  UNL     1      24.989   2.905  53.291  1.00  0.00    -0.250 N 
HETATM    4  H11 UNL     1      24.917   3.304  54.266  1.00  0.00     0.181 HD
ENDROOT
BRANCH   3   5
HETATM    5  S1  UNL     1      23.705   3.539  52.344  1.00  0.00     0.265 S 
HETATM    6  O2  UNL     1      23.195   4.827  52.968  1.00  0.00    -0.200 OA
HETATM    7  O3  UNL     1      24.188   3.956  50.969  1.00  0.00    -0.200 OA
BRANCH   5   8
HETATM    8  C8  UNL     1      22.391   2.403  52.129  1.00  0.00     0.080 A 
HETATM    9  C9  UNL     1      22.526   1.067  51.813  1.00  0.00     0.026 A 
HETATM   10  C10 UNL     1      21.368   0.317  51.682  1.00  0.00     0.008 A 
HETATM   11  C11 UNL     1      20.137   0.883  51.859  1.00  0.00    -0.062 A 
HETATM   12  C12 UNL     1      18.924   0.016  51.703  1.00  0.00     0.048 C 
HETATM   13  C13 UNL     1      19.975   2.208  52.173  1.00  0.00     0.008 A 
HETATM   14  C14 UNL     1      21.129   2.964  52.306  1.00  0.00     0.026 A 
ENDBRANCH   5   8
ENDBRANCH   3   5
BRANCH   1  15
HETATM   15  C6  UNL     1      26.950   1.610  53.814  1.00  0.00     0.158 C 
BRANCH  15  16
HETATM   16  C4  UNL     1      26.827   0.194  54.214  1.00  0.00     0.017 C 
HETATM   17  N1  UNL     1      27.886  -0.551  54.420  1.00  0.00    -0.270 NA
HETATM   18  C5  UNL     1      25.457  -0.358  54.376  1.00  0.00     0.066 C 
BRANCH  17  19
HETATM   19  C3  UNL     1      29.188   0.045  54.247  1.00  0.00     0.112 C 
HETATM   20  C2  UNL     1      29.921  -0.878  53.615  1.00  0.00    -0.012 C 
HETATM   21  C1  UNL     1      29.355  -2.184  53.246  1.00  0.00     0.037 C 
ENDBRANCH  17  19
ENDBRANCH  15  16
ENDBRANCH   1  15
TORSDOF 5
ENDMDL
MODEL 3
REMARK VINA RESULT:      -6.8      4.138      6.942
REMARK  5 active torsions:
REMARK  status: ('A' for Active; 'I' for Inactive)
REMARK    1  A    between atoms: C3_3  and  N1_4 
REMARK    2  A    between atoms: C4_5  and  C6_7 
REMARK    3  A    between atoms: C6_7  and  C7_8 
REMARK       I    between atoms: C7_8  and  N2_10 
REMARK    4  A    between atoms: N2_10  and  S1_11 
REMARK    5  A    between atoms: S1_11  and  C8_14 
ROOT
HETATM    1  C7  UNL     1      22.405   1.379  51.880  1.00  0.00     0.236 C 
HETATM    2  O1  UNL     1      22.234   2.631  51.853  1.00  0.00    -0.272 OA
HETATM    3  N2  UNL     1      23.750   1.004  52.154  1.00  0.00    -0.250 N 
HETATM    4  H11 UNL     1      24.156   0.032  52.231  1.00  0.00     0.181 HD
ENDROOT
BRANCH   3   5
HETATM    5  S1  UNL     1      25.006   2.145  52.421  1.00  0.00     0.265 S 
HETATM    6  O2  UNL     1      25.159   3.034  51.199  1.00  0.00    -0.200 OA
HETATM    7  O3  UNL     1      24.648   3.106  53.538  1.00  0.00    -0.200 OA
BRANCH   5   8
HETATM    8  C8  UNL     1      26.534   1.395  52.827  1.00  0.00     0.080 A 
HETATM    9  C9  UNL     1      27.663   2.055  53.266  1.00  0.00     0.026 A 
HETATM   10  C10 UNL     1      28.788   1.294  53.542  1.00  0.00     0.008 A 
HETATM   11  C11 UNL     1      28.777  -0.063  53.382  1.00  0.00    -0.062 A 
HETATM   12  C12 UNL     1      30.026  -0.828  53.697  1.00  0.00     0.048 C 
HETATM   13  C13 UNL     1      27.669  -0.744  52.947  1.00  0.00     0.008 A 
HETATM   14  C14 UNL     1      26.540   0.012  52.670  1.00  0.00     0.026 A 
ENDBRANCH   5   8
ENDBRANCH   3   5
BRANCH   1  15
HETATM   15  C6  UNL     1      21.532   0.192  51.690  1.00  0.00     0.158 C 
BRANCH  15  16
HETATM   16  C4  UNL     1      20.691  -0.081  52.873  1.00  0.00     0.017 C 
HETATM   17  N1  UNL     1      19.382  -0.084  52.793  1.00  0.00    -0.270 NA
HETATM   18  C5  UNL     1      21.382  -0.354  54.160  1.00  0.00     0.066 C 
BRANCH  17  19
HETATM   19  C3  UNL     1      18.773   0.187  51.514  1.00  0.00     0.112 C 
HETATM   20  C2  UNL     1      17.588  -0.433  51.546  1.00  0.00    -0.012 C 
HETATM   21  C1  UNL     1      17.153  -1.193  52.727  1.00  0.00     0.037 C 
ENDBRANCH  17  19
ENDBRANCH  15  16
ENDBRANCH   1  15
TORSDOF 5
ENDMDL
MODEL 4
REMARK VINA RESULT:      -6.8      1.828      2.065
REMARK  5 active torsions:
REMARK  status: ('A' for Active; 'I' for Inactive)
REMARK    1  A    between atoms: C3_3  and  N1_4 
REMARK    2  A    between atoms: C4_5  and  C6_7 
REMARK    3  A    between atoms: C6_7  and  C7_8 
REMARK       I    between atoms: C7_8  and  N2_10 
REMARK    4  A    between atoms: N2_10  and  S1_11 
REMARK    5  A    between atoms: S1_11  and  C8_14 
ROOT
HETATM    1  C7  UNL     1      23.897   2.973  52.206  1.00  0.00     0.236 C 
HETATM    2  O1  UNL     1      22.729   3.279  51.833  1.00  0.00    -0.272 OA
HETATM    3  N2  UNL     1      24.913   3.525  51.377  1.00  0.00    -0.250 N 
HETATM    4  H11 UNL     1      25.960   3.424  51.468  1.00  0.00     0.181 HD
ENDROOT
BRANCH   3   5
HETATM    5  S1  UNL     1      24.575   4.509  50.009  1.00  0.00     0.265 S 
HETATM    6  O2  UNL     1      23.754   3.721  49.002  1.00  0.00    -0.200 OA
HETATM    7  O3  UNL     1      23.687   5.680  50.380  1.00  0.00    -0.200 OA
BRANCH   5   8
HETATM    8  C8  UNL     1      26.019   5.148  49.255  1.00  0.00     0.080 A 
HETATM    9  C9  UNL     1      27.184   4.447  49.025  1.00  0.00     0.026 A 
HETATM   10  C10 UNL     1      28.231   5.119  48.413  1.00  0.00     0.008 A 
HETATM   11  C11 UNL     1      28.109   6.431  48.051  1.00  0.00    -0.062 A 
HETATM   12  C12 UNL     1      29.277   7.100  47.393  1.00  0.00     0.048 C 
HETATM   13  C13 UNL     1      26.962   7.151  48.268  1.00  0.00     0.008 A 
HETATM   14  C14 UNL     1      25.912   6.484  48.880  1.00  0.00     0.026 A 
ENDBRANCH   5   8
ENDBRANCH   3   5
BRANCH   1  15
HETATM   15  C6  UNL     1      24.472   2.165  53.313  1.00  0.00     0.158 C 
BRANCH  15  16
HETATM   16  C4  UNL     1      24.255   0.717  53.122  1.00  0.00     0.017 C 
HETATM   17  N1  UNL     1      25.261  -0.108  52.960  1.00  0.00    -0.270 NA
HETATM   18  C5  UNL     1      22.852   0.225  53.122  1.00  0.00     0.066 C 
BRANCH  17  19
HETATM   19  C3  UNL     1      26.599   0.432  52.971  1.00  0.00     0.112 C 
HETATM   20  C2  UNL     1      27.405  -0.611  52.747  1.00  0.00    -0.012 C 
HETATM   21  C1  UNL     1      26.868  -1.966  52.550  1.00  0.00     0.037 C 
ENDBRANCH  17  19
ENDBRANCH  15  16
ENDBRANCH   1  15
TORSDOF 5
ENDMDL
MODEL 5
REMARK VINA RESULT:      -6.6      4.496      7.145
REMARK  5 active torsions:
REMARK  status: ('A' for Active; 'I' for Inactive)
REMARK    1  A    between atoms: C3_3  and  N1_4 
REMARK    2  A    between atoms: C4_5  and  C6_7 
REMARK    3  A    between atoms: C6_7  and  C7_8 
REMARK       I    between atoms: C7_8  and  N2_10 
REMARK    4  A    between atoms: N2_10  and  S1_11 
REMARK    5  A    between atoms: S1_11  and  C8_14 
ROOT
HETATM    1  C7  UNL     1      21.238   0.770  52.372  1.00  0.00     0.236 C 
HETATM    2  O1  UNL     1      21.726   0.313  51.300  1.00  0.00    -0.272 OA
HETATM    3  N2  UNL     1      22.013   1.822  52.937  1.00  0.00    -0.250 N 
HETATM    4  H11 UNL     1      21.828   2.370  53.820  1.00  0.00     0.181 HD
ENDROOT
BRANCH   3   5
HETATM    5  S1  UNL     1      23.463   2.405  52.223  1.00  0.00     0.265 S 
HETATM    6  O2  UNL     1      23.209   2.766  50.769  1.00  0.00    -0.200 OA
HETATM    7  O3  UNL     1      23.904   3.707  52.859  1.00  0.00    -0.200 OA
BRANCH   5   8
HETATM    8  C8  UNL     1      24.789   1.270  52.348  1.00  0.00     0.080 A 
HETATM    9  C9  UNL     1      25.964   1.323  51.629  1.00  0.00     0.026 A 
HETATM   10  C10 UNL     1      26.907   0.334  51.861  1.00  0.00     0.008 A 
HETATM   11  C11 UNL     1      26.677  -0.659  52.770  1.00  0.00    -0.062 A 
HETATM   12  C12 UNL     1      27.737  -1.698  52.975  1.00  0.00     0.048 C 
HETATM   13  C13 UNL     1      25.517  -0.736  53.499  1.00  0.00     0.008 A 
HETATM   14  C14 UNL     1      24.570   0.251  53.271  1.00  0.00     0.026 A 
ENDBRANCH   5   8
ENDBRANCH   3   5
BRANCH   1  15
HETATM   15  C6  UNL     1      20.038   0.469  53.196  1.00  0.00     0.158 C 
BRANCH  15  16
HETATM   16  C4  UNL     1      20.063  -0.902  53.745  1.00  0.00     0.017 C 
HETATM   17  N1  UNL     1      19.028  -1.699  53.635  1.00  0.00    -0.270 NA
HETATM   18  C5  UNL     1      21.306  -1.348  54.427  1.00  0.00     0.066 C 
BRANCH  17  19
HETATM   19  C3  UNL     1      17.852  -1.207  52.960  1.00  0.00     0.112 C 
HETATM   20  C2  UNL     1      16.980  -2.221  52.979  1.00  0.00    -0.012 C 
HETATM   21  C1  UNL     1      17.317  -3.508  53.604  1.00  0.00     0.037 C 
ENDBRANCH  17  19
ENDBRANCH  15  16
ENDBRANCH   1  15
TORSDOF 5
ENDMDL
MODEL 6
REMARK VINA RESULT:      -6.6      3.879      6.423
REMARK  5 active torsions:
REMARK  status: ('A' for Active; 'I' for Inactive)
REMARK    1  A    between atoms: C3_3  and  N1_4 
REMARK    2  A    between atoms: C4_5  and  C6_7 
REMARK    3  A    between atoms: C6_7  and  C7_8 
REMARK       I    between atoms: C7_8  and  N2_10 
REMARK    4  A    between atoms: N2_10  and  S1_11 
REMARK    5  A    between atoms: S1_11  and  C8_14 
ROOT
HETATM    1  C7  UNL     1      24.245   1.759  52.561  1.00  0.00     0.236 C 
HETATM    2  O1  UNL     1      23.949   0.858  51.726  1.00  0.00    -0.272 OA
HETATM    3  N2  UNL     1      23.192   2.690  52.779  1.00  0.00    -0.250 N 
HETATM    4  H11 UNL     1      23.181   3.529  53.421  1.00  0.00     0.181 HD
ENDROOT
BRANCH   3   5
HETATM    5  S1  UNL     1      21.672   2.589  51.983  1.00  0.00     0.265 S 
HETATM    6  O2  UNL     1      20.912   3.892  52.164  1.00  0.00    -0.200 OA
HETATM    7  O3  UNL     1      21.844   2.464  50.482  1.00  0.00    -0.200 OA
BRANCH   5   8
HETATM    8  C8  UNL     1      20.706   1.237  52.528  1.00  0.00     0.080 A 
HETATM    9  C9  UNL     1      20.973   0.447  53.627  1.00  0.00     0.026 A 
HETATM   10  C10 UNL     1      20.092  -0.585  53.908  1.00  0.00     0.008 A 
HETATM   11  C11 UNL     1      18.997  -0.811  53.123  1.00  0.00    -0.062 A 
HETATM   12  C12 UNL     1      18.083  -1.943  53.481  1.00  0.00     0.048 C 
HETATM   13  C13 UNL     1      18.708  -0.041  52.025  1.00  0.00     0.008 A 
HETATM   14  C14 UNL     1      19.585   0.993  51.738  1.00  0.00     0.026 A 
ENDBRANCH   5   8
ENDBRANCH   3   5
BRANCH   1  15
HETATM   15  C6  UNL     1      25.443   2.085  53.377  1.00  0.00     0.158 C 
BRANCH  15  16
HETATM   16  C4  UNL     1      26.700   1.924  52.619  1.00  0.00     0.017 C 
HETATM   17  N1  UNL     1      27.716   1.261  53.117  1.00  0.00    -0.270 NA
HETATM   18  C5  UNL     1      26.773   2.540  51.268  1.00  0.00     0.066 C 
BRANCH  17  19
HETATM   19  C3  UNL     1      27.581   0.686  54.433  1.00  0.00     0.112 C 
HETATM   20  C2  UNL     1      28.676  -0.062  54.608  1.00  0.00    -0.012 C 
HETATM   21  C1  UNL     1      29.709  -0.164  53.566  1.00  0.00     0.037 C 
ENDBRANCH  17  19
ENDBRANCH  15  16
ENDBRANCH   1  15
TORSDOF 5
ENDMDL
MODEL 7
REMARK VINA RESULT:      -6.5      1.580      1.905
REMARK  5 active torsions:
REMARK  status: ('A' for Active; 'I' for Inactive)
REMARK    1  A    between atoms: C3_3  and  N1_4 
REMARK    2  A    between atoms: C4_5  and  C6_7 
REMARK    3  A    between atoms: C6_7  and  C7_8 
REMARK       I    between atoms: C7_8  and  N2_10 
REMARK    4  A    between atoms: N2_10  and  S1_11 
REMARK    5  A    between atoms: S1_11  and  C8_14 
ROOT
HETATM    1  C7  UNL     1      25.572   1.720  52.766  1.00  0.00     0.236 C 
HETATM    2  O1  UNL     1      25.833   1.437  51.562  1.00  0.00    -0.272 OA
HETATM    3  N2  UNL     1      24.304   2.344  52.932  1.00  0.00    -0.250 N 
HETATM    4  H11 UNL     1      23.851   2.677  53.826  1.00  0.00     0.181 HD
ENDROOT
BRANCH   3   5
HETATM    5  S1  UNL     1      23.241   2.671  51.623  1.00  0.00     0.265 S 
HETATM    6  O2  UNL     1      23.019   1.404  50.815  1.00  0.00    -0.200 OA
HETATM    7  O3  UNL     1      21.858   3.045  52.117  1.00  0.00    -0.200 OA
BRANCH   5   8
HETATM    8  C8  UNL     1      23.809   3.964  50.590  1.00  0.00     0.080 A 
HETATM    9  C9  UNL     1      24.886   4.786  50.849  1.00  0.00     0.026 A 
HETATM   10  C10 UNL     1      25.192   5.761  49.911  1.00  0.00     0.008 A 
HETATM   11  C11 UNL     1      24.451   5.900  48.773  1.00  0.00    -0.062 A 
HETATM   12  C12 UNL     1      24.834   6.974  47.800  1.00  0.00     0.048 C 
HETATM   13  C13 UNL     1      23.375   5.097  48.491  1.00  0.00     0.008 A 
HETATM   14  C14 UNL     1      23.065   4.119  49.424  1.00  0.00     0.026 A 
ENDBRANCH   5   8
ENDBRANCH   3   5
BRANCH   1  15
HETATM   15  C6  UNL     1      26.280   1.560  54.062  1.00  0.00     0.158 C 
BRANCH  15  16
HETATM   16  C4  UNL     1      26.458   0.142  54.433  1.00  0.00     0.017 C 
HETATM   17  N1  UNL     1      27.651  -0.374  54.603  1.00  0.00    -0.270 NA
HETATM   18  C5  UNL     1      25.233  -0.682  54.610  1.00  0.00     0.066 C 
BRANCH  17  19
HETATM   19  C3  UNL     1      28.799   0.479  54.418  1.00  0.00     0.112 C 
HETATM   20  C2  UNL     1      29.690  -0.262  53.750  1.00  0.00    -0.012 C 
HETATM   21  C1  UNL     1      29.393  -1.649  53.362  1.00  0.00     0.037 C 
ENDBRANCH  17  19
ENDBRANCH  15  16
ENDBRANCH   1  15
TORSDOF 5
ENDMDL
MODEL 8
REMARK VINA RESULT:      -6.5      4.146      6.571
REMARK  5 active torsions:
REMARK  status: ('A' for Active; 'I' for Inactive)
REMARK    1  A    between atoms: C3_3  and  N1_4 
REMARK    2  A    between atoms: C4_5  and  C6_7 
REMARK    3  A    between atoms: C6_7  and  C7_8 
REMARK       I    between atoms: C7_8  and  N2_10 
REMARK    4  A    between atoms: N2_10  and  S1_11 
REMARK    5  A    between atoms: S1_11  and  C8_14 
ROOT
HETATM    1  C7  UNL     1      23.594  -0.261  53.411  1.00  0.00     0.236 C 
HETATM    2  O1  UNL     1      24.358  -0.411  54.406  1.00  0.00    -0.272 OA
HETATM    3  N2  UNL     1      24.067   0.708  52.482  1.00  0.00    -0.250 N 
HETATM    4  H11 UNL     1      23.622   1.019  51.576  1.00  0.00     0.181 HD
ENDROOT
BRANCH   3   5
HETATM    5  S1  UNL     1      25.531   1.579  52.701  1.00  0.00     0.265 S 
HETATM    6  O2  UNL     1      25.788   2.461  51.491  1.00  0.00    -0.200 OA
HETATM    7  O3  UNL     1      25.424   2.554  53.857  1.00  0.00    -0.200 OA
BRANCH   5   8
HETATM    8  C8  UNL     1      26.905   0.539  53.002  1.00  0.00     0.080 A 
HETATM    9  C9  UNL     1      27.048  -0.757  52.551  1.00  0.00     0.026 A 
HETATM   10  C10 UNL     1      28.210  -1.432  52.888  1.00  0.00     0.008 A 
HETATM   11  C11 UNL     1      29.179  -0.834  53.642  1.00  0.00    -0.062 A 
HETATM   12  C12 UNL     1      30.413  -1.618  53.972  1.00  0.00     0.048 C 
HETATM   13  C13 UNL     1      29.063   0.453  54.103  1.00  0.00     0.008 A 
HETATM   14  C14 UNL     1      27.903   1.134  53.769  1.00  0.00     0.026 A 
ENDBRANCH   5   8
ENDBRANCH   3   5
BRANCH   1  15
HETATM   15  C6  UNL     1      22.305  -0.858  52.973  1.00  0.00     0.158 C 
BRANCH  15  16
HETATM   16  C4  UNL     1      21.178   0.088  53.095  1.00  0.00     0.017 C 
HETATM   17  N1  UNL     1      20.632   0.639  52.038  1.00  0.00    -0.270 NA
HETATM   18  C5  UNL     1      20.681   0.393  54.462  1.00  0.00     0.066 C 
BRANCH  17  19
HETATM   19  C3  UNL     1      21.160   0.300  50.739  1.00  0.00     0.112 C 
HETATM   20  C2  UNL     1      21.343   1.469  50.113  1.00  0.00    -0.012 C 
HETATM   21  C1  UNL     1      21.018   2.746  50.766  1.00  0.00     0.037 C 
ENDBRANCH  17  19
ENDBRANCH  15  16
ENDBRANCH   1  15
TORSDOF 5
ENDMDL
MODEL 9
REMARK VINA RESULT:      -6.5      2.540      7.240
REMARK  5 active torsions:
REMARK  status: ('A' for Active; 'I' for Inactive)
REMARK    1  A    between atoms: C3_3  and  N1_4 
REMARK    2  A    between atoms: C4_5  and  C6_7 
REMARK    3  A    between atoms: C6_7  and  C7_8 
REMARK       I    between atoms: C7_8  and  N2_10 
REMARK    4  A    between atoms: N2_10  and  S1_11 
REMARK    5  A    between atoms: S1_11  and  C8_14 
ROOT
HETATM    1  C7  UNL     1      25.702   2.905  51.075  1.00  0.00     0.236 C 
HETATM    2  O1  UNL     1      25.154   3.460  52.070  1.00  0.00    -0.272 OA
HETATM    3  N2  UNL     1      26.436   1.736  51.420  1.00  0.00    -0.250 N 
HETATM    4  H11 UNL     1      26.982   1.093  50.784  1.00  0.00     0.181 HD
ENDROOT
BRANCH   3   5
HETATM    5  S1  UNL     1      26.556   1.146  53.029  1.00  0.00     0.265 S 
HETATM    6  O2  UNL     1      27.785   0.262  53.160  1.00  0.00    -0.200 OA
HETATM    7  O3  UNL     1      26.802   2.273  54.013  1.00  0.00    -0.200 OA
BRANCH   5   8
HETATM    8  C8  UNL     1      25.125   0.283  53.548  1.00  0.00     0.080 A 
HETATM    9  C9  UNL     1      25.040  -0.547  54.647  1.00  0.00     0.026 A 
HETATM   10  C10 UNL     1      23.818  -1.149  54.906  1.00  0.00     0.008 A 
HETATM   11  C11 UNL     1      22.738  -0.926  54.099  1.00  0.00    -0.062 A 
HETATM   12  C12 UNL     1      21.446  -1.607  54.434  1.00  0.00     0.048 C 
HETATM   13  C13 UNL     1      22.796  -0.106  53.001  1.00  0.00     0.008 A 
HETATM   14  C14 UNL     1      24.015   0.499  52.737  1.00  0.00     0.026 A 
ENDBRANCH   5   8
ENDBRANCH   3   5
BRANCH   1  15
HETATM   15  C6  UNL     1      25.768   3.184  49.617  1.00  0.00     0.158 C 
BRANCH  15  16
HETATM   16  C4  UNL     1      25.509   4.603  49.304  1.00  0.00     0.017 C 
HETATM   17  N1  UNL     1      26.458   5.386  48.851  1.00  0.00    -0.270 NA
HETATM   18  C5  UNL     1      24.131   5.116  49.522  1.00  0.00     0.066 C 
BRANCH  17  19
HETATM   19  C3  UNL     1      27.774   4.827  48.660  1.00  0.00     0.112 C 
HETATM   20  C2  UNL     1      28.531   5.840  48.224  1.00  0.00    -0.012 C 
HETATM   21  C1  UNL     1      27.972   7.187  48.034  1.00  0.00     0.037 C 
ENDBRANCH  17  19
ENDBRANCH  15  16
ENDBRANCH   1  15
TORSDOF 5
ENDMDL
