MODEL 1
REMARK VINA RESULT:     -10.2      0.000      0.000
REMARK  5 active torsions:
REMARK  status: ('A' for Active; 'I' for Inactive)
REMARK    1  A    between atoms: O1_2  and  C2_3 
REMARK    2  A    between atoms: C2_3  and  N1_4 
REMARK    3  A    between atoms: N1_4  and  C3_5 
REMARK    4  A    between atoms: C8_11  and  C9_12 
REMARK    5  A    between atoms: C9_12  and  C10_13 
ROOT
HETATM    1  C3  UNL     1      21.380   4.493  51.236  1.00  0.00     0.096 A 
HETATM    2  C4  UNL     1      20.452   3.675  52.060  1.00  0.00    -0.023 A 
HETATM    3  C5  UNL     1      21.591   3.151  52.240  1.00  0.00     0.037 A 
HETATM    4  C6  UNL     1      23.022   2.933  52.163  1.00  0.00     0.041 C 
HETATM    5  C7  UNL     1      23.768   1.817  52.492  1.00  0.00     0.106 A 
HETATM    6  O2  UNL     1      25.076   2.320  52.272  1.00  0.00    -0.352 OA
HETATM    7  C8  UNL     1      26.070   1.640  53.184  1.00  0.00     0.223 C 
HETATM    8  N3  UNL     1      25.715   0.300  52.802  1.00  0.00    -0.383 N 
HETATM    9  C13 UNL     1      24.347   0.540  52.813  1.00  0.00     0.079 A 
HETATM   10  C14 UNL     1      22.988   0.704  52.182  1.00  0.00     0.095 A 
HETATM   11  C15 UNL     1      22.016   1.074  51.206  1.00  0.00    -0.004 A 
HETATM   12  C16 UNL     1      20.927   0.598  51.951  1.00  0.00     0.013 A 
HETATM   13  C17 UNL     1      21.820   0.212  52.974  1.00  0.00     0.073 A 
HETATM   14  C18 UNL     1      23.125   0.359  52.935  1.00  0.00     0.048 A 
HETATM   15  C19 UNL     1      21.093  -0.366  54.094  1.00  0.00     0.228 A 
HETATM   16  O3  UNL     1      21.457  -0.838  55.199  1.00  0.00    -0.273 OA
HETATM   17  N4  UNL     1      19.744  -0.311  53.712  1.00  0.00    -0.359 N 
HETATM   18  C20 UNL     1      19.602   0.235  52.406  1.00  0.00     0.135 A 
HETATM   19  C21 UNL     1      21.983   2.032  49.982  1.00  0.00    -0.044 A 
HETATM   20  C22 UNL     1      22.257   1.422  48.812  1.00  0.00     0.008 A 
HETATM   21  C23 UNL     1      22.363   2.094  47.630  1.00  0.00     0.001 A 
HETATM   22  C24 UNL     1      22.184   3.449  47.627  1.00  0.00     0.001 A 
HETATM   23  C25 UNL     1      21.904   4.055  48.824  1.00  0.00     0.009 A 
HETATM   24  C26 UNL     1      21.770   3.508  50.071  1.00  0.00    -0.032 A 
HETATM   25  H18 UNL     1      25.673  -0.697  52.524  1.00  0.00     0.156 HD
HETATM   26  H20 UNL     1      18.827  -0.574  54.152  1.00  0.00     0.162 HD
ENDROOT
BRANCH   1  27
HETATM   27  N1  UNL     1      20.522   5.495  50.516  1.00  0.00    -0.294 N 
HETATM   28  H6  UNL     1      20.725   5.267  49.485  1.00  0.00     0.124 HD
BRANCH  27  29
HETATM   29  C2  UNL     1      21.066   6.825  50.764  1.00  0.00     0.257 C 
BRANCH  29  30
HETATM   30  O1  UNL     1      22.414   6.587  51.137  1.00  0.00    -0.382 OA
HETATM   31  C1  UNL     1      23.248   7.591  50.629  1.00  0.00     0.203 C 
ENDBRANCH  29  30
ENDBRANCH  27  29
ENDBRANCH   1  27
BRANCH   7  32
HETATM   32  C9  UNL     1      27.422   1.986  52.697  1.00  0.00     0.110 C 
BRANCH  32  33
HETATM   33  C10 UNL     1      28.403   1.532  53.719  1.00  0.00     0.036 A 
HETATM   34  N2  UNL     1      29.320   1.760  54.563  1.00  0.00    -0.285 NA
HETATM   35  C11 UNL     1      29.021   0.429  54.504  1.00  0.00     0.151 A 
HETATM   36  C12 UNL     1      29.885  -0.555  53.707  1.00  0.00     0.041 C 
ENDBRANCH  32  33
ENDBRANCH   7  32
TORSDOF 5
ENDMDL
MODEL 2
REMARK VINA RESULT:      -9.4      1.975      2.388
REMARK  5 active torsions:
REMARK  status: ('A' for Active; 'I' for Inactive)
REMARK    1  A    between atoms: O1_2  and  C2_3 
REMARK    2  A    between atoms: C2_3  and  N1_4 
REMARK    3  A    between atoms: N1_4  and  C3_5 
REMARK    4  A    between atoms: C8_11  and  C9_12 
REMARK    5  A    between atoms: C9_12  and  C10_13 
ROOT
HETATM    1  C3  UNL     1      23.626   5.041  52.342  1.00  0.00     0.096 A 
HETATM    2  C4  UNL     1      22.342   4.301  52.226  1.00  0.00    -0.023 A 
HETATM    3  C5  UNL     1      23.165   3.450  52.675  1.00  0.00     0.037 A 
HETATM    4  C6  UNL     1      24.394   2.875  53.183  1.00  0.00     0.041 C 
HETATM    5  C7  UNL     1      24.761   1.550  53.324  1.00  0.00     0.106 A 
HETATM    6  O2  UNL     1      26.020   1.708  53.961  1.00  0.00    -0.352 OA
HETATM    7  C8  UNL     1      26.318   0.528  54.854  1.00  0.00     0.223 C 
HETATM    8  N3  UNL     1      26.120  -0.470  53.838  1.00  0.00    -0.383 N 
HETATM    9  C13 UNL     1      24.980   0.128  53.316  1.00  0.00     0.079 A 
HETATM   10  C14 UNL     1      24.184   0.855  52.263  1.00  0.00     0.095 A 
HETATM   11  C15 UNL     1      23.914   1.769  51.201  1.00  0.00    -0.004 A 
HETATM   12  C16 UNL     1      22.563   1.410  51.089  1.00  0.00     0.013 A 
HETATM   13  C17 UNL     1      22.740   0.489  52.145  1.00  0.00     0.073 A 
HETATM   14  C18 UNL     1      23.871   0.269  52.775  1.00  0.00     0.048 A 
HETATM   15  C19 UNL     1      21.485  -0.181  52.452  1.00  0.00     0.228 A 
HETATM   16  O3  UNL     1      21.166  -1.057  53.294  1.00  0.00    -0.273 OA
HETATM   17  N4  UNL     1      20.557   0.367  51.554  1.00  0.00    -0.359 N 
HETATM   18  C20 UNL     1      21.177   1.310  50.687  1.00  0.00     0.135 A 
HETATM   19  C21 UNL     1      24.614   3.029  50.619  1.00  0.00    -0.044 A 
HETATM   20  C22 UNL     1      25.421   2.764  49.573  1.00  0.00     0.008 A 
HETATM   21  C23 UNL     1      26.192   3.714  48.970  1.00  0.00     0.001 A 
HETATM   22  C24 UNL     1      26.147   4.995  49.444  1.00  0.00     0.001 A 
HETATM   23  C25 UNL     1      25.320   5.249  50.507  1.00  0.00     0.009 A 
HETATM   24  C26 UNL     1      24.500   4.401  51.200  1.00  0.00    -0.032 A 
HETATM   25  H18 UNL     1      26.155  -1.276  53.189  1.00  0.00     0.156 HD
HETATM   26  H20 UNL     1      19.530   0.248  51.370  1.00  0.00     0.162 HD
ENDROOT
BRANCH   1  27
HETATM   27  N1  UNL     1      23.364   6.416  51.795  1.00  0.00    -0.294 N 
HETATM   28  H6  UNL     1      23.315   7.011  52.689  1.00  0.00     0.124 HD
BRANCH  27  29
HETATM   29  C2  UNL     1      22.027   6.429  51.212  1.00  0.00     0.257 C 
BRANCH  29  30
HETATM   30  O1  UNL     1      21.953   7.673  50.535  1.00  0.00    -0.382 OA
HETATM   31  C1  UNL     1      20.675   7.861  49.993  1.00  0.00     0.203 C 
ENDBRANCH  29  30
ENDBRANCH  27  29
ENDBRANCH   1  27
BRANCH   7  32
HETATM   32  C9  UNL     1      27.743   0.614  55.237  1.00  0.00     0.110 C 
BRANCH  32  33
HETATM   33  C10 UNL     1      28.556   0.211  54.059  1.00  0.00     0.036 A 
HETATM   34  N2  UNL     1      28.873   0.311  52.836  1.00  0.00    -0.285 NA
HETATM   35  C11 UNL     1      29.623  -0.641  53.466  1.00  0.00     0.151 A 
HETATM   36  C12 UNL     1      29.296  -2.133  53.344  1.00  0.00     0.041 C 
ENDBRANCH  32  33
ENDBRANCH   7  32
TORSDOF 5
ENDMDL
MODEL 3
REMARK VINA RESULT:      -9.0      2.268      3.216
REMARK  5 active torsions:
REMARK  status: ('A' for Active; 'I' for Inactive)
REMARK    1  A    between atoms: O1_2  and  C2_3 
REMARK    2  A    between atoms: C2_3  and  N1_4 
REMARK    3  A    between atoms: N1_4  and  C3_5 
REMARK    4  A    between atoms: C8_11  and  C9_12 
REMARK    5  A    between atoms: C9_12  and  C10_13 
ROOT
HETATM    1  C3  UNL     1      22.237   5.092  51.865  1.00  0.00     0.096 A 
HETATM    2  C4  UNL     1      20.955   4.829  51.160  1.00  0.00    -0.023 A 
HETATM    3  C5  UNL     1      21.290   3.709  51.648  1.00  0.00     0.037 A 
HETATM    4  C6  UNL     1      22.033   2.710  52.388  1.00  0.00     0.041 C 
HETATM    5  C7  UNL     1      21.962   1.330  52.332  1.00  0.00     0.106 A 
HETATM    6  O2  UNL     1      22.870   0.993  53.369  1.00  0.00    -0.352 OA
HETATM    7  C8  UNL     1      22.484  -0.317  54.012  1.00  0.00     0.223 C 
HETATM    8  N3  UNL     1      22.445  -1.068  52.786  1.00  0.00    -0.383 N 
HETATM    9  C13 UNL     1      21.792  -0.074  52.068  1.00  0.00     0.079 A 
HETATM   10  C14 UNL     1      21.683   0.993  51.009  1.00  0.00     0.095 A 
HETATM   11  C15 UNL     1      22.092   2.064  50.160  1.00  0.00    -0.004 A 
HETATM   12  C16 UNL     1      20.846   2.180  49.525  1.00  0.00     0.013 A 
HETATM   13  C17 UNL     1      20.357   1.133  50.336  1.00  0.00     0.073 A 
HETATM   14  C18 UNL     1      21.057   0.484  51.237  1.00  0.00     0.048 A 
HETATM   15  C19 UNL     1      18.954   0.876  50.044  1.00  0.00     0.228 A 
HETATM   16  O3  UNL     1      18.120   0.058  50.505  1.00  0.00    -0.273 OA
HETATM   17  N4  UNL     1      18.622   1.799  49.041  1.00  0.00    -0.359 N 
HETATM   18  C20 UNL     1      19.749   2.585  48.673  1.00  0.00     0.135 A 
HETATM   19  C21 UNL     1      23.261   3.088  50.152  1.00  0.00    -0.044 A 
HETATM   20  C22 UNL     1      24.312   2.702  49.404  1.00  0.00     0.008 A 
HETATM   21  C23 UNL     1      25.473   3.414  49.329  1.00  0.00     0.001 A 
HETATM   22  C24 UNL     1      25.580   4.573  50.044  1.00  0.00     0.001 A 
HETATM   23  C25 UNL     1      24.501   4.955  50.799  1.00  0.00     0.009 A 
HETATM   24  C26 UNL     1      23.288   4.344  50.963  1.00  0.00    -0.032 A 
HETATM   25  H18 UNL     1      22.520  -1.758  52.018  1.00  0.00     0.156 HD
HETATM   26  H20 UNL     1      17.753   2.043  48.504  1.00  0.00     0.162 HD
ENDROOT
BRANCH   1  27
HETATM   27  N1  UNL     1      22.572   6.531  51.596  1.00  0.00    -0.294 N 
HETATM   28  H6  UNL     1      22.525   6.963  52.579  1.00  0.00     0.124 HD
BRANCH  27  29
HETATM   29  C2  UNL     1      21.477   7.120  50.831  1.00  0.00     0.257 C 
BRANCH  29  30
HETATM   30  O1  UNL     1      22.113   8.053  49.973  1.00  0.00    -0.382 OA
HETATM   31  C1  UNL     1      23.465   8.188  50.312  1.00  0.00     0.203 C 
ENDBRANCH  29  30
ENDBRANCH  27  29
ENDBRANCH   1  27
BRANCH   7  32
HETATM   32  C9  UNL     1      23.620  -0.746  54.856  1.00  0.00     0.110 C 
BRANCH  32  33
HETATM   33  C10 UNL     1      24.866  -0.577  54.062  1.00  0.00     0.036 A 
HETATM   34  N2  UNL     1      25.673  -0.952  53.161  1.00  0.00    -0.285 NA
HETATM   35  C11 UNL     1      26.101   0.197  53.761  1.00  0.00     0.151 A 
HETATM   36  C12 UNL     1      27.181   0.182  54.849  1.00  0.00     0.041 C 
ENDBRANCH  32  33
ENDBRANCH   7  32
TORSDOF 5
ENDMDL
MODEL 4
REMARK VINA RESULT:      -8.8      2.886      7.993
REMARK  5 active torsions:
REMARK  status: ('A' for Active; 'I' for Inactive)
REMARK    1  A    between atoms: O1_2  and  C2_3 
REMARK    2  A    between atoms: C2_3  and  N1_4 
REMARK    3  A    between atoms: N1_4  and  C3_5 
REMARK    4  A    between atoms: C8_11  and  C9_12 
REMARK    5  A    between atoms: C9_12  and  C10_13 
ROOT
HETATM    1  C3  UNL     1      23.248   2.781  52.283  1.00  0.00     0.096 A 
HETATM    2  C4  UNL     1      24.678   3.119  52.056  1.00  0.00    -0.023 A 
HETATM    3  C5  UNL     1      24.033   4.049  51.489  1.00  0.00     0.037 A 
HETATM    4  C6  UNL     1      22.921   4.862  51.039  1.00  0.00     0.041 C 
HETATM    5  C7  UNL     1      22.879   5.848  50.071  1.00  0.00     0.106 A 
HETATM    6  O2  UNL     1      21.536   6.283  50.218  1.00  0.00    -0.352 OA
HETATM    7  C8  UNL     1      21.403   7.741  49.850  1.00  0.00     0.223 C 
HETATM    8  N3  UNL     1      22.004   7.613  48.551  1.00  0.00    -0.383 N 
HETATM    9  C13 UNL     1      23.027   6.778  48.982  1.00  0.00     0.079 A 
HETATM   10  C14 UNL     1      23.773   5.472  49.070  1.00  0.00     0.095 A 
HETATM   11  C15 UNL     1      23.972   4.061  49.131  1.00  0.00    -0.004 A 
HETATM   12  C16 UNL     1      25.370   4.151  49.200  1.00  0.00     0.013 A 
HETATM   13  C17 UNL     1      25.263   5.558  49.157  1.00  0.00     0.073 A 
HETATM   14  C18 UNL     1      24.137   6.228  49.066  1.00  0.00     0.048 A 
HETATM   15  C19 UNL     1      26.579   6.173  49.239  1.00  0.00     0.228 A 
HETATM   16  O3  UNL     1      26.968   7.367  49.238  1.00  0.00    -0.273 OA
HETATM   17  N4  UNL     1      27.472   5.095  49.335  1.00  0.00    -0.359 N 
HETATM   18  C20 UNL     1      26.783   3.851  49.280  1.00  0.00     0.135 A 
HETATM   19  C21 UNL     1      23.083   2.829  49.461  1.00  0.00    -0.044 A 
HETATM   20  C22 UNL     1      22.545   2.245  48.373  1.00  0.00     0.008 A 
HETATM   21  C23 UNL     1      21.667   1.203  48.445  1.00  0.00     0.001 A 
HETATM   22  C24 UNL     1      21.315   0.726  49.676  1.00  0.00     0.001 A 
HETATM   23  C25 UNL     1      21.872   1.329  50.774  1.00  0.00     0.009 A 
HETATM   24  C26 UNL     1      22.756   2.370  50.845  1.00  0.00    -0.032 A 
HETATM   25  H18 UNL     1      22.275   7.648  47.552  1.00  0.00     0.156 HD
HETATM   26  H20 UNL     1      28.512   4.988  49.434  1.00  0.00     0.162 HD
ENDROOT
BRANCH   1  27
HETATM   27  N1  UNL     1      23.243   1.459  52.998  1.00  0.00    -0.294 N 
HETATM   28  H6  UNL     1      22.938   1.739  53.990  1.00  0.00     0.124 HD
BRANCH  27  29
HETATM   29  C2  UNL     1      24.621   0.990  53.103  1.00  0.00     0.257 C 
BRANCH  29  30
HETATM   30  O1  UNL     1      24.497  -0.382  53.439  1.00  0.00    -0.382 OA
HETATM   31  C1  UNL     1      23.153  -0.720  53.633  1.00  0.00     0.203 C 
ENDBRANCH  29  30
ENDBRANCH  27  29
ENDBRANCH   1  27
BRANCH   7  32
HETATM   32  C9  UNL     1      19.959   8.037  49.737  1.00  0.00     0.110 C 
BRANCH  32  33
HETATM   33  C10 UNL     1      19.806   9.228  48.859  1.00  0.00     0.036 A 
HETATM   34  N2  UNL     1      19.870   9.794  47.728  1.00  0.00    -0.285 NA
HETATM   35  C11 UNL     1      19.452  10.664  48.693  1.00  0.00     0.151 A 
HETATM   36  C12 UNL     1      20.412  11.668  49.342  1.00  0.00     0.041 C 
ENDBRANCH  32  33
ENDBRANCH   7  32
TORSDOF 5
ENDMDL
MODEL 5
REMARK VINA RESULT:      -8.8      1.738      2.296
REMARK  5 active torsions:
REMARK  status: ('A' for Active; 'I' for Inactive)
REMARK    1  A    between atoms: O1_2  and  C2_3 
REMARK    2  A    between atoms: C2_3  and  N1_4 
REMARK    3  A    between atoms: N1_4  and  C3_5 
REMARK    4  A    between atoms: C8_11  and  C9_12 
REMARK    5  A    between atoms: C9_12  and  C10_13 
ROOT
HETATM    1  C3  UNL     1      21.164   4.373  51.092  1.00  0.00     0.096 A 
HETATM    2  C4  UNL     1      19.794   3.894  51.411  1.00  0.00    -0.023 A 
HETATM    3  C5  UNL     1      20.561   2.972  51.817  1.00  0.00     0.037 A 
HETATM    4  C6  UNL     1      21.774   2.246  52.136  1.00  0.00     0.041 C 
HETATM    5  C7  UNL     1      21.953   0.909  52.441  1.00  0.00     0.106 A 
HETATM    6  O2  UNL     1      23.341   0.906  52.736  1.00  0.00    -0.352 OA
HETATM    7  C8  UNL     1      23.669  -0.166  53.748  1.00  0.00     0.223 C 
HETATM    8  N3  UNL     1      23.064  -1.242  53.012  1.00  0.00    -0.383 N 
HETATM    9  C13 UNL     1      21.936  -0.514  52.655  1.00  0.00     0.079 A 
HETATM   10  C14 UNL     1      21.022   0.194  51.689  1.00  0.00     0.095 A 
HETATM   11  C15 UNL     1      20.635   0.977  50.561  1.00  0.00    -0.004 A 
HETATM   12  C16 UNL     1      19.262   0.881  50.827  1.00  0.00     0.013 A 
HETATM   13  C17 UNL     1      19.557   0.109  51.971  1.00  0.00     0.073 A 
HETATM   14  C18 UNL     1      20.762  -0.236  52.361  1.00  0.00     0.048 A 
HETATM   15  C19 UNL     1      18.334  -0.247  52.675  1.00  0.00     0.228 A 
HETATM   16  O3  UNL     1      18.108  -0.908  53.718  1.00  0.00    -0.273 OA
HETATM   17  N4  UNL     1      17.304   0.336  51.921  1.00  0.00    -0.359 N 
HETATM   18  C20 UNL     1      17.821   1.000  50.774  1.00  0.00     0.135 A 
HETATM   19  C21 UNL     1      21.351   1.974  49.607  1.00  0.00    -0.044 A 
HETATM   20  C22 UNL     1      21.812   1.404  48.477  1.00  0.00     0.008 A 
HETATM   21  C23 UNL     1      22.542   2.083  47.546  1.00  0.00     0.001 A 
HETATM   22  C24 UNL     1      22.821   3.402  47.764  1.00  0.00     0.001 A 
HETATM   23  C25 UNL     1      22.344   3.969  48.917  1.00  0.00     0.009 A 
HETATM   24  C26 UNL     1      21.605   3.412  49.926  1.00  0.00    -0.032 A 
HETATM   25  H18 UNL     1      22.805  -2.126  52.537  1.00  0.00     0.156 HD
HETATM   26  H20 UNL     1      16.258   0.398  51.999  1.00  0.00     0.162 HD
ENDROOT
BRANCH   1  27
HETATM   27  N1  UNL     1      20.990   5.677  50.365  1.00  0.00    -0.294 N 
HETATM   28  H6  UNL     1      21.612   5.539  49.499  1.00  0.00     0.124 HD
BRANCH  27  29
HETATM   29  C2  UNL     1      21.611   6.731  51.160  1.00  0.00     0.257 C 
BRANCH  29  30
HETATM   30  O1  UNL     1      22.675   7.200  50.348  1.00  0.00    -0.382 OA
HETATM   31  C1  UNL     1      23.906   6.987  50.980  1.00  0.00     0.203 C 
ENDBRANCH  29  30
ENDBRANCH  27  29
ENDBRANCH   1  27
BRANCH   7  32
HETATM   32  C9  UNL     1      25.140  -0.309  53.776  1.00  0.00     0.110 C 
BRANCH  32  33
HETATM   33  C10 UNL     1      25.732   1.052  53.670  1.00  0.00     0.036 A 
HETATM   34  N2  UNL     1      25.834   2.256  54.049  1.00  0.00    -0.285 NA
HETATM   35  C11 UNL     1      26.670   1.995  53.002  1.00  0.00     0.151 A 
HETATM   36  C12 UNL     1      26.308   2.392  51.566  1.00  0.00     0.041 C 
ENDBRANCH  32  33
ENDBRANCH   7  32
TORSDOF 5
ENDMDL
MODEL 6
REMARK VINA RESULT:      -8.7      2.247      4.573
REMARK  5 active torsions:
REMARK  status: ('A' for Active; 'I' for Inactive)
REMARK    1  A    between atoms: O1_2  and  C2_3 
REMARK    2  A    between atoms: C2_3  and  N1_4 
REMARK    3  A    between atoms: N1_4  and  C3_5 
REMARK    4  A    between atoms: C8_11  and  C9_12 
REMARK    5  A    between atoms: C9_12  and  C10_13 
ROOT
HETATM    1  C3  UNL     1      21.191   2.384  48.591  1.00  0.00     0.096 A 
HETATM    2  C4  UNL     1      21.312   3.866  48.590  1.00  0.00    -0.023 A 
HETATM    3  C5  UNL     1      22.250   3.466  49.341  1.00  0.00     0.037 A 
HETATM    4  C6  UNL     1      23.146   2.576  50.049  1.00  0.00     0.041 C 
HETATM    5  C7  UNL     1      24.016   2.838  51.091  1.00  0.00     0.106 A 
HETATM    6  O2  UNL     1      24.637   1.568  51.222  1.00  0.00    -0.352 OA
HETATM    7  C8  UNL     1      26.050   1.714  51.732  1.00  0.00     0.223 C 
HETATM    8  N3  UNL     1      25.701   2.493  52.889  1.00  0.00    -0.383 N 
HETATM    9  C13 UNL     1      24.793   3.297  52.212  1.00  0.00     0.079 A 
HETATM   10  C14 UNL     1      23.418   3.818  51.881  1.00  0.00     0.095 A 
HETATM   11  C15 UNL     1      22.008   3.793  51.664  1.00  0.00    -0.004 A 
HETATM   12  C16 UNL     1      21.922   5.159  51.357  1.00  0.00     0.013 A 
HETATM   13  C17 UNL     1      23.317   5.269  51.540  1.00  0.00     0.073 A 
HETATM   14  C18 UNL     1      24.115   4.285  51.886  1.00  0.00     0.048 A 
HETATM   15  C19 UNL     1      23.760   6.631  51.280  1.00  0.00     0.228 A 
HETATM   16  O3  UNL     1      24.885   7.187  51.315  1.00  0.00    -0.273 OA
HETATM   17  N4  UNL     1      22.591   7.327  50.934  1.00  0.00    -0.359 N 
HETATM   18  C20 UNL     1      21.450   6.480  51.002  1.00  0.00     0.135 A 
HETATM   19  C21 UNL     1      20.948   2.690  51.392  1.00  0.00    -0.044 A 
HETATM   20  C22 UNL     1      20.322   2.256  52.503  1.00  0.00     0.008 A 
HETATM   21  C23 UNL     1      19.419   1.234  52.497  1.00  0.00     0.001 A 
HETATM   22  C24 UNL     1      19.131   0.619  51.312  1.00  0.00     0.001 A 
HETATM   23  C25 UNL     1      19.774   1.072  50.189  1.00  0.00     0.009 A 
HETATM   24  C26 UNL     1      20.691   2.078  50.052  1.00  0.00    -0.032 A 
HETATM   25  H18 UNL     1      25.589   2.926  53.823  1.00  0.00     0.156 HD
HETATM   26  H20 UNL     1      22.361   8.310  50.643  1.00  0.00     0.162 HD
ENDROOT
BRANCH   1  27
HETATM   27  N1  UNL     1      19.969   2.066  47.777  1.00  0.00    -0.294 N 
HETATM   28  H6  UNL     1      20.342   1.334  47.084  1.00  0.00     0.124 HD
BRANCH  27  29
HETATM   29  C2  UNL     1      19.624   3.246  46.990  1.00  0.00     0.257 C 
BRANCH  29  30
HETATM   30  O1  UNL     1      18.236   3.101  46.734  1.00  0.00    -0.382 OA
HETATM   31  C1  UNL     1      17.520   3.042  47.935  1.00  0.00     0.203 C 
ENDBRANCH  29  30
ENDBRANCH  27  29
ENDBRANCH   1  27
BRANCH   7  32
HETATM   32  C9  UNL     1      26.518   0.368  52.125  1.00  0.00     0.110 C 
BRANCH  32  33
HETATM   33  C10 UNL     1      27.426   0.525  53.293  1.00  0.00     0.036 A 
HETATM   34  N2  UNL     1      27.956   1.223  54.207  1.00  0.00    -0.285 NA
HETATM   35  C11 UNL     1      28.398  -0.067  54.252  1.00  0.00     0.151 A 
HETATM   36  C12 UNL     1      29.753  -0.474  53.663  1.00  0.00     0.041 C 
ENDBRANCH  32  33
ENDBRANCH   7  32
TORSDOF 5
ENDMDL
MODEL 7
REMARK VINA RESULT:      -8.7      3.816      6.448
REMARK  5 active torsions:
REMARK  status: ('A' for Active; 'I' for Inactive)
REMARK    1  A    between atoms: O1_2  and  C2_3 
REMARK    2  A    between atoms: C2_3  and  N1_4 
REMARK    3  A    between atoms: N1_4  and  C3_5 
REMARK    4  A    between atoms: C8_11  and  C9_12 
REMARK    5  A    between atoms: C9_12  and  C10_13 
ROOT
HETATM    1  C3  UNL     1      22.764   2.372  49.441  1.00  0.00     0.096 A 
HETATM    2  C4  UNL     1      21.816   3.515  49.383  1.00  0.00    -0.023 A 
HETATM    3  C5  UNL     1      22.963   4.042  49.280  1.00  0.00     0.037 A 
HETATM    4  C6  UNL     1      24.402   4.169  49.166  1.00  0.00     0.041 C 
HETATM    5  C7  UNL     1      25.209   5.279  49.333  1.00  0.00     0.106 A 
HETATM    6  O2  UNL     1      26.468   4.724  48.982  1.00  0.00    -0.352 OA
HETATM    7  C8  UNL     1      27.369   5.780  48.387  1.00  0.00     0.223 C 
HETATM    8  N3  UNL     1      27.244   6.703  49.482  1.00  0.00    -0.383 N 
HETATM    9  C13 UNL     1      25.874   6.521  49.626  1.00  0.00     0.079 A 
HETATM   10  C14 UNL     1      24.629   6.054  50.336  1.00  0.00     0.095 A 
HETATM   11  C15 UNL     1      23.796   5.224  51.143  1.00  0.00    -0.004 A 
HETATM   12  C16 UNL     1      22.663   6.038  51.002  1.00  0.00     0.013 A 
HETATM   13  C17 UNL     1      23.413   6.908  50.181  1.00  0.00     0.073 A 
HETATM   14  C18 UNL     1      24.679   6.750  49.870  1.00  0.00     0.048 A 
HETATM   15  C19 UNL     1      22.583   8.008  49.712  1.00  0.00     0.228 A 
HETATM   16  O3  UNL     1      22.812   8.999  48.976  1.00  0.00    -0.273 OA
HETATM   17  N4  UNL     1      21.319   7.767  50.273  1.00  0.00    -0.359 N 
HETATM   18  C20 UNL     1      21.333   6.602  51.089  1.00  0.00     0.135 A 
HETATM   19  C21 UNL     1      23.855   3.756  51.652  1.00  0.00    -0.044 A 
HETATM   20  C22 UNL     1      24.389   3.633  52.882  1.00  0.00     0.008 A 
HETATM   21  C23 UNL     1      24.609   2.426  53.480  1.00  0.00     0.001 A 
HETATM   22  C24 UNL     1      24.274   1.288  52.803  1.00  0.00     0.001 A 
HETATM   23  C25 UNL     1      23.730   1.429  51.552  1.00  0.00     0.009 A 
HETATM   24  C26 UNL     1      23.456   2.565  50.842  1.00  0.00    -0.032 A 
HETATM   25  H18 UNL     1      27.366   7.391  50.247  1.00  0.00     0.156 HD
HETATM   26  H20 UNL     1      20.380   8.235  50.236  1.00  0.00     0.162 HD
ENDROOT
BRANCH   1  27
HETATM   27  N1  UNL     1      21.925   1.148  49.680  1.00  0.00    -0.294 N 
HETATM   28  H6  UNL     1      21.958   0.660  48.722  1.00  0.00     0.124 HD
BRANCH  27  29
HETATM   29  C2  UNL     1      20.544   1.574  49.883  1.00  0.00     0.257 C 
BRANCH  29  30
HETATM   30  O1  UNL     1      20.122   0.852  51.028  1.00  0.00    -0.382 OA
HETATM   31  C1  UNL     1      19.992   1.710  52.127  1.00  0.00     0.203 C 
ENDBRANCH  29  30
ENDBRANCH  27  29
ENDBRANCH   1  27
BRANCH   7  32
HETATM   32  C9  UNL     1      28.733   5.212  48.329  1.00  0.00     0.110 C 
BRANCH  32  33
HETATM   33  C10 UNL     1      29.698   6.344  48.350  1.00  0.00     0.036 A 
HETATM   34  N2  UNL     1      30.035   7.527  48.046  1.00  0.00    -0.285 NA
HETATM   35  C11 UNL     1      31.012   6.903  48.767  1.00  0.00     0.151 A 
HETATM   36  C12 UNL     1      32.244   6.290  48.091  1.00  0.00     0.041 C 
ENDBRANCH  32  33
ENDBRANCH   7  32
TORSDOF 5
ENDMDL
MODEL 8
REMARK VINA RESULT:      -8.7      7.833     10.078
REMARK  5 active torsions:
REMARK  status: ('A' for Active; 'I' for Inactive)
REMARK    1  A    between atoms: O1_2  and  C2_3 
REMARK    2  A    between atoms: C2_3  and  N1_4 
REMARK    3  A    between atoms: N1_4  and  C3_5 
REMARK    4  A    between atoms: C8_11  and  C9_12 
REMARK    5  A    between atoms: C9_12  and  C10_13 
ROOT
HETATM    1  C3  UNL     1      29.682  10.353  49.045  1.00  0.00     0.096 A 
HETATM    2  C4  UNL     1      28.414   9.642  49.361  1.00  0.00    -0.023 A 
HETATM    3  C5  UNL     1      29.257   8.720  49.147  1.00  0.00     0.037 A 
HETATM    4  C6  UNL     1      30.514   8.058  48.864  1.00  0.00     0.041 C 
HETATM    5  C7  UNL     1      30.762   6.753  48.483  1.00  0.00     0.106 A 
HETATM    6  O2  UNL     1      32.181   6.762  48.477  1.00  0.00    -0.352 OA
HETATM    7  C8  UNL     1      32.725   5.392  48.804  1.00  0.00     0.223 C 
HETATM    8  N3  UNL     1      31.983   4.700  47.786  1.00  0.00    -0.383 N 
HETATM    9  C13 UNL     1      30.801   5.390  48.021  1.00  0.00     0.079 A 
HETATM   10  C14 UNL     1      29.696   6.356  47.678  1.00  0.00     0.095 A 
HETATM   11  C15 UNL     1      29.071   7.515  47.129  1.00  0.00    -0.004 A 
HETATM   12  C16 UNL     1      27.787   7.169  47.575  1.00  0.00     0.013 A 
HETATM   13  C17 UNL     1      28.326   6.002  48.160  1.00  0.00     0.073 A 
HETATM   14  C18 UNL     1      29.589   5.647  48.114  1.00  0.00     0.048 A 
HETATM   15  C19 UNL     1      27.285   5.245  48.839  1.00  0.00     0.228 A 
HETATM   16  O3  UNL     1      27.292   4.169  49.485  1.00  0.00    -0.273 OA
HETATM   17  N4  UNL     1      26.114   5.993  48.645  1.00  0.00    -0.359 N 
HETATM   18  C20 UNL     1      26.368   7.149  47.854  1.00  0.00     0.135 A 
HETATM   19  C21 UNL     1      29.559   8.901  46.621  1.00  0.00    -0.044 A 
HETATM   20  C22 UNL     1      29.770   8.946  45.292  1.00  0.00     0.008 A 
HETATM   21  C23 UNL     1      30.279  10.040  44.656  1.00  0.00     0.001 A 
HETATM   22  C24 UNL     1      30.590  11.144  45.397  1.00  0.00     0.001 A 
HETATM   23  C25 UNL     1      30.368  11.085  46.749  1.00  0.00     0.009 A 
HETATM   24  C26 UNL     1      29.867  10.064  47.509  1.00  0.00    -0.032 A 
HETATM   25  H18 UNL     1      31.634   4.100  47.018  1.00  0.00     0.156 HD
HETATM   26  H20 UNL     1      25.109   5.905  48.938  1.00  0.00     0.162 HD
ENDROOT
BRANCH   1  27
HETATM   27  N1  UNL     1      29.347  11.817  49.043  1.00  0.00    -0.294 N 
HETATM   28  H6  UNL     1      29.605  12.110  50.045  1.00  0.00     0.124 HD
BRANCH  27  29
HETATM   29  C2  UNL     1      27.899  11.955  48.930  1.00  0.00     0.257 C 
BRANCH  29  30
HETATM   30  O1  UNL     1      27.678  13.356  48.955  1.00  0.00    -0.382 OA
HETATM   31  C1  UNL     1      28.272  13.966  47.843  1.00  0.00     0.203 C 
ENDBRANCH  29  30
ENDBRANCH  27  29
ENDBRANCH   1  27
BRANCH   7  32
HETATM   32  C9  UNL     1      34.170   5.405  48.486  1.00  0.00     0.110 C 
BRANCH  32  33
HETATM   33  C10 UNL     1      34.315   5.191  47.021  1.00  0.00     0.036 A 
HETATM   34  N2  UNL     1      33.990   5.434  45.822  1.00  0.00    -0.285 NA
HETATM   35  C11 UNL     1      34.985   4.502  45.885  1.00  0.00     0.151 A 
HETATM   36  C12 UNL     1      34.694   3.003  45.748  1.00  0.00     0.041 C 
ENDBRANCH  32  33
ENDBRANCH   7  32
TORSDOF 5
ENDMDL
MODEL 9
REMARK VINA RESULT:      -8.6      3.220      5.876
REMARK  5 active torsions:
REMARK  status: ('A' for Active; 'I' for Inactive)
REMARK    1  A    between atoms: O1_2  and  C2_3 
REMARK    2  A    between atoms: C2_3  and  N1_4 
REMARK    3  A    between atoms: N1_4  and  C3_5 
REMARK    4  A    between atoms: C8_11  and  C9_12 
REMARK    5  A    between atoms: C9_12  and  C10_13 
ROOT
HETATM    1  C3  UNL     1      22.188   4.984  51.007  1.00  0.00     0.096 A 
HETATM    2  C4  UNL     1      22.818   4.083  52.009  1.00  0.00    -0.023 A 
HETATM    3  C5  UNL     1      23.774   4.463  51.270  1.00  0.00     0.037 A 
HETATM    4  C6  UNL     1      24.502   5.163  50.231  1.00  0.00     0.041 C 
HETATM    5  C7  UNL     1      25.761   4.920  49.714  1.00  0.00     0.106 A 
HETATM    6  O2  UNL     1      25.879   6.019  48.824  1.00  0.00    -0.352 OA
HETATM    7  C8  UNL     1      27.324   6.429  48.670  1.00  0.00     0.223 C 
HETATM    8  N3  UNL     1      27.802   5.123  48.305  1.00  0.00    -0.383 N 
HETATM    9  C13 UNL     1      27.046   4.457  49.261  1.00  0.00     0.079 A 
HETATM   10  C14 UNL     1      25.947   3.539  49.732  1.00  0.00     0.095 A 
HETATM   11  C15 UNL     1      24.673   2.899  49.751  1.00  0.00    -0.004 A 
HETATM   12  C16 UNL     1      24.959   2.121  50.883  1.00  0.00     0.013 A 
HETATM   13  C17 UNL     1      26.238   2.716  50.945  1.00  0.00     0.073 A 
HETATM   14  C18 UNL     1      26.696   3.613  50.102  1.00  0.00     0.048 A 
HETATM   15  C19 UNL     1      26.983   2.206  52.086  1.00  0.00     0.228 A 
HETATM   16  O3  UNL     1      28.133   2.439  52.531  1.00  0.00    -0.273 OA
HETATM   17  N4  UNL     1      26.113   1.294  52.703  1.00  0.00    -0.359 N 
HETATM   18  C20 UNL     1      24.888   1.187  51.986  1.00  0.00     0.135 A 
HETATM   19  C21 UNL     1      23.280   3.182  49.121  1.00  0.00    -0.044 A 
HETATM   20  C22 UNL     1      23.075   2.540  47.955  1.00  0.00     0.008 A 
HETATM   21  C23 UNL     1      21.955   2.716  47.196  1.00  0.00     0.001 A 
HETATM   22  C24 UNL     1      20.994   3.582  47.636  1.00  0.00     0.001 A 
HETATM   23  C25 UNL     1      21.216   4.227  48.825  1.00  0.00     0.009 A 
HETATM   24  C26 UNL     1      22.281   4.144  49.679  1.00  0.00    -0.032 A 
HETATM   25  H18 UNL     1      28.258   4.289  47.894  1.00  0.00     0.156 HD
HETATM   26  H20 UNL     1      26.149   0.679  53.554  1.00  0.00     0.162 HD
ENDROOT
BRANCH   1  27
HETATM   27  N1  UNL     1      20.713   4.950  51.288  1.00  0.00    -0.294 N 
HETATM   28  H6  UNL     1      20.576   5.830  51.891  1.00  0.00     0.124 HD
BRANCH  27  29
HETATM   29  C2  UNL     1      20.438   3.807  52.152  1.00  0.00     0.257 C 
BRANCH  29  30
HETATM   30  O1  UNL     1      19.032   3.639  52.072  1.00  0.00    -0.382 OA
HETATM   31  C1  UNL     1      18.717   2.421  51.458  1.00  0.00     0.203 C 
ENDBRANCH  29  30
ENDBRANCH  27  29
ENDBRANCH   1  27
BRANCH   7  32
HETATM   32  C9  UNL     1      27.399   7.357  47.522  1.00  0.00     0.110 C 
BRANCH  32  33
HETATM   33  C10 UNL     1      26.214   8.254  47.583  1.00  0.00     0.036 A 
HETATM   34  N2  UNL     1      25.494   9.111  48.177  1.00  0.00    -0.285 NA
HETATM   35  C11 UNL     1      24.981   8.797  46.952  1.00  0.00     0.151 A 
HETATM   36  C12 UNL     1      23.820   7.808  46.796  1.00  0.00     0.041 C 
ENDBRANCH  32  33
ENDBRANCH   7  32
TORSDOF 5
ENDMDL
