MODEL 1
REMARK VINA RESULT:      -8.5      0.000      0.000
REMARK  7 active torsions:
REMARK  status: ('A' for Active; 'I' for Inactive)
REMARK    1  A    between atoms: C2_2  and  C5_5 
REMARK    2  A    between atoms: C5_5  and  C6_6 
REMARK    3  A    between atoms: C6_6  and  O1_7 
REMARK    4  A    between atoms: O1_7  and  C7_8 
REMARK    5  A    between atoms: C12_15  and  N3_16 
REMARK    6  A    between atoms: N3_16  and  C13_17 
REMARK    7  A    between atoms: C21_27  and  O2_28 
ROOT
HETATM    1  C7  UNL     1      21.268   0.796  51.757  1.00  0.00     0.079 C 
HETATM    2  C8  UNL     1      22.436   0.234  52.128  1.00  0.00     0.053 C 
HETATM    3  C9  UNL     1      22.716  -0.428  53.400  1.00  0.00     0.041 A 
HETATM    4  C10 UNL     1      21.753  -1.086  54.169  1.00  0.00     0.072 A 
HETATM    5  N1  UNL     1      22.145  -1.676  55.321  1.00  0.00    -0.241 NA
HETATM    6  C11 UNL     1      23.459  -1.587  55.651  1.00  0.00     0.236 A 
HETATM    7  N2  UNL     1      24.334  -0.950  54.882  1.00  0.00    -0.224 NA
HETATM    8  C12 UNL     1      24.027  -0.340  53.729  1.00  0.00     0.142 A 
HETATM    9  C19 UNL     1      20.303  -1.257  53.931  1.00  0.00     0.031 C 
HETATM   10  C20 UNL     1      19.619  -0.354  53.213  1.00  0.00     0.013 C 
HETATM   11  C21 UNL     1      19.982   0.890  52.530  1.00  0.00     0.197 C 
ENDROOT
BRANCH   8  12
HETATM   12  N3  UNL     1      25.006   0.355  52.976  1.00  0.00    -0.340 N 
HETATM   13  H16 UNL     1      24.907   1.064  52.229  1.00  0.00     0.167 HD
BRANCH  12  14
HETATM   14  C13 UNL     1      26.412   0.154  53.173  1.00  0.00     0.035 A 
HETATM   15  C14 UNL     1      27.023  -1.040  52.873  1.00  0.00     0.032 A 
HETATM   16  C15 UNL     1      28.373  -1.302  53.062  1.00  0.00     0.046 A 
HETATM   17  C16 UNL     1      29.167  -0.305  53.585  1.00  0.00     0.138 A 
HETATM   18  F1  UNL     1      30.494  -0.529  53.783  1.00  0.00    -0.204 F 
HETATM   19  C17 UNL     1      28.618   0.912  53.906  1.00  0.00     0.074 A 
HETATM   20 CL1  UNL     1      29.654   2.150  54.568  1.00  0.00    -0.081 Cl
HETATM   21  C18 UNL     1      27.275   1.110  53.695  1.00  0.00     0.056 A 
ENDBRANCH  12  14
ENDBRANCH   8  12
BRANCH   1  22
HETATM   22  O1  UNL     1      21.290   1.355  50.487  1.00  0.00    -0.352 OA
BRANCH  22  23
HETATM   23  C6  UNL     1      22.429   2.021  50.041  1.00  0.00     0.176 C 
BRANCH  23  24
HETATM   24  C5  UNL     1      22.500   3.479  50.434  1.00  0.00     0.035 C 
BRANCH  24  25
HETATM   25  C2  UNL     1      23.794   3.870  51.100  1.00  0.00    -0.050 C 
HETATM   26  C1  UNL     1      24.859   2.885  50.599  1.00  0.00     0.014 C 
HETATM   27  C3  UNL     1      23.711   3.725  52.593  1.00  0.00     0.014 C 
HETATM   28  C4  UNL     1      24.259   5.242  50.752  1.00  0.00     0.014 C 
ENDBRANCH  24  25
ENDBRANCH  23  24
ENDBRANCH  22  23
ENDBRANCH   1  22
BRANCH  11  29
HETATM   29  O2  UNL     1      18.980   1.217  51.630  1.00  0.00    -0.385 OA
HETATM   30  H23 UNL     1      18.600   0.361  51.290  1.00  0.00     0.210 HD
ENDBRANCH  11  29
TORSDOF 7
ENDMDL
MODEL 2
REMARK VINA RESULT:      -8.4      3.332      5.388
REMARK  7 active torsions:
REMARK  status: ('A' for Active; 'I' for Inactive)
REMARK    1  A    between atoms: C2_2  and  C5_5 
REMARK    2  A    between atoms: C5_5  and  C6_6 
REMARK    3  A    between atoms: C6_6  and  O1_7 
REMARK    4  A    between atoms: O1_7  and  C7_8 
REMARK    5  A    between atoms: C12_15  and  N3_16 
REMARK    6  A    between atoms: N3_16  and  C13_17 
REMARK    7  A    between atoms: C21_27  and  O2_28 
ROOT
HETATM    1  C7  UNL     1      22.867  -0.535  53.768  1.00  0.00     0.079 C 
HETATM    2  C8  UNL     1      22.766   0.443  52.846  1.00  0.00     0.053 C 
HETATM    3  C9  UNL     1      21.661   0.645  51.912  1.00  0.00     0.041 A 
HETATM    4  C10 UNL     1      20.339   0.272  52.169  1.00  0.00     0.072 A 
HETATM    5  N1  UNL     1      19.404   0.531  51.228  1.00  0.00    -0.241 NA
HETATM    6  C11 UNL     1      19.819   1.142  50.088  1.00  0.00     0.236 A 
HETATM    7  N2  UNL     1      21.089   1.477  49.895  1.00  0.00    -0.224 NA
HETATM    8  C12 UNL     1      22.075   1.255  50.775  1.00  0.00     0.142 A 
HETATM    9  C19 UNL     1      19.755  -0.394  53.355  1.00  0.00     0.031 C 
HETATM   10  C20 UNL     1      20.503  -1.205  54.118  1.00  0.00     0.013 C 
HETATM   11  C21 UNL     1      21.899  -1.645  54.073  1.00  0.00     0.197 C 
ENDROOT
BRANCH   8  12
HETATM   12  N3  UNL     1      23.417   1.606  50.487  1.00  0.00    -0.340 N 
HETATM   13  H16 UNL     1      24.229   1.018  50.225  1.00  0.00     0.167 HD
BRANCH  12  14
HETATM   14  C13 UNL     1      23.880   2.962  50.516  1.00  0.00     0.035 A 
HETATM   15  C14 UNL     1      23.267   3.922  51.285  1.00  0.00     0.032 A 
HETATM   16  C15 UNL     1      23.654   5.255  51.338  1.00  0.00     0.046 A 
HETATM   17  C16 UNL     1      24.725   5.655  50.569  1.00  0.00     0.138 A 
HETATM   18  F1  UNL     1      25.130   6.954  50.598  1.00  0.00    -0.204 F 
HETATM   19  C17 UNL     1      25.382   4.746  49.778  1.00  0.00     0.074 A 
HETATM   20 CL1  UNL     1      26.732   5.291  48.818  1.00  0.00    -0.081 Cl
HETATM   21  C18 UNL     1      24.951   3.441  49.771  1.00  0.00     0.056 A 
ENDBRANCH  12  14
ENDBRANCH   8  12
BRANCH   1  22
HETATM   22  O1  UNL     1      24.032  -0.482  54.520  1.00  0.00    -0.352 OA
BRANCH  22  23
HETATM   23  C6  UNL     1      25.263  -0.709  53.910  1.00  0.00     0.176 C 
BRANCH  23  24
HETATM   24  C5  UNL     1      26.379   0.192  54.388  1.00  0.00     0.035 C 
BRANCH  24  25
HETATM   25  C2  UNL     1      26.752   1.275  53.409  1.00  0.00    -0.050 C 
HETATM   26  C1  UNL     1      25.763   2.427  53.634  1.00  0.00     0.014 C 
HETATM   27  C3  UNL     1      26.591   0.812  51.989  1.00  0.00     0.014 C 
HETATM   28  C4  UNL     1      28.123   1.821  53.610  1.00  0.00     0.014 C 
ENDBRANCH  24  25
ENDBRANCH  23  24
ENDBRANCH  22  23
ENDBRANCH   1  22
BRANCH  11  29
HETATM   29  O2  UNL     1      22.244  -2.168  55.308  1.00  0.00    -0.385 OA
HETATM   30  H23 UNL     1      22.923  -2.879  55.147  1.00  0.00     0.210 HD
ENDBRANCH  11  29
TORSDOF 7
ENDMDL
MODEL 3
REMARK VINA RESULT:      -8.1      4.220      6.520
REMARK  7 active torsions:
REMARK  status: ('A' for Active; 'I' for Inactive)
REMARK    1  A    between atoms: C2_2  and  C5_5 
REMARK    2  A    between atoms: C5_5  and  C6_6 
REMARK    3  A    between atoms: C6_6  and  O1_7 
REMARK    4  A    between atoms: O1_7  and  C7_8 
REMARK    5  A    between atoms: C12_15  and  N3_16 
REMARK    6  A    between atoms: N3_16  and  C13_17 
REMARK    7  A    between atoms: C21_27  and  O2_28 
ROOT
HETATM    1  C7  UNL     1      26.955   1.621  52.452  1.00  0.00     0.079 C 
HETATM    2  C8  UNL     1      25.632   1.446  52.643  1.00  0.00     0.053 C 
HETATM    3  C9  UNL     1      25.004   0.438  53.493  1.00  0.00     0.041 A 
HETATM    4  C10 UNL     1      25.595  -0.101  54.639  1.00  0.00     0.072 A 
HETATM    5  N1  UNL     1      24.900  -1.017  55.351  1.00  0.00    -0.241 NA
HETATM    6  C11 UNL     1      23.664  -1.351  54.897  1.00  0.00     0.236 A 
HETATM    7  N2  UNL     1      23.148  -0.807  53.801  1.00  0.00    -0.224 NA
HETATM    8  C12 UNL     1      23.770   0.104  53.041  1.00  0.00     0.142 A 
HETATM    9  C19 UNL     1      26.920   0.170  55.240  1.00  0.00     0.031 C 
HETATM   10  C20 UNL     1      27.945   0.575  54.474  1.00  0.00     0.013 C 
HETATM   11  C21 UNL     1      28.102   0.849  53.044  1.00  0.00     0.197 C 
ENDROOT
BRANCH   8  12
HETATM   12  N3  UNL     1      23.175   0.615  51.862  1.00  0.00    -0.340 N 
HETATM   13  H16 UNL     1      23.542   0.691  50.896  1.00  0.00     0.167 HD
BRANCH  12  14
HETATM   14  C13 UNL     1      21.843   1.145  51.841  1.00  0.00     0.035 A 
HETATM   15  C14 UNL     1      21.554   2.400  52.320  1.00  0.00     0.032 A 
HETATM   16  C15 UNL     1      20.283   2.959  52.347  1.00  0.00     0.046 A 
HETATM   17  C16 UNL     1      19.230   2.213  51.864  1.00  0.00     0.138 A 
HETATM   18  F1  UNL     1      17.971   2.731  51.877  1.00  0.00    -0.204 F 
HETATM   19  C17 UNL     1      19.451   0.951  51.372  1.00  0.00     0.074 A 
HETATM   20 CL1  UNL     1      18.092   0.036  50.771  1.00  0.00    -0.081 Cl
HETATM   21  C18 UNL     1      20.732   0.455  51.371  1.00  0.00     0.056 A 
ENDBRANCH  12  14
ENDBRANCH   8  12
BRANCH   1  22
HETATM   22  O1  UNL     1      27.267   2.661  51.589  1.00  0.00    -0.352 OA
BRANCH  22  23
HETATM   23  C6  UNL     1      26.612   2.766  50.363  1.00  0.00     0.176 C 
BRANCH  23  24
HETATM   24  C5  UNL     1      26.194   4.170  49.990  1.00  0.00     0.035 C 
BRANCH  24  25
HETATM   25  C2  UNL     1      24.703   4.356  49.883  1.00  0.00    -0.050 C 
HETATM   26  C1  UNL     1      24.474   5.478  48.862  1.00  0.00     0.014 C 
HETATM   27  C3  UNL     1      24.109   4.805  51.189  1.00  0.00     0.014 C 
HETATM   28  C4  UNL     1      23.980   3.151  49.389  1.00  0.00     0.014 C 
ENDBRANCH  24  25
ENDBRANCH  23  24
ENDBRANCH  22  23
ENDBRANCH   1  22
BRANCH  11  29
HETATM   29  O2  UNL     1      29.250   1.601  52.856  1.00  0.00    -0.385 OA
HETATM   30  H23 UNL     1      28.965   2.493  52.514  1.00  0.00     0.210 HD
ENDBRANCH  11  29
TORSDOF 7
ENDMDL
MODEL 4
REMARK VINA RESULT:      -8.0      3.113      4.868
REMARK  7 active torsions:
REMARK  status: ('A' for Active; 'I' for Inactive)
REMARK    1  A    between atoms: C2_2  and  C5_5 
REMARK    2  A    between atoms: C5_5  and  C6_6 
REMARK    3  A    between atoms: C6_6  and  O1_7 
REMARK    4  A    between atoms: O1_7  and  C7_8 
REMARK    5  A    between atoms: C12_15  and  N3_16 
REMARK    6  A    between atoms: N3_16  and  C13_17 
REMARK    7  A    between atoms: C21_27  and  O2_28 
ROOT
HETATM    1  C7  UNL     1      22.357  -0.383  53.365  1.00  0.00     0.079 C 
HETATM    2  C8  UNL     1      23.534  -0.101  52.771  1.00  0.00     0.053 C 
HETATM    3  C9  UNL     1      24.818   0.096  53.439  1.00  0.00     0.041 A 
HETATM    4  C10 UNL     1      25.174  -0.508  54.648  1.00  0.00     0.072 A 
HETATM    5  N1  UNL     1      26.402  -0.257  55.155  1.00  0.00    -0.241 NA
HETATM    6  C11 UNL     1      27.211   0.572  54.446  1.00  0.00     0.236 A 
HETATM    7  N2  UNL     1      26.823   1.120  53.300  1.00  0.00    -0.224 NA
HETATM    8  C12 UNL     1      25.625   0.924  52.732  1.00  0.00     0.142 A 
HETATM    9  C19 UNL     1      24.398  -1.422  55.516  1.00  0.00     0.031 C 
HETATM   10  C20 UNL     1      23.058  -1.375  55.530  1.00  0.00     0.013 C 
HETATM   11  C21 UNL     1      22.060  -0.565  54.827  1.00  0.00     0.197 C 
ENDROOT
BRANCH   8  12
HETATM   12  N3  UNL     1      25.263   1.571  51.525  1.00  0.00    -0.340 N 
HETATM   13  H16 UNL     1      25.247   1.224  50.550  1.00  0.00     0.167 HD
BRANCH  12  14
HETATM   14  C13 UNL     1      24.817   2.933  51.488  1.00  0.00     0.035 A 
HETATM   15  C14 UNL     1      24.063   3.477  52.500  1.00  0.00     0.032 A 
HETATM   16  C15 UNL     1      23.584   4.781  52.511  1.00  0.00     0.046 A 
HETATM   17  C16 UNL     1      23.877   5.594  51.439  1.00  0.00     0.138 A 
HETATM   18  F1  UNL     1      23.422   6.877  51.418  1.00  0.00    -0.204 F 
HETATM   19  C17 UNL     1      24.626   5.112  50.395  1.00  0.00     0.074 A 
HETATM   20 CL1  UNL     1      24.974   6.172  49.054  1.00  0.00    -0.081 Cl
HETATM   21  C18 UNL     1      25.072   3.813  50.443  1.00  0.00     0.056 A 
ENDBRANCH  12  14
ENDBRANCH   8  12
BRANCH   1  22
HETATM   22  O1  UNL     1      21.298  -0.519  52.479  1.00  0.00    -0.352 OA
BRANCH  22  23
HETATM   23  C6  UNL     1      21.330   0.141  51.252  1.00  0.00     0.176 C 
BRANCH  23  24
HETATM   24  C5  UNL     1      20.945   1.602  51.312  1.00  0.00     0.035 C 
BRANCH  24  25
HETATM   25  C2  UNL     1      20.910   2.281  49.968  1.00  0.00    -0.050 C 
HETATM   26  C1  UNL     1      22.144   1.790  49.198  1.00  0.00     0.014 C 
HETATM   27  C3  UNL     1      21.026   3.773  50.101  1.00  0.00     0.014 C 
HETATM   28  C4  UNL     1      19.712   1.939  49.152  1.00  0.00     0.014 C 
ENDBRANCH  24  25
ENDBRANCH  23  24
ENDBRANCH  22  23
ENDBRANCH   1  22
BRANCH  11  29
HETATM   29  O2  UNL     1      20.827  -1.187  54.926  1.00  0.00    -0.385 OA
HETATM   30  H23 UNL     1      20.165  -0.605  54.462  1.00  0.00     0.210 HD
ENDBRANCH  11  29
TORSDOF 7
ENDMDL
MODEL 5
REMARK VINA RESULT:      -7.8      4.097      7.210
REMARK  7 active torsions:
REMARK  status: ('A' for Active; 'I' for Inactive)
REMARK    1  A    between atoms: C2_2  and  C5_5 
REMARK    2  A    between atoms: C5_5  and  C6_6 
REMARK    3  A    between atoms: C6_6  and  O1_7 
REMARK    4  A    between atoms: O1_7  and  C7_8 
REMARK    5  A    between atoms: C12_15  and  N3_16 
REMARK    6  A    between atoms: N3_16  and  C13_17 
REMARK    7  A    between atoms: C21_27  and  O2_28 
ROOT
HETATM    1  C7  UNL     1      25.760   3.232  50.571  1.00  0.00     0.079 C 
HETATM    2  C8  UNL     1      24.545   2.769  50.927  1.00  0.00     0.053 C 
HETATM    3  C9  UNL     1      23.283   3.500  50.859  1.00  0.00     0.041 A 
HETATM    4  C10 UNL     1      23.012   4.512  49.934  1.00  0.00     0.072 A 
HETATM    5  N1  UNL     1      21.795   5.101  49.964  1.00  0.00    -0.241 NA
HETATM    6  C11 UNL     1      20.914   4.662  50.900  1.00  0.00     0.236 A 
HETATM    7  N2  UNL     1      21.222   3.695  51.756  1.00  0.00    -0.224 NA
HETATM    8  C12 UNL     1      22.403   3.063  51.792  1.00  0.00     0.142 A 
HETATM    9  C19 UNL     1      23.871   5.082  48.872  1.00  0.00     0.031 C 
HETATM   10  C20 UNL     1      25.207   5.071  48.998  1.00  0.00     0.013 C 
HETATM   11  C21 UNL     1      26.129   4.584  50.026  1.00  0.00     0.197 C 
ENDROOT
BRANCH   8  12
HETATM   12  N3  UNL     1      22.678   2.064  52.759  1.00  0.00    -0.340 N 
HETATM   13  H16 UNL     1      23.504   1.919  53.366  1.00  0.00     0.167 HD
BRANCH  12  14
HETATM   14  C13 UNL     1      21.751   1.014  53.062  1.00  0.00     0.035 A 
HETATM   15  C14 UNL     1      21.967   0.131  54.094  1.00  0.00     0.032 A 
HETATM   16  C15 UNL     1      21.119  -0.918  54.422  1.00  0.00     0.046 A 
HETATM   17  C16 UNL     1      19.979  -1.098  53.670  1.00  0.00     0.138 A 
HETATM   18  F1  UNL     1      19.127  -2.117  53.965  1.00  0.00    -0.204 F 
HETATM   19  C17 UNL     1      19.704  -0.251  52.625  1.00  0.00     0.074 A 
HETATM   20 CL1  UNL     1      18.252  -0.512  51.695  1.00  0.00    -0.081 Cl
HETATM   21  C18 UNL     1      20.583   0.769  52.351  1.00  0.00     0.056 A 
ENDBRANCH  12  14
ENDBRANCH   8  12
BRANCH   1  22
HETATM   22  O1  UNL     1      26.786   2.314  50.742  1.00  0.00    -0.352 OA
BRANCH  22  23
HETATM   23  C6  UNL     1      26.851   1.555  51.909  1.00  0.00     0.176 C 
BRANCH  23  24
HETATM   24  C5  UNL     1      26.733   0.063  51.698  1.00  0.00     0.035 C 
BRANCH  24  25
HETATM   25  C2  UNL     1      26.906  -0.748  52.956  1.00  0.00    -0.050 C 
HETATM   26  C1  UNL     1      26.977  -2.218  52.522  1.00  0.00     0.014 C 
HETATM   27  C3  UNL     1      25.723  -0.604  53.871  1.00  0.00     0.014 C 
HETATM   28  C4  UNL     1      28.159  -0.443  53.701  1.00  0.00     0.014 C 
ENDBRANCH  24  25
ENDBRANCH  23  24
ENDBRANCH  22  23
ENDBRANCH   1  22
BRANCH  11  29
HETATM   29  O2  UNL     1      27.397   4.479  49.478  1.00  0.00    -0.385 OA
HETATM   30  H23 UNL     1      27.704   5.403  49.266  1.00  0.00     0.210 HD
ENDBRANCH  11  29
TORSDOF 7
ENDMDL
MODEL 6
REMARK VINA RESULT:      -7.4      4.282      6.800
REMARK  7 active torsions:
REMARK  status: ('A' for Active; 'I' for Inactive)
REMARK    1  A    between atoms: C2_2  and  C5_5 
REMARK    2  A    between atoms: C5_5  and  C6_6 
REMARK    3  A    between atoms: C6_6  and  O1_7 
REMARK    4  A    between atoms: O1_7  and  C7_8 
REMARK    5  A    between atoms: C12_15  and  N3_16 
REMARK    6  A    between atoms: N3_16  and  C13_17 
REMARK    7  A    between atoms: C21_27  and  O2_28 
ROOT
HETATM    1  C7  UNL     1      24.964   3.270  51.357  1.00  0.00     0.079 C 
HETATM    2  C8  UNL     1      23.932   2.777  52.071  1.00  0.00     0.053 C 
HETATM    3  C9  UNL     1      23.864   1.462  52.704  1.00  0.00     0.041 A 
HETATM    4  C10 UNL     1      24.978   0.757  53.169  1.00  0.00     0.072 A 
HETATM    5  N1  UNL     1      24.778  -0.446  53.754  1.00  0.00    -0.241 NA
HETATM    6  C11 UNL     1      23.498  -0.888  53.848  1.00  0.00     0.236 A 
HETATM    7  N2  UNL     1      22.474  -0.177  53.389  1.00  0.00    -0.224 NA
HETATM    8  C12 UNL     1      22.586   1.020  52.798  1.00  0.00     0.142 A 
HETATM    9  C19 UNL     1      26.412   1.118  53.131  1.00  0.00     0.031 C 
HETATM   10  C20 UNL     1      26.886   1.926  52.171  1.00  0.00     0.013 C 
HETATM   11  C21 UNL     1      26.280   2.619  51.032  1.00  0.00     0.197 C 
ENDROOT
BRANCH   8  12
HETATM   12  N3  UNL     1      21.454   1.708  52.298  1.00  0.00    -0.340 N 
HETATM   13  H16 UNL     1      21.294   2.717  52.130  1.00  0.00     0.167 HD
BRANCH  12  14
HETATM   14  C13 UNL     1      20.253   1.028  51.908  1.00  0.00     0.035 A 
HETATM   15  C14 UNL     1      19.689   1.204  50.667  1.00  0.00     0.032 A 
HETATM   16  C15 UNL     1      18.518   0.592  50.240  1.00  0.00     0.046 A 
HETATM   17  C16 UNL     1      17.866  -0.252  51.113  1.00  0.00     0.138 A 
HETATM   18  F1  UNL     1      16.715  -0.868  50.726  1.00  0.00    -0.204 F 
HETATM   19  C17 UNL     1      18.376  -0.471  52.368  1.00  0.00     0.074 A 
HETATM   20 CL1  UNL     1      17.521  -1.545  53.444  1.00  0.00    -0.081 Cl
HETATM   21  C18 UNL     1      19.540   0.164  52.730  1.00  0.00     0.056 A 
ENDBRANCH  12  14
ENDBRANCH   8  12
BRANCH   1  22
HETATM   22  O1  UNL     1      24.752   4.553  50.873  1.00  0.00    -0.352 OA
BRANCH  22  23
HETATM   23  C6  UNL     1      23.559   4.860  50.221  1.00  0.00     0.176 C 
BRANCH  23  24
HETATM   24  C5  UNL     1      23.546   4.533  48.745  1.00  0.00     0.035 C 
BRANCH  24  25
HETATM   25  C2  UNL     1      22.356   3.718  48.310  1.00  0.00    -0.050 C 
HETATM   26  C1  UNL     1      21.176   4.168  49.182  1.00  0.00     0.014 C 
HETATM   27  C3  UNL     1      22.571   2.252  48.561  1.00  0.00     0.014 C 
HETATM   28  C4  UNL     1      21.966   3.934  46.888  1.00  0.00     0.014 C 
ENDBRANCH  24  25
ENDBRANCH  23  24
ENDBRANCH  22  23
ENDBRANCH   1  22
BRANCH  11  29
HETATM   29  O2  UNL     1      27.141   3.616  50.603  1.00  0.00    -0.385 OA
HETATM   30  H23 UNL     1      26.583   4.329  50.189  1.00  0.00     0.210 HD
ENDBRANCH  11  29
TORSDOF 7
ENDMDL
MODEL 7
REMARK VINA RESULT:      -7.3      4.215      6.355
REMARK  7 active torsions:
REMARK  status: ('A' for Active; 'I' for Inactive)
REMARK    1  A    between atoms: C2_2  and  C5_5 
REMARK    2  A    between atoms: C5_5  and  C6_6 
REMARK    3  A    between atoms: C6_6  and  O1_7 
REMARK    4  A    between atoms: O1_7  and  C7_8 
REMARK    5  A    between atoms: C12_15  and  N3_16 
REMARK    6  A    between atoms: N3_16  and  C13_17 
REMARK    7  A    between atoms: C21_27  and  O2_28 
ROOT
HETATM    1  C7  UNL     1      25.530   0.211  52.531  1.00  0.00     0.079 C 
HETATM    2  C8  UNL     1      24.209   0.474  52.472  1.00  0.00     0.053 C 
HETATM    3  C9  UNL     1      23.155  -0.197  53.227  1.00  0.00     0.041 A 
HETATM    4  C10 UNL     1      23.339  -0.773  54.488  1.00  0.00     0.072 A 
HETATM    5  N1  UNL     1      22.276  -1.351  55.091  1.00  0.00    -0.241 NA
HETATM    6  C11 UNL     1      21.093  -1.330  54.423  1.00  0.00     0.236 A 
HETATM    7  N2  UNL     1      20.973  -0.768  53.227  1.00  0.00    -0.224 NA
HETATM    8  C12 UNL     1      21.975  -0.177  52.562  1.00  0.00     0.142 A 
HETATM    9  C19 UNL     1      24.559  -0.866  55.319  1.00  0.00     0.031 C 
HETATM   10  C20 UNL     1      25.773  -0.879  54.748  1.00  0.00     0.013 C 
HETATM   11  C21 UNL     1      26.249  -0.814  53.364  1.00  0.00     0.197 C 
ENDROOT
BRANCH   8  12
HETATM   12  N3  UNL     1      21.784   0.371  51.270  1.00  0.00    -0.340 N 
HETATM   13  H16 UNL     1      22.119   0.052  50.343  1.00  0.00     0.167 HD
BRANCH  12  14
HETATM   14  C13 UNL     1      21.017   1.561  51.045  1.00  0.00     0.035 A 
HETATM   15  C14 UNL     1      20.826   2.498  52.032  1.00  0.00     0.032 A 
HETATM   16  C15 UNL     1      20.076   3.658  51.883  1.00  0.00     0.046 A 
HETATM   17  C16 UNL     1      19.476   3.896  50.666  1.00  0.00     0.138 A 
HETATM   18  F1  UNL     1      18.734   5.023  50.486  1.00  0.00    -0.204 F 
HETATM   19  C17 UNL     1      19.628   3.000  49.637  1.00  0.00     0.074 A 
HETATM   20 CL1  UNL     1      18.852   3.336  48.112  1.00  0.00    -0.081 Cl
HETATM   21  C18 UNL     1      20.383   1.872  49.848  1.00  0.00     0.056 A 
ENDBRANCH  12  14
ENDBRANCH   8  12
BRANCH   1  22
HETATM   22  O1  UNL     1      26.302   1.010  51.700  1.00  0.00    -0.352 OA
BRANCH  22  23
HETATM   23  C6  UNL     1      26.114   2.390  51.693  1.00  0.00     0.176 C 
BRANCH  23  24
HETATM   24  C5  UNL     1      26.027   3.007  50.315  1.00  0.00     0.035 C 
BRANCH  24  25
HETATM   25  C2  UNL     1      24.777   3.816  50.086  1.00  0.00    -0.050 C 
HETATM   26  C1  UNL     1      25.221   5.133  49.435  1.00  0.00     0.014 C 
HETATM   27  C3  UNL     1      24.097   4.159  51.381  1.00  0.00     0.014 C 
HETATM   28  C4  UNL     1      23.804   3.169  49.162  1.00  0.00     0.014 C 
ENDBRANCH  24  25
ENDBRANCH  23  24
ENDBRANCH  22  23
ENDBRANCH   1  22
BRANCH  11  29
HETATM   29  O2  UNL     1      27.593  -0.478  53.367  1.00  0.00    -0.385 OA
HETATM   30  H23 UNL     1      28.106  -1.319  53.511  1.00  0.00     0.210 HD
ENDBRANCH  11  29
TORSDOF 7
ENDMDL
MODEL 8
REMARK VINA RESULT:      -7.3      3.266      5.173
REMARK  7 active torsions:
REMARK  status: ('A' for Active; 'I' for Inactive)
REMARK    1  A    between atoms: C2_2  and  C5_5 
REMARK    2  A    between atoms: C5_5  and  C6_6 
REMARK    3  A    between atoms: C6_6  and  O1_7 
REMARK    4  A    between atoms: O1_7  and  C7_8 
REMARK    5  A    between atoms: C12_15  and  N3_16 
REMARK    6  A    between atoms: N3_16  and  C13_17 
REMARK    7  A    between atoms: C21_27  and  O2_28 
ROOT
HETATM    1  C7  UNL     1      21.023   1.214  53.046  1.00  0.00     0.079 C 
HETATM    2  C8  UNL     1      22.131   1.872  52.652  1.00  0.00     0.053 C 
HETATM    3  C9  UNL     1      23.505   1.573  53.047  1.00  0.00     0.041 A 
HETATM    4  C10 UNL     1      23.962   0.297  53.391  1.00  0.00     0.072 A 
HETATM    5  N1  UNL     1      25.265   0.149  53.721  1.00  0.00    -0.241 NA
HETATM    6  C11 UNL     1      26.044   1.261  53.695  1.00  0.00     0.236 A 
HETATM    7  N2  UNL     1      25.560   2.450  53.359  1.00  0.00    -0.224 NA
HETATM    8  C12 UNL     1      24.284   2.682  53.021  1.00  0.00     0.142 A 
HETATM    9  C19 UNL     1      23.228  -0.986  53.461  1.00  0.00     0.031 C 
HETATM   10  C20 UNL     1      21.911  -1.005  53.717  1.00  0.00     0.013 C 
HETATM   11  C21 UNL     1      20.908   0.032  53.969  1.00  0.00     0.197 C 
ENDROOT
BRANCH   8  12
HETATM   12  N3  UNL     1      23.825   3.985  52.709  1.00  0.00    -0.340 N 
HETATM   13  H16 UNL     1      23.207   4.629  53.235  1.00  0.00     0.167 HD
BRANCH  12  14
HETATM   14  C13 UNL     1      24.199   4.663  51.503  1.00  0.00     0.035 A 
HETATM   15  C14 UNL     1      24.815   4.008  50.463  1.00  0.00     0.032 A 
HETATM   16  C15 UNL     1      25.220   4.614  49.281  1.00  0.00     0.046 A 
HETATM   17  C16 UNL     1      24.995   5.964  49.127  1.00  0.00     0.138 A 
HETATM   18  F1  UNL     1      25.380   6.588  47.980  1.00  0.00    -0.204 F 
HETATM   19  C17 UNL     1      24.383   6.677  50.128  1.00  0.00     0.074 A 
HETATM   20 CL1  UNL     1      24.117   8.386  49.897  1.00  0.00    -0.081 Cl
HETATM   21  C18 UNL     1      24.005   6.020  51.274  1.00  0.00     0.056 A 
ENDBRANCH  12  14
ENDBRANCH   8  12
BRANCH   1  22
HETATM   22  O1  UNL     1      19.847   1.719  52.511  1.00  0.00    -0.352 OA
BRANCH  22  23
HETATM   23  C6  UNL     1      19.897   2.593  51.426  1.00  0.00     0.176 C 
BRANCH  23  24
HETATM   24  C5  UNL     1      19.607   1.953  50.088  1.00  0.00     0.035 C 
BRANCH  24  25
HETATM   25  C2  UNL     1      20.553   2.370  48.992  1.00  0.00    -0.050 C 
HETATM   26  C1  UNL     1      21.311   3.599  49.514  1.00  0.00     0.014 C 
HETATM   27  C3  UNL     1      19.812   2.790  47.754  1.00  0.00     0.014 C 
HETATM   28  C4  UNL     1      21.567   1.336  48.647  1.00  0.00     0.014 C 
ENDBRANCH  24  25
ENDBRANCH  23  24
ENDBRANCH  22  23
ENDBRANCH   1  22
BRANCH  11  29
HETATM   29  O2  UNL     1      19.647  -0.513  53.790  1.00  0.00    -0.385 OA
HETATM   30  H23 UNL     1      19.647  -0.973  52.907  1.00  0.00     0.210 HD
ENDBRANCH  11  29
TORSDOF 7
ENDMDL
MODEL 9
REMARK VINA RESULT:      -7.2      3.855      5.918
REMARK  7 active torsions:
REMARK  status: ('A' for Active; 'I' for Inactive)
REMARK    1  A    between atoms: C2_2  and  C5_5 
REMARK    2  A    between atoms: C5_5  and  C6_6 
REMARK    3  A    between atoms: C6_6  and  O1_7 
REMARK    4  A    between atoms: O1_7  and  C7_8 
REMARK    5  A    between atoms: C12_15  and  N3_16 
REMARK    6  A    between atoms: N3_16  and  C13_17 
REMARK    7  A    between atoms: C21_27  and  O2_28 
ROOT
HETATM    1  C7  UNL     1      24.650   1.764  52.399  1.00  0.00     0.079 C 
HETATM    2  C8  UNL     1      23.378   1.775  52.845  1.00  0.00     0.053 C 
HETATM    3  C9  UNL     1      22.624   0.629  53.347  1.00  0.00     0.041 A 
HETATM    4  C10 UNL     1      23.204  -0.477  53.975  1.00  0.00     0.072 A 
HETATM    5  N1  UNL     1      22.392  -1.466  54.411  1.00  0.00    -0.241 NA
HETATM    6  C11 UNL     1      21.058  -1.314  54.206  1.00  0.00     0.236 A 
HETATM    7  N2  UNL     1      20.559  -0.241  53.604  1.00  0.00    -0.224 NA
HETATM    8  C12 UNL     1      21.293   0.781  53.143  1.00  0.00     0.142 A 
HETATM    9  C19 UNL     1      24.626  -0.768  54.259  1.00  0.00     0.031 C 
HETATM   10  C20 UNL     1      25.594  -0.260  53.482  1.00  0.00     0.013 C 
HETATM   11  C21 UNL     1      25.603   0.605  52.300  1.00  0.00     0.197 C 
ENDROOT
BRANCH   8  12
HETATM   12  N3  UNL     1      20.696   1.879  52.476  1.00  0.00    -0.340 N 
HETATM   13  H16 UNL     1      20.117   2.658  52.837  1.00  0.00     0.167 HD
BRANCH  12  14
HETATM   14  C13 UNL     1      20.834   2.086  51.064  1.00  0.00     0.035 A 
HETATM   15  C14 UNL     1      21.145   1.058  50.206  1.00  0.00     0.032 A 
HETATM   16  C15 UNL     1      21.313   1.201  48.835  1.00  0.00     0.046 A 
HETATM   17  C16 UNL     1      21.161   2.454  48.284  1.00  0.00     0.138 A 
HETATM   18  F1  UNL     1      21.319   2.628  46.943  1.00  0.00    -0.204 F 
HETATM   19  C17 UNL     1      20.850   3.524  49.086  1.00  0.00     0.074 A 
HETATM   20 CL1  UNL     1      20.667   5.096  48.351  1.00  0.00    -0.081 Cl
HETATM   21  C18 UNL     1      20.696   3.318  50.435  1.00  0.00     0.056 A 
ENDBRANCH  12  14
ENDBRANCH   8  12
BRANCH   1  22
HETATM   22  O1  UNL     1      25.111   3.004  51.981  1.00  0.00    -0.352 OA
BRANCH  22  23
HETATM   23  C6  UNL     1      24.238   3.899  51.366  1.00  0.00     0.176 C 
BRANCH  23  24
HETATM   24  C5  UNL     1      24.443   4.056  49.877  1.00  0.00     0.035 C 
BRANCH  24  25
HETATM   25  C2  UNL     1      25.020   5.389  49.477  1.00  0.00    -0.050 C 
HETATM   26  C1  UNL     1      24.164   5.903  48.311  1.00  0.00     0.014 C 
HETATM   27  C3  UNL     1      26.430   5.252  48.975  1.00  0.00     0.014 C 
HETATM   28  C4  UNL     1      24.965   6.416  50.554  1.00  0.00     0.014 C 
ENDBRANCH  24  25
ENDBRANCH  23  24
ENDBRANCH  22  23
ENDBRANCH   1  22
BRANCH  11  29
HETATM   29  O2  UNL     1      26.875   1.127  52.136  1.00  0.00    -0.385 OA
HETATM   30  H23 UNL     1      26.804   2.115  52.241  1.00  0.00     0.210 HD
ENDBRANCH  11  29
TORSDOF 7
ENDMDL
