MODEL 1
REMARK VINA RESULT:      -7.0      0.000      0.000
REMARK  8 active torsions:
REMARK  status: ('A' for Active; 'I' for Inactive)
REMARK    1  A    between atoms: C4_4  and  C5_5 
REMARK    2  A    between atoms: C6_6  and  N1_7 
REMARK       I    between atoms: N1_7  and  C7_8 
REMARK       I    between atoms: C7_8  and  N2_10 
REMARK    3  A    between atoms: N2_10  and  C8_11 
REMARK    4  A    between atoms: N2_10  and  C12_15 
REMARK    5  A    between atoms: C8_11  and  C9_12 
REMARK    6  A    between atoms: C9_12  and  C10_13 
REMARK    7  A    between atoms: C12_15  and  C13_16 
REMARK    8  A    between atoms: C18_22  and  O2_23 
ROOT
HETATM    1  C1  UNL     1      28.460  -1.604  53.051  1.00  0.00     0.017 C 
HETATM    2  C2  UNL     1      28.928  -0.608  53.534  1.00  0.00    -0.089 C 
HETATM    3  C3  UNL     1      29.507   0.568  54.121  1.00  0.00     0.063 C 
HETATM    4  C4  UNL     1      29.005   1.782  53.975  1.00  0.00     0.010 C 
ENDROOT
BRANCH   4   5
HETATM    5  C5  UNL     1      27.798   1.917  53.169  1.00  0.00     0.018 C 
HETATM    6  C6  UNL     1      26.703   2.362  53.761  1.00  0.00     0.092 C 
BRANCH   6   7
HETATM    7  N1  UNL     1      25.384   2.614  53.305  1.00  0.00    -0.319 N 
HETATM    8  C7  UNL     1      24.445   1.580  53.071  1.00  0.00     0.322 C 
HETATM    9  O1  UNL     1      24.700   0.354  53.245  1.00  0.00    -0.247 OA
HETATM   10  N2  UNL     1      23.102   1.699  52.620  1.00  0.00    -0.330 N 
HETATM   11  H6  UNL     1      24.952   3.531  53.094  1.00  0.00     0.170 HD
BRANCH  10  12
HETATM   12  C8  UNL     1      22.432   0.417  52.503  1.00  0.00     0.128 C 
BRANCH  12  13
HETATM   13  C9  UNL     1      21.055   0.371  53.064  1.00  0.00     0.020 C 
BRANCH  13  14
HETATM   14  C10 UNL     1      21.184   0.081  54.569  1.00  0.00    -0.003 C 
HETATM   15  C11 UNL     1      21.832  -1.250  54.794  1.00  0.00     0.005 C 
ENDBRANCH  13  14
ENDBRANCH  12  13
ENDBRANCH  10  12
BRANCH  10  16
HETATM   16  C12 UNL     1      22.451   2.950  52.291  1.00  0.00     0.169 C 
BRANCH  16  17
HETATM   17  C13 UNL     1      22.962   3.601  51.071  1.00  0.00    -0.006 A 
HETATM   18  C14 UNL     1      22.824   3.178  49.765  1.00  0.00     0.012 A 
HETATM   19  C15 UNL     1      23.339   3.881  48.697  1.00  0.00     0.002 A 
HETATM   20  C16 UNL     1      24.020   5.054  48.950  1.00  0.00     0.022 A 
HETATM   21  C17 UNL     1      24.177   5.506  50.241  1.00  0.00     0.044 A 
HETATM   22 BR1  UNL     1      25.138   7.140  50.456  1.00  0.00    -0.048 Br
HETATM   23  C18 UNL     1      23.655   4.790  51.286  1.00  0.00     0.090 A 
BRANCH  23  24
HETATM   24  O2  UNL     1      23.869   5.335  52.548  1.00  0.00    -0.359 OA
HETATM   25  H21 UNL     1      23.182   6.015  52.865  1.00  0.00     0.217 HD
ENDBRANCH  23  24
ENDBRANCH  16  17
ENDBRANCH  10  16
ENDBRANCH   6   7
ENDBRANCH   4   5
TORSDOF 8
ENDMDL
MODEL 2
REMARK VINA RESULT:      -6.9      2.703      5.968
REMARK  8 active torsions:
REMARK  status: ('A' for Active; 'I' for Inactive)
REMARK    1  A    between atoms: C4_4  and  C5_5 
REMARK    2  A    between atoms: C6_6  and  N1_7 
REMARK       I    between atoms: N1_7  and  C7_8 
REMARK       I    between atoms: C7_8  and  N2_10 
REMARK    3  A    between atoms: N2_10  and  C8_11 
REMARK    4  A    between atoms: N2_10  and  C12_15 
REMARK    5  A    between atoms: C8_11  and  C9_12 
REMARK    6  A    between atoms: C9_12  and  C10_13 
REMARK    7  A    between atoms: C12_15  and  C13_16 
REMARK    8  A    between atoms: C18_22  and  O2_23 
ROOT
HETATM    1  C1  UNL     1      28.635   5.514  48.420  1.00  0.00     0.017 C 
HETATM    2  C2  UNL     1      27.653   6.182  48.233  1.00  0.00    -0.089 C 
HETATM    3  C3  UNL     1      26.496   6.997  47.999  1.00  0.00     0.063 C 
HETATM    4  C4  UNL     1      25.271   6.652  48.358  1.00  0.00     0.010 C 
ENDROOT
BRANCH   4   5
HETATM    5  C5  UNL     1      25.105   5.369  49.027  1.00  0.00     0.018 C 
HETATM    6  C6  UNL     1      25.224   5.334  50.343  1.00  0.00     0.092 C 
BRANCH   6   7
HETATM    7  N1  UNL     1      25.128   4.292  51.302  1.00  0.00    -0.319 N 
HETATM    8  C7  UNL     1      25.904   3.110  51.227  1.00  0.00     0.322 C 
HETATM    9  O1  UNL     1      26.739   2.881  50.307  1.00  0.00    -0.247 OA
HETATM   10  N2  UNL     1      25.904   2.002  52.118  1.00  0.00    -0.330 N 
HETATM   11  H6  UNL     1      24.517   4.256  52.136  1.00  0.00     0.170 HD
BRANCH  10  12
HETATM   12  C8  UNL     1      26.843   0.966  51.729  1.00  0.00     0.128 C 
BRANCH  12  13
HETATM   13  C9  UNL     1      27.265   0.054  52.824  1.00  0.00     0.020 C 
BRANCH  13  14
HETATM   14  C10 UNL     1      28.612   0.572  53.357  1.00  0.00    -0.003 C 
HETATM   15  C11 UNL     1      29.561  -0.564  53.583  1.00  0.00     0.005 C 
ENDBRANCH  13  14
ENDBRANCH  12  13
ENDBRANCH  10  12
BRANCH  10  16
HETATM   16  C12 UNL     1      25.059   1.887  53.289  1.00  0.00     0.169 C 
BRANCH  16  17
HETATM   17  C13 UNL     1      23.830   1.100  53.078  1.00  0.00    -0.006 A 
HETATM   18  C14 UNL     1      23.662  -0.262  53.214  1.00  0.00     0.012 A 
HETATM   19  C15 UNL     1      22.454  -0.888  52.999  1.00  0.00     0.002 A 
HETATM   20  C16 UNL     1      21.370  -0.117  52.633  1.00  0.00     0.022 A 
HETATM   21  C17 UNL     1      21.501   1.245  52.488  1.00  0.00     0.044 A 
HETATM   22 BR1  UNL     1      19.928   2.198  51.976  1.00  0.00    -0.048 Br
HETATM   23  C18 UNL     1      22.713   1.846  52.707  1.00  0.00     0.090 A 
BRANCH  23  24
HETATM   24  O2  UNL     1      22.735   3.226  52.534  1.00  0.00    -0.359 OA
HETATM   25  H21 UNL     1      22.565   3.561  51.589  1.00  0.00     0.217 HD
ENDBRANCH  23  24
ENDBRANCH  16  17
ENDBRANCH  10  16
ENDBRANCH   6   7
ENDBRANCH   4   5
TORSDOF 8
ENDMDL
MODEL 3
REMARK VINA RESULT:      -6.9      2.929      5.665
REMARK  8 active torsions:
REMARK  status: ('A' for Active; 'I' for Inactive)
REMARK    1  A    between atoms: C4_4  and  C5_5 
REMARK    2  A    between atoms: C6_6  and  N1_7 
REMARK       I    between atoms: N1_7  and  C7_8 
REMARK       I    between atoms: C7_8  and  N2_10 
REMARK    3  A    between atoms: N2_10  and  C8_11 
REMARK    4  A    between atoms: N2_10  and  C12_15 
REMARK    5  A    between atoms: C8_11  and  C9_12 
REMARK    6  A    between atoms: C9_12  and  C10_13 
REMARK    7  A    between atoms: C12_15  and  C13_16 
REMARK    8  A    between atoms: C18_22  and  O2_23 
ROOT
HETATM    1  C1  UNL     1      29.301   5.979  48.208  1.00  0.00     0.017 C 
HETATM    2  C2  UNL     1      28.224   6.477  48.011  1.00  0.00    -0.089 C 
HETATM    3  C3  UNL     1      26.949   7.082  47.755  1.00  0.00     0.063 C 
HETATM    4  C4  UNL     1      25.900   6.945  48.548  1.00  0.00     0.010 C 
ENDROOT
BRANCH   4   5
HETATM    5  C5  UNL     1      26.066   6.131  49.745  1.00  0.00     0.018 C 
HETATM    6  C6  UNL     1      25.134   5.235  50.021  1.00  0.00     0.092 C 
BRANCH   6   7
HETATM    7  N1  UNL     1      24.968   4.294  51.070  1.00  0.00    -0.319 N 
HETATM    8  C7  UNL     1      23.892   3.374  51.109  1.00  0.00     0.322 C 
HETATM    9  O1  UNL     1      22.993   3.315  50.221  1.00  0.00    -0.247 OA
HETATM   10  N2  UNL     1      23.615   2.387  52.093  1.00  0.00    -0.330 N 
HETATM   11  H6  UNL     1      25.572   4.158  51.899  1.00  0.00     0.170 HD
BRANCH  10  12
HETATM   12  C8  UNL     1      22.423   1.614  51.797  1.00  0.00     0.128 C 
BRANCH  12  13
HETATM   13  C9  UNL     1      21.640   1.183  52.986  1.00  0.00     0.020 C 
BRANCH  13  14
HETATM   14  C10 UNL     1      21.335  -0.315  52.813  1.00  0.00    -0.003 C 
HETATM   15  C11 UNL     1      22.041  -1.120  53.861  1.00  0.00     0.005 C 
ENDBRANCH  13  14
ENDBRANCH  12  13
ENDBRANCH  10  12
BRANCH  10  16
HETATM   16  C12 UNL     1      24.413   2.163  53.282  1.00  0.00     0.169 C 
BRANCH  16  17
HETATM   17  C13 UNL     1      25.432   1.108  53.142  1.00  0.00    -0.006 A 
HETATM   18  C14 UNL     1      25.265  -0.172  52.658  1.00  0.00     0.012 A 
HETATM   19  C15 UNL     1      26.303  -1.074  52.562  1.00  0.00     0.002 A 
HETATM   20  C16 UNL     1      27.559  -0.675  52.970  1.00  0.00     0.022 A 
HETATM   21  C17 UNL     1      27.763   0.595  53.459  1.00  0.00     0.044 A 
HETATM   22 BR1  UNL     1      29.545   1.024  53.991  1.00  0.00    -0.048 Br
HETATM   23  C18 UNL     1      26.715   1.475  53.543  1.00  0.00     0.090 A 
BRANCH  23  24
HETATM   24  O2  UNL     1      27.030   2.731  54.050  1.00  0.00    -0.359 OA
HETATM   25  H21 UNL     1      27.478   3.376  53.404  1.00  0.00     0.217 HD
ENDBRANCH  23  24
ENDBRANCH  16  17
ENDBRANCH  10  16
ENDBRANCH   6   7
ENDBRANCH   4   5
TORSDOF 8
ENDMDL
MODEL 4
REMARK VINA RESULT:      -6.5      3.262      6.079
REMARK  8 active torsions:
REMARK  status: ('A' for Active; 'I' for Inactive)
REMARK    1  A    between atoms: C4_4  and  C5_5 
REMARK    2  A    between atoms: C6_6  and  N1_7 
REMARK       I    between atoms: N1_7  and  C7_8 
REMARK       I    between atoms: C7_8  and  N2_10 
REMARK    3  A    between atoms: N2_10  and  C8_11 
REMARK    4  A    between atoms: N2_10  and  C12_15 
REMARK    5  A    between atoms: C8_11  and  C9_12 
REMARK    6  A    between atoms: C9_12  and  C10_13 
REMARK    7  A    between atoms: C12_15  and  C13_16 
REMARK    8  A    between atoms: C18_22  and  O2_23 
ROOT
HETATM    1  C1  UNL     1      25.896   8.748  47.377  1.00  0.00     0.017 C 
HETATM    2  C2  UNL     1      26.813   7.972  47.412  1.00  0.00    -0.089 C 
HETATM    3  C3  UNL     1      27.921   7.060  47.436  1.00  0.00     0.063 C 
HETATM    4  C4  UNL     1      27.952   5.964  48.173  1.00  0.00     0.010 C 
ENDROOT
BRANCH   4   5
HETATM    5  C5  UNL     1      26.788   5.679  49.002  1.00  0.00     0.018 C 
HETATM    6  C6  UNL     1      26.808   4.589  49.749  1.00  0.00     0.092 C 
BRANCH   6   7
HETATM    7  N1  UNL     1      25.881   4.011  50.655  1.00  0.00    -0.319 N 
HETATM    8  C7  UNL     1      24.738   3.296  50.225  1.00  0.00     0.322 C 
HETATM    9  O1  UNL     1      24.446   3.113  49.008  1.00  0.00    -0.247 OA
HETATM   10  N2  UNL     1      23.741   2.671  51.024  1.00  0.00    -0.330 N 
HETATM   11  H6  UNL     1      25.911   4.032  51.689  1.00  0.00     0.170 HD
BRANCH  10  12
HETATM   12  C8  UNL     1      22.715   2.016  50.234  1.00  0.00     0.128 C 
BRANCH  12  13
HETATM   13  C9  UNL     1      21.371   1.960  50.868  1.00  0.00     0.020 C 
BRANCH  13  14
HETATM   14  C10 UNL     1      20.918   0.490  50.849  1.00  0.00    -0.003 C 
HETATM   15  C11 UNL     1      19.582   0.342  51.509  1.00  0.00     0.005 C 
ENDBRANCH  13  14
ENDBRANCH  12  13
ENDBRANCH  10  12
BRANCH  10  16
HETATM   16  C12 UNL     1      23.720   2.682  52.472  1.00  0.00     0.169 C 
BRANCH  16  17
HETATM   17  C13 UNL     1      24.248   1.457  53.099  1.00  0.00    -0.006 A 
HETATM   18  C14 UNL     1      23.579   0.277  53.347  1.00  0.00     0.012 A 
HETATM   19  C15 UNL     1      24.186  -0.814  53.933  1.00  0.00     0.002 A 
HETATM   20  C16 UNL     1      25.516  -0.715  54.283  1.00  0.00     0.022 A 
HETATM   21  C17 UNL     1      26.215   0.447  54.051  1.00  0.00     0.044 A 
HETATM   22 BR1  UNL     1      28.047   0.456  54.583  1.00  0.00    -0.048 Br
HETATM   23  C18 UNL     1      25.591   1.518  53.466  1.00  0.00     0.090 A 
BRANCH  23  24
HETATM   24  O2  UNL     1      26.388   2.642  53.276  1.00  0.00    -0.359 OA
HETATM   25  H21 UNL     1      27.322   2.473  52.911  1.00  0.00     0.217 HD
ENDBRANCH  23  24
ENDBRANCH  16  17
ENDBRANCH  10  16
ENDBRANCH   6   7
ENDBRANCH   4   5
TORSDOF 8
ENDMDL
MODEL 5
REMARK VINA RESULT:      -6.3      2.950      6.470
REMARK  8 active torsions:
REMARK  status: ('A' for Active; 'I' for Inactive)
REMARK    1  A    between atoms: C4_4  and  C5_5 
REMARK    2  A    between atoms: C6_6  and  N1_7 
REMARK       I    between atoms: N1_7  and  C7_8 
REMARK       I    between atoms: C7_8  and  N2_10 
REMARK    3  A    between atoms: N2_10  and  C8_11 
REMARK    4  A    between atoms: N2_10  and  C12_15 
REMARK    5  A    between atoms: C8_11  and  C9_12 
REMARK    6  A    between atoms: C9_12  and  C10_13 
REMARK    7  A    between atoms: C12_15  and  C13_16 
REMARK    8  A    between atoms: C18_22  and  O2_23 
ROOT
HETATM    1  C1  UNL     1      23.118   7.672  46.186  1.00  0.00     0.017 C 
HETATM    2  C2  UNL     1      24.279   7.794  46.471  1.00  0.00    -0.089 C 
HETATM    3  C3  UNL     1      25.668   7.956  46.791  1.00  0.00     0.063 C 
HETATM    4  C4  UNL     1      26.244   7.417  47.851  1.00  0.00     0.010 C 
ENDROOT
BRANCH   4   5
HETATM    5  C5  UNL     1      25.406   6.617  48.735  1.00  0.00     0.018 C 
HETATM    6  C6  UNL     1      26.000   5.751  49.538  1.00  0.00     0.092 C 
BRANCH   6   7
HETATM    7  N1  UNL     1      25.519   4.831  50.506  1.00  0.00    -0.319 N 
HETATM    8  C7  UNL     1      26.111   3.563  50.717  1.00  0.00     0.322 C 
HETATM    9  O1  UNL     1      27.110   3.143  50.065  1.00  0.00    -0.247 OA
HETATM   10  N2  UNL     1      25.730   2.559  51.648  1.00  0.00    -0.330 N 
HETATM   11  H6  UNL     1      24.718   4.954  51.150  1.00  0.00     0.170 HD
BRANCH  10  12
HETATM   12  C8  UNL     1      26.578   1.383  51.589  1.00  0.00     0.128 C 
BRANCH  12  13
HETATM   13  C9  UNL     1      27.390   1.129  52.809  1.00  0.00     0.020 C 
BRANCH  13  14
HETATM   14  C10 UNL     1      26.864  -0.168  53.446  1.00  0.00    -0.003 C 
HETATM   15  C11 UNL     1      26.687  -1.231  52.406  1.00  0.00     0.005 C 
ENDBRANCH  13  14
ENDBRANCH  12  13
ENDBRANCH  10  12
BRANCH  10  16
HETATM   16  C12 UNL     1      24.610   2.666  52.561  1.00  0.00     0.169 C 
BRANCH  16  17
HETATM   17  C13 UNL     1      23.533   1.687  52.321  1.00  0.00    -0.006 A 
HETATM   18  C14 UNL     1      23.259   0.538  53.033  1.00  0.00     0.012 A 
HETATM   19  C15 UNL     1      22.211  -0.300  52.719  1.00  0.00     0.002 A 
HETATM   20  C16 UNL     1      21.406   0.028  51.648  1.00  0.00     0.022 A 
HETATM   21  C17 UNL     1      21.650   1.167  50.915  1.00  0.00     0.044 A 
HETATM   22 BR1  UNL     1      20.466   1.508  49.458  1.00  0.00    -0.048 Br
HETATM   23  C18 UNL     1      22.698   1.985  51.246  1.00  0.00     0.090 A 
BRANCH  23  24
HETATM   24  O2  UNL     1      22.856   3.109  50.442  1.00  0.00    -0.359 OA
HETATM   25  H21 UNL     1      23.813   3.360  50.206  1.00  0.00     0.217 HD
ENDBRANCH  23  24
ENDBRANCH  16  17
ENDBRANCH  10  16
ENDBRANCH   6   7
ENDBRANCH   4   5
TORSDOF 8
ENDMDL
MODEL 6
REMARK VINA RESULT:      -6.3      2.980      4.964
REMARK  8 active torsions:
REMARK  status: ('A' for Active; 'I' for Inactive)
REMARK    1  A    between atoms: C4_4  and  C5_5 
REMARK    2  A    between atoms: C6_6  and  N1_7 
REMARK       I    between atoms: N1_7  and  C7_8 
REMARK       I    between atoms: C7_8  and  N2_10 
REMARK    3  A    between atoms: N2_10  and  C8_11 
REMARK    4  A    between atoms: N2_10  and  C12_15 
REMARK    5  A    between atoms: C8_11  and  C9_12 
REMARK    6  A    between atoms: C9_12  and  C10_13 
REMARK    7  A    between atoms: C12_15  and  C13_16 
REMARK    8  A    between atoms: C18_22  and  O2_23 
ROOT
HETATM    1  C1  UNL     1      29.347   1.994  54.511  1.00  0.00     0.017 C 
HETATM    2  C2  UNL     1      29.191   0.877  54.094  1.00  0.00    -0.089 C 
HETATM    3  C3  UNL     1      29.029  -0.461  53.601  1.00  0.00     0.063 C 
HETATM    4  C4  UNL     1      27.894  -0.928  53.111  1.00  0.00     0.010 C 
ENDROOT
BRANCH   4   5
HETATM    5  C5  UNL     1      26.753  -0.022  53.077  1.00  0.00     0.018 C 
HETATM    6  C6  UNL     1      26.610   0.757  52.019  1.00  0.00     0.092 C 
BRANCH   6   7
HETATM    7  N1  UNL     1      25.649   1.734  51.652  1.00  0.00    -0.319 N 
HETATM    8  C7  UNL     1      25.977   2.881  50.890  1.00  0.00     0.322 C 
HETATM    9  O1  UNL     1      27.145   3.133  50.476  1.00  0.00    -0.247 OA
HETATM   10  N2  UNL     1      25.115   3.925  50.457  1.00  0.00    -0.330 N 
HETATM   11  H6  UNL     1      24.639   1.743  51.877  1.00  0.00     0.170 HD
BRANCH  10  12
HETATM   12  C8  UNL     1      25.803   4.940  49.681  1.00  0.00     0.128 C 
BRANCH  12  13
HETATM   13  C9  UNL     1      25.013   6.171  49.412  1.00  0.00     0.020 C 
BRANCH  13  14
HETATM   14  C10 UNL     1      25.399   7.205  50.483  1.00  0.00    -0.003 C 
HETATM   15  C11 UNL     1      26.467   8.121  49.971  1.00  0.00     0.005 C 
ENDBRANCH  13  14
ENDBRANCH  12  13
ENDBRANCH  10  12
BRANCH  10  16
HETATM   16  C12 UNL     1      23.699   4.000  50.756  1.00  0.00     0.169 C 
BRANCH  16  17
HETATM   17  C13 UNL     1      22.868   3.033  50.016  1.00  0.00    -0.006 A 
HETATM   18  C14 UNL     1      22.921   2.723  48.674  1.00  0.00     0.012 A 
HETATM   19  C15 UNL     1      22.094   1.785  48.093  1.00  0.00     0.002 A 
HETATM   20  C16 UNL     1      21.178   1.134  48.892  1.00  0.00     0.022 A 
HETATM   21  C17 UNL     1      21.096   1.418  50.236  1.00  0.00     0.044 A 
HETATM   22 BR1  UNL     1      19.787   0.449  51.230  1.00  0.00    -0.048 Br
HETATM   23  C18 UNL     1      21.930   2.353  50.791  1.00  0.00     0.090 A 
BRANCH  23  24
HETATM   24  O2  UNL     1      21.765   2.563  52.156  1.00  0.00    -0.359 OA
HETATM   25  H21 UNL     1      21.227   1.860  52.656  1.00  0.00     0.217 HD
ENDBRANCH  23  24
ENDBRANCH  16  17
ENDBRANCH  10  16
ENDBRANCH   6   7
ENDBRANCH   4   5
TORSDOF 8
ENDMDL
MODEL 7
REMARK VINA RESULT:      -6.2      2.651      6.501
REMARK  8 active torsions:
REMARK  status: ('A' for Active; 'I' for Inactive)
REMARK    1  A    between atoms: C4_4  and  C5_5 
REMARK    2  A    between atoms: C6_6  and  N1_7 
REMARK       I    between atoms: N1_7  and  C7_8 
REMARK       I    between atoms: C7_8  and  N2_10 
REMARK    3  A    between atoms: N2_10  and  C8_11 
REMARK    4  A    between atoms: N2_10  and  C12_15 
REMARK    5  A    between atoms: C8_11  and  C9_12 
REMARK    6  A    between atoms: C9_12  and  C10_13 
REMARK    7  A    between atoms: C12_15  and  C13_16 
REMARK    8  A    between atoms: C18_22  and  O2_23 
ROOT
HETATM    1  C1  UNL     1      20.095   7.446  48.193  1.00  0.00     0.017 C 
HETATM    2  C2  UNL     1      20.978   7.917  48.859  1.00  0.00    -0.089 C 
HETATM    3  C3  UNL     1      22.023   8.503  49.648  1.00  0.00     0.063 C 
HETATM    4  C4  UNL     1      22.954   7.800  50.270  1.00  0.00     0.010 C 
ENDROOT
BRANCH   4   5
HETATM    5  C5  UNL     1      22.901   6.350  50.137  1.00  0.00     0.018 C 
HETATM    6  C6  UNL     1      23.566   5.621  51.016  1.00  0.00     0.092 C 
BRANCH   6   7
HETATM    7  N1  UNL     1      23.736   4.223  51.192  1.00  0.00    -0.319 N 
HETATM    8  C7  UNL     1      22.796   3.419  51.880  1.00  0.00     0.322 C 
HETATM    9  O1  UNL     1      21.734   3.872  52.394  1.00  0.00    -0.247 OA
HETATM   10  N2  UNL     1      22.848   2.019  52.120  1.00  0.00    -0.330 N 
HETATM   11  H6  UNL     1      24.522   3.636  50.862  1.00  0.00     0.170 HD
BRANCH  10  12
HETATM   12  C8  UNL     1      21.696   1.530  52.856  1.00  0.00     0.128 C 
BRANCH  12  13
HETATM   13  C9  UNL     1      21.150   0.230  52.382  1.00  0.00     0.020 C 
BRANCH  13  14
HETATM   14  C10 UNL     1      20.417  -0.417  53.570  1.00  0.00    -0.003 C 
HETATM   15  C11 UNL     1      21.313  -1.388  54.274  1.00  0.00     0.005 C 
ENDBRANCH  13  14
ENDBRANCH  12  13
ENDBRANCH  10  12
BRANCH  10  16
HETATM   16  C12 UNL     1      23.928   1.150  51.700  1.00  0.00     0.169 C 
BRANCH  16  17
HETATM   17  C13 UNL     1      24.894   0.820  52.764  1.00  0.00    -0.006 A 
HETATM   18  C14 UNL     1      24.781  -0.147  53.741  1.00  0.00     0.012 A 
HETATM   19  C15 UNL     1      25.761  -0.372  54.683  1.00  0.00     0.002 A 
HETATM   20  C16 UNL     1      26.901   0.404  54.642  1.00  0.00     0.022 A 
HETATM   21  C17 UNL     1      27.048   1.379  53.682  1.00  0.00     0.044 A 
HETATM   22 BR1  UNL     1      28.669   2.385  53.735  1.00  0.00    -0.048 Br
HETATM   23  C18 UNL     1      26.060   1.584  52.756  1.00  0.00     0.090 A 
BRANCH  23  24
HETATM   24  O2  UNL     1      26.309   2.592  51.830  1.00  0.00    -0.359 OA
HETATM   25  H21 UNL     1      25.619   3.337  51.782  1.00  0.00     0.217 HD
ENDBRANCH  23  24
ENDBRANCH  16  17
ENDBRANCH  10  16
ENDBRANCH   6   7
ENDBRANCH   4   5
TORSDOF 8
ENDMDL
MODEL 8
REMARK VINA RESULT:      -6.1      2.621      6.544
REMARK  8 active torsions:
REMARK  status: ('A' for Active; 'I' for Inactive)
REMARK    1  A    between atoms: C4_4  and  C5_5 
REMARK    2  A    between atoms: C6_6  and  N1_7 
REMARK       I    between atoms: N1_7  and  C7_8 
REMARK       I    between atoms: C7_8  and  N2_10 
REMARK    3  A    between atoms: N2_10  and  C8_11 
REMARK    4  A    between atoms: N2_10  and  C12_15 
REMARK    5  A    between atoms: C8_11  and  C9_12 
REMARK    6  A    between atoms: C9_12  and  C10_13 
REMARK    7  A    between atoms: C12_15  and  C13_16 
REMARK    8  A    between atoms: C18_22  and  O2_23 
ROOT
HETATM    1  C1  UNL     1      25.181   7.034  48.173  1.00  0.00     0.017 C 
HETATM    2  C2  UNL     1      24.685   7.314  49.232  1.00  0.00    -0.089 C 
HETATM    3  C3  UNL     1      24.094   7.673  50.489  1.00  0.00     0.063 C 
HETATM    4  C4  UNL     1      23.751   6.794  51.415  1.00  0.00     0.010 C 
ENDROOT
BRANCH   4   5
HETATM    5  C5  UNL     1      23.993   5.386  51.126  1.00  0.00     0.018 C 
HETATM    6  C6  UNL     1      23.765   4.507  52.087  1.00  0.00     0.092 C 
BRANCH   6   7
HETATM    7  N1  UNL     1      23.885   3.095  52.163  1.00  0.00    -0.319 N 
HETATM    8  C7  UNL     1      24.844   2.453  52.983  1.00  0.00     0.322 C 
HETATM    9  O1  UNL     1      25.670   3.076  53.710  1.00  0.00    -0.247 OA
HETATM   10  N2  UNL     1      25.063   1.059  53.150  1.00  0.00    -0.330 N 
HETATM   11  H6  UNL     1      23.323   2.385  51.662  1.00  0.00     0.170 HD
BRANCH  10  12
HETATM   12  C8  UNL     1      26.134   0.765  54.086  1.00  0.00     0.128 C 
BRANCH  12  13
HETATM   13  C9  UNL     1      27.113  -0.255  53.624  1.00  0.00     0.020 C 
BRANCH  13  14
HETATM   14  C10 UNL     1      28.346  -0.151  54.536  1.00  0.00    -0.003 C 
HETATM   15  C11 UNL     1      29.606  -0.201  53.727  1.00  0.00     0.005 C 
ENDBRANCH  13  14
ENDBRANCH  12  13
ENDBRANCH  10  12
BRANCH  10  16
HETATM   16  C12 UNL     1      24.323   0.020  52.463  1.00  0.00     0.169 C 
BRANCH  16  17
HETATM   17  C13 UNL     1      23.013  -0.292  53.063  1.00  0.00    -0.006 A 
HETATM   18  C14 UNL     1      22.759  -0.910  54.269  1.00  0.00     0.012 A 
HETATM   19  C15 UNL     1      21.481  -1.140  54.733  1.00  0.00     0.002 A 
HETATM   20  C16 UNL     1      20.417  -0.734  53.955  1.00  0.00     0.022 A 
HETATM   21  C17 UNL     1      20.633  -0.114  52.745  1.00  0.00     0.044 A 
HETATM   22 BR1  UNL     1      19.078   0.397  51.765  1.00  0.00    -0.048 Br
HETATM   23  C18 UNL     1      21.912   0.104  52.305  1.00  0.00     0.090 A 
BRANCH  23  24
HETATM   24  O2  UNL     1      22.018   0.737  51.071  1.00  0.00    -0.359 OA
HETATM   25  H21 UNL     1      22.500   1.633  51.067  1.00  0.00     0.217 HD
ENDBRANCH  23  24
ENDBRANCH  16  17
ENDBRANCH  10  16
ENDBRANCH   6   7
ENDBRANCH   4   5
TORSDOF 8
ENDMDL
MODEL 9
REMARK VINA RESULT:      -6.1      2.805      6.573
REMARK  8 active torsions:
REMARK  status: ('A' for Active; 'I' for Inactive)
REMARK    1  A    between atoms: C4_4  and  C5_5 
REMARK    2  A    between atoms: C6_6  and  N1_7 
REMARK       I    between atoms: N1_7  and  C7_8 
REMARK       I    between atoms: C7_8  and  N2_10 
REMARK    3  A    between atoms: N2_10  and  C8_11 
REMARK    4  A    between atoms: N2_10  and  C12_15 
REMARK    5  A    between atoms: C8_11  and  C9_12 
REMARK    6  A    between atoms: C9_12  and  C10_13 
REMARK    7  A    between atoms: C12_15  and  C13_16 
REMARK    8  A    between atoms: C18_22  and  O2_23 
ROOT
HETATM    1  C1  UNL     1      15.525  -0.889  51.439  1.00  0.00     0.017 C 
HETATM    2  C2  UNL     1      16.040  -1.688  52.174  1.00  0.00    -0.089 C 
HETATM    3  C3  UNL     1      16.636  -2.657  53.048  1.00  0.00     0.063 C 
HETATM    4  C4  UNL     1      17.786  -2.472  53.673  1.00  0.00     0.010 C 
ENDROOT
BRANCH   4   5
HETATM    5  C5  UNL     1      18.474  -1.207  53.451  1.00  0.00     0.018 C 
HETATM    6  C6  UNL     1      19.796  -1.215  53.425  1.00  0.00     0.092 C 
BRANCH   6   7
HETATM    7  N1  UNL     1      20.772  -0.203  53.239  1.00  0.00    -0.319 N 
HETATM    8  C7  UNL     1      22.162  -0.454  53.338  1.00  0.00     0.322 C 
HETATM    9  O1  UNL     1      22.648  -1.591  53.601  1.00  0.00    -0.247 OA
HETATM   10  N2  UNL     1      23.234   0.464  53.172  1.00  0.00    -0.330 N 
HETATM   11  H6  UNL     1      20.613   0.795  53.018  1.00  0.00     0.170 HD
BRANCH  10  12
HETATM   12  C8  UNL     1      24.537  -0.154  53.338  1.00  0.00     0.128 C 
BRANCH  12  13
HETATM   13  C9  UNL     1      25.672   0.795  53.482  1.00  0.00     0.020 C 
BRANCH  13  14
HETATM   14  C10 UNL     1      26.762   0.359  52.488  1.00  0.00    -0.003 C 
HETATM   15  C11 UNL     1      27.134  -1.075  52.711  1.00  0.00     0.005 C 
ENDBRANCH  13  14
ENDBRANCH  12  13
ENDBRANCH  10  12
BRANCH  10  16
HETATM   16  C12 UNL     1      23.074   1.874  52.881  1.00  0.00     0.169 C 
BRANCH  16  17
HETATM   17  C13 UNL     1      23.131   2.211  51.447  1.00  0.00    -0.006 A 
HETATM   18  C14 UNL     1      22.371   1.686  50.423  1.00  0.00     0.012 A 
HETATM   19  C15 UNL     1      22.507   2.090  49.112  1.00  0.00     0.002 A 
HETATM   20  C16 UNL     1      23.443   3.059  48.818  1.00  0.00     0.022 A 
HETATM   21  C17 UNL     1      24.220   3.606  49.814  1.00  0.00     0.044 A 
HETATM   22 BR1  UNL     1      25.478   4.936  49.277  1.00  0.00    -0.048 Br
HETATM   23  C18 UNL     1      24.065   3.188  51.110  1.00  0.00     0.090 A 
BRANCH  23  24
HETATM   24  O2  UNL     1      24.898   3.805  52.039  1.00  0.00    -0.359 OA
HETATM   25  H21 UNL     1      25.716   4.278  51.662  1.00  0.00     0.217 HD
ENDBRANCH  23  24
ENDBRANCH  16  17
ENDBRANCH  10  16
ENDBRANCH   6   7
ENDBRANCH   4   5
TORSDOF 8
ENDMDL
