MODEL 1
REMARK VINA RESULT:      -8.0      0.000      0.000
REMARK  5 active torsions:
REMARK  status: ('A' for Active; 'I' for Inactive)
REMARK    1  A    between atoms: C1_2  and  C2_3 
REMARK    2  A    between atoms: C2_3  and  N1_4 
REMARK    3  A    between atoms: N1_4  and  C3_5 
REMARK    4  A    between atoms: C8_12  and  N4_13 
REMARK    5  A    between atoms: N4_13  and  C9_14 
ROOT
HETATM    1  C3  UNL     1      24.372  -0.194  53.368  1.00  0.00     0.029 A 
HETATM    2  C4  UNL     1      24.944  -0.541  54.573  1.00  0.00     0.031 A 
HETATM    3  C5  UNL     1      26.173  -0.011  54.899  1.00  0.00     0.035 A 
HETATM    4  C6  UNL     1      26.789   0.840  54.030  1.00  0.00     0.072 A 
HETATM    5  N2  UNL     1      27.989   1.324  54.412  1.00  0.00    -0.241 NA
HETATM    6  C7  UNL     1      28.662   2.168  53.612  1.00  0.00     0.236 A 
HETATM    7  N3  UNL     1      28.147   2.532  52.437  1.00  0.00    -0.224 NA
HETATM    8  C8  UNL     1      26.966   2.096  51.990  1.00  0.00     0.142 A 
HETATM    9  C15 UNL     1      26.282   1.233  52.814  1.00  0.00     0.041 A 
HETATM   10  C16 UNL     1      25.054   0.671  52.541  1.00  0.00     0.046 A 
ENDROOT
BRANCH   8  11
HETATM   11  N4  UNL     1      26.391   2.451  50.771  1.00  0.00    -0.340 N 
HETATM   12  H8  UNL     1      25.949   1.771  50.154  1.00  0.00     0.167 HD
BRANCH  11  13
HETATM   13  C9  UNL     1      26.289   3.723  50.146  1.00  0.00     0.035 A 
HETATM   14  C10 UNL     1      27.154   4.228  49.169  1.00  0.00     0.029 A 
HETATM   15  C11 UNL     1      27.032   5.452  48.588  1.00  0.00     0.004 A 
HETATM   16  C12 UNL     1      26.008   6.294  48.948  1.00  0.00     0.019 A 
HETATM   17  C13 UNL     1      25.131   5.857  49.898  1.00  0.00     0.013 A 
HETATM   18 BR1  UNL     1      23.730   7.062  50.362  1.00  0.00    -0.051 Br
HETATM   19  C14 UNL     1      25.300   4.607  50.455  1.00  0.00     0.048 A 
ENDBRANCH  11  13
ENDBRANCH   8  11
BRANCH   1  20
HETATM   20  N1  UNL     1      23.105  -0.729  53.005  1.00  0.00    -0.384 N 
HETATM   21  H4  UNL     1      23.094  -1.593  52.384  1.00  0.00     0.160 HD
BRANCH  20  22
HETATM   22  C2  UNL     1      21.881  -0.140  53.448  1.00  0.00     0.189 C 
BRANCH  22  23
HETATM   23  C1  UNL     1      21.107  -0.980  54.400  1.00  0.00     0.250 C 
HETATM   24  O1  UNL     1      21.325  -1.908  55.146  1.00  0.00    -0.305 OA
ENDBRANCH  22  23
ENDBRANCH  20  22
ENDBRANCH   1  20
TORSDOF 5
ENDMDL
MODEL 2
REMARK VINA RESULT:      -7.7      2.545      4.258
REMARK  5 active torsions:
REMARK  status: ('A' for Active; 'I' for Inactive)
REMARK    1  A    between atoms: C1_2  and  C2_3 
REMARK    2  A    between atoms: C2_3  and  N1_4 
REMARK    3  A    between atoms: N1_4  and  C3_5 
REMARK    4  A    between atoms: C8_12  and  N4_13 
REMARK    5  A    between atoms: N4_13  and  C9_14 
ROOT
HETATM    1  C3  UNL     1      25.711   0.616  54.156  1.00  0.00     0.029 A 
HETATM    2  C4  UNL     1      24.911  -0.506  54.177  1.00  0.00     0.031 A 
HETATM    3  C5  UNL     1      23.786  -0.531  53.383  1.00  0.00     0.035 A 
HETATM    4  C6  UNL     1      23.491   0.547  52.601  1.00  0.00     0.072 A 
HETATM    5  N2  UNL     1      22.376   0.456  51.847  1.00  0.00    -0.241 NA
HETATM    6  C7  UNL     1      22.016   1.475  51.049  1.00  0.00     0.236 A 
HETATM    7  N3  UNL     1      22.759   2.581  50.998  1.00  0.00    -0.224 NA
HETATM    8  C8  UNL     1      23.876   2.745  51.713  1.00  0.00     0.142 A 
HETATM    9  C15 UNL     1      24.239   1.698  52.527  1.00  0.00     0.041 A 
HETATM   10  C16 UNL     1      25.350   1.666  53.341  1.00  0.00     0.046 A 
ENDROOT
BRANCH   8  11
HETATM   11  N4  UNL     1      24.682   3.882  51.688  1.00  0.00    -0.340 N 
HETATM   12  H8  UNL     1      24.799   4.490  52.498  1.00  0.00     0.167 HD
BRANCH  11  13
HETATM   13  C9  UNL     1      25.463   4.424  50.633  1.00  0.00     0.035 A 
HETATM   14  C10 UNL     1      26.501   3.769  49.961  1.00  0.00     0.029 A 
HETATM   15  C11 UNL     1      27.233   4.315  48.953  1.00  0.00     0.004 A 
HETATM   16  C12 UNL     1      26.982   5.596  48.524  1.00  0.00     0.019 A 
HETATM   17  C13 UNL     1      25.980   6.287  49.142  1.00  0.00     0.013 A 
HETATM   18 BR1  UNL     1      25.670   8.057  48.511  1.00  0.00    -0.051 Br
HETATM   19  C14 UNL     1      25.267   5.686  50.159  1.00  0.00     0.048 A 
ENDBRANCH  11  13
ENDBRANCH   8  11
BRANCH   1  20
HETATM   20  N1  UNL     1      26.878   0.669  54.968  1.00  0.00    -0.384 N 
HETATM   21  H4  UNL     1      26.781   1.078  55.945  1.00  0.00     0.160 HD
BRANCH  20  22
HETATM   22  C2  UNL     1      28.144   0.196  54.503  1.00  0.00     0.189 C 
BRANCH  22  23
HETATM   23  C1  UNL     1      29.158   1.263  54.298  1.00  0.00     0.250 C 
HETATM   24  O1  UNL     1      29.460   2.314  54.818  1.00  0.00    -0.305 OA
ENDBRANCH  22  23
ENDBRANCH  20  22
ENDBRANCH   1  20
TORSDOF 5
ENDMDL
MODEL 3
REMARK VINA RESULT:      -7.5      2.853      4.946
REMARK  5 active torsions:
REMARK  status: ('A' for Active; 'I' for Inactive)
REMARK    1  A    between atoms: C1_2  and  C2_3 
REMARK    2  A    between atoms: C2_3  and  N1_4 
REMARK    3  A    between atoms: N1_4  and  C3_5 
REMARK    4  A    between atoms: C8_12  and  N4_13 
REMARK    5  A    between atoms: N4_13  and  C9_14 
ROOT
HETATM    1  C3  UNL     1      25.165  -0.595  54.450  1.00  0.00     0.029 A 
HETATM    2  C4  UNL     1      24.643  -1.288  55.521  1.00  0.00     0.031 A 
HETATM    3  C5  UNL     1      23.279  -1.471  55.591  1.00  0.00     0.035 A 
HETATM    4  C6  UNL     1      22.483  -0.966  54.605  1.00  0.00     0.072 A 
HETATM    5  N2  UNL     1      21.158  -1.181  54.734  1.00  0.00    -0.241 NA
HETATM    6  C7  UNL     1      20.305  -0.716  53.805  1.00  0.00     0.236 A 
HETATM    7  N3  UNL     1      20.765  -0.040  52.752  1.00  0.00    -0.224 NA
HETATM    8  C8  UNL     1      22.062   0.212  52.555  1.00  0.00     0.142 A 
HETATM    9  C15 UNL     1      22.930  -0.267  53.509  1.00  0.00     0.041 A 
HETATM   10  C16 UNL     1      24.298  -0.115  53.493  1.00  0.00     0.046 A 
ENDROOT
BRANCH   8  11
HETATM   11  N4  UNL     1      22.585   0.913  51.469  1.00  0.00    -0.340 N 
HETATM   12  H8  UNL     1      22.696   0.494  50.547  1.00  0.00     0.167 HD
BRANCH  11  13
HETATM   13  C9  UNL     1      23.048   2.254  51.386  1.00  0.00     0.035 A 
HETATM   14  C10 UNL     1      22.462   3.363  52.005  1.00  0.00     0.029 A 
HETATM   15  C11 UNL     1      22.928   4.638  51.906  1.00  0.00     0.004 A 
HETATM   16  C12 UNL     1      24.047   4.914  51.159  1.00  0.00     0.019 A 
HETATM   17  C13 UNL     1      24.663   3.871  50.530  1.00  0.00     0.013 A 
HETATM   18 BR1  UNL     1      26.210   4.306  49.506  1.00  0.00    -0.051 Br
HETATM   19  C14 UNL     1      24.150   2.598  50.663  1.00  0.00     0.048 A 
ENDBRANCH  11  13
ENDBRANCH   8  11
BRANCH   1  20
HETATM   20  N1  UNL     1      26.569  -0.391  54.355  1.00  0.00    -0.384 N 
HETATM   21  H4  UNL     1      27.078  -0.049  55.224  1.00  0.00     0.160 HD
BRANCH  20  22
HETATM   22  C2  UNL     1      27.287  -0.630  53.142  1.00  0.00     0.189 C 
BRANCH  22  23
HETATM   23  C1  UNL     1      27.405  -2.065  52.773  1.00  0.00     0.250 C 
HETATM   24  O1  UNL     1      28.153  -2.986  53.016  1.00  0.00    -0.305 OA
ENDBRANCH  22  23
ENDBRANCH  20  22
ENDBRANCH   1  20
TORSDOF 5
ENDMDL
MODEL 4
REMARK VINA RESULT:      -7.5      2.546      4.431
REMARK  5 active torsions:
REMARK  status: ('A' for Active; 'I' for Inactive)
REMARK    1  A    between atoms: C1_2  and  C2_3 
REMARK    2  A    between atoms: C2_3  and  N1_4 
REMARK    3  A    between atoms: N1_4  and  C3_5 
REMARK    4  A    between atoms: C8_12  and  N4_13 
REMARK    5  A    between atoms: N4_13  and  C9_14 
ROOT
HETATM    1  C3  UNL     1      25.851  -0.061  54.428  1.00  0.00     0.029 A 
HETATM    2  C4  UNL     1      24.895  -0.878  54.990  1.00  0.00     0.031 A 
HETATM    3  C5  UNL     1      23.636  -0.907  54.430  1.00  0.00     0.035 A 
HETATM    4  C6  UNL     1      23.369  -0.132  53.340  1.00  0.00     0.072 A 
HETATM    5  N2  UNL     1      22.118  -0.208  52.841  1.00  0.00    -0.241 NA
HETATM    6  C7  UNL     1      21.773   0.524  51.769  1.00  0.00     0.236 A 
HETATM    7  N3  UNL     1      22.666   1.329  51.192  1.00  0.00    -0.224 NA
HETATM    8  C8  UNL     1      23.922   1.459  51.628  1.00  0.00     0.142 A 
HETATM    9  C15 UNL     1      24.269   0.706  52.725  1.00  0.00     0.041 A 
HETATM   10  C16 UNL     1      25.507   0.694  53.328  1.00  0.00     0.046 A 
ENDROOT
BRANCH   8  11
HETATM   11  N4  UNL     1      24.886   2.287  51.055  1.00  0.00    -0.340 N 
HETATM   12  H8  UNL     1      25.773   1.933  50.699  1.00  0.00     0.167 HD
BRANCH  11  13
HETATM   13  C9  UNL     1      24.874   3.692  50.846  1.00  0.00     0.035 A 
HETATM   14  C10 UNL     1      24.017   4.606  51.470  1.00  0.00     0.029 A 
HETATM   15  C11 UNL     1      24.029   5.948  51.249  1.00  0.00     0.004 A 
HETATM   16  C12 UNL     1      24.920   6.501  50.361  1.00  0.00     0.019 A 
HETATM   17  C13 UNL     1      25.782   5.658  49.721  1.00  0.00     0.013 A 
HETATM   18 BR1  UNL     1      26.998   6.473  48.501  1.00  0.00    -0.051 Br
HETATM   19  C14 UNL     1      25.730   4.305  49.981  1.00  0.00     0.048 A 
ENDBRANCH  11  13
ENDBRANCH   8  11
BRANCH   1  20
HETATM   20  N1  UNL     1      27.158  -0.010  54.987  1.00  0.00    -0.384 N 
HETATM   21  H4  UNL     1      27.239   0.046  56.047  1.00  0.00     0.160 HD
BRANCH  20  22
HETATM   22  C2  UNL     1      28.331  -0.033  54.171  1.00  0.00     0.189 C 
BRANCH  22  23
HETATM   23  C1  UNL     1      29.130   1.219  54.214  1.00  0.00     0.250 C 
HETATM   24  O1  UNL     1      29.249   2.173  54.950  1.00  0.00    -0.305 OA
ENDBRANCH  22  23
ENDBRANCH  20  22
ENDBRANCH   1  20
TORSDOF 5
ENDMDL
MODEL 5
REMARK VINA RESULT:      -7.3      2.871      5.005
REMARK  5 active torsions:
REMARK  status: ('A' for Active; 'I' for Inactive)
REMARK    1  A    between atoms: C1_2  and  C2_3 
REMARK    2  A    between atoms: C2_3  and  N1_4 
REMARK    3  A    between atoms: N1_4  and  C3_5 
REMARK    4  A    between atoms: C8_12  and  N4_13 
REMARK    5  A    between atoms: N4_13  and  C9_14 
ROOT
HETATM    1  C3  UNL     1      23.801  -0.743  54.304  1.00  0.00     0.029 A 
HETATM    2  C4  UNL     1      22.797  -1.297  55.067  1.00  0.00     0.031 A 
HETATM    3  C5  UNL     1      21.491  -1.138  54.658  1.00  0.00     0.035 A 
HETATM    4  C6  UNL     1      21.225  -0.443  53.516  1.00  0.00     0.072 A 
HETATM    5  N2  UNL     1      19.926  -0.326  53.172  1.00  0.00    -0.241 NA
HETATM    6  C7  UNL     1      19.579   0.345  52.060  1.00  0.00     0.236 A 
HETATM    7  N3  UNL     1      20.517   0.897  51.291  1.00  0.00    -0.224 NA
HETATM    8  C8  UNL     1      21.823   0.824  51.565  1.00  0.00     0.142 A 
HETATM    9  C15 UNL     1      22.171   0.136  52.704  1.00  0.00     0.041 A 
HETATM   10  C16 UNL     1      23.456  -0.054  53.162  1.00  0.00     0.046 A 
ENDROOT
BRANCH   8  11
HETATM   11  N4  UNL     1      22.836   1.385  50.789  1.00  0.00    -0.340 N 
HETATM   12  H8  UNL     1      23.349   0.853  50.086  1.00  0.00     0.167 HD
BRANCH  11  13
HETATM   13  C9  UNL     1      23.355   2.707  50.784  1.00  0.00     0.035 A 
HETATM   14  C10 UNL     1      22.789   3.813  51.428  1.00  0.00     0.029 A 
HETATM   15  C11 UNL     1      23.309   5.070  51.405  1.00  0.00     0.004 A 
HETATM   16  C12 UNL     1      24.469   5.331  50.716  1.00  0.00     0.019 A 
HETATM   17  C13 UNL     1      25.068   4.291  50.066  1.00  0.00     0.013 A 
HETATM   18 BR1  UNL     1      26.673   4.705  49.125  1.00  0.00    -0.051 Br
HETATM   19  C14 UNL     1      24.499   3.036  50.121  1.00  0.00     0.048 A 
ENDBRANCH  11  13
ENDBRANCH   8  11
BRANCH   1  20
HETATM   20  N1  UNL     1      25.158  -0.890  54.704  1.00  0.00    -0.384 N 
HETATM   21  H4  UNL     1      25.350  -1.380  55.629  1.00  0.00     0.160 HD
BRANCH  20  22
HETATM   22  C2  UNL     1      26.239  -0.404  53.905  1.00  0.00     0.189 C 
BRANCH  22  23
HETATM   23  C1  UNL     1      27.372   0.159  54.685  1.00  0.00     0.250 C 
HETATM   24  O1  UNL     1      28.448  -0.222  55.089  1.00  0.00    -0.305 OA
ENDBRANCH  22  23
ENDBRANCH  20  22
ENDBRANCH   1  20
TORSDOF 5
ENDMDL
MODEL 6
REMARK VINA RESULT:      -7.2      2.924      4.553
REMARK  5 active torsions:
REMARK  status: ('A' for Active; 'I' for Inactive)
REMARK    1  A    between atoms: C1_2  and  C2_3 
REMARK    2  A    between atoms: C2_3  and  N1_4 
REMARK    3  A    between atoms: N1_4  and  C3_5 
REMARK    4  A    between atoms: C8_12  and  N4_13 
REMARK    5  A    between atoms: N4_13  and  C9_14 
ROOT
HETATM    1  C3  UNL     1      26.893   1.525  53.060  1.00  0.00     0.029 A 
HETATM    2  C4  UNL     1      25.720   1.078  53.627  1.00  0.00     0.031 A 
HETATM    3  C5  UNL     1      24.535   1.304  52.961  1.00  0.00     0.035 A 
HETATM    4  C6  UNL     1      24.551   1.958  51.765  1.00  0.00     0.072 A 
HETATM    5  N2  UNL     1      23.357   2.145  51.166  1.00  0.00    -0.241 NA
HETATM    6  C7  UNL     1      23.287   2.781  49.985  1.00  0.00     0.236 A 
HETATM    7  N3  UNL     1      24.397   3.230  49.399  1.00  0.00    -0.224 NA
HETATM    8  C8  UNL     1      25.615   3.083  49.929  1.00  0.00     0.142 A 
HETATM    9  C15 UNL     1      25.679   2.431  51.138  1.00  0.00     0.041 A 
HETATM   10  C16 UNL     1      26.832   2.178  51.849  1.00  0.00     0.046 A 
ENDROOT
BRANCH   8  11
HETATM   11  N4  UNL     1      26.799   3.536  49.351  1.00  0.00    -0.340 N 
HETATM   12  H8  UNL     1      27.610   2.934  49.216  1.00  0.00     0.167 HD
BRANCH  11  13
HETATM   13  C9  UNL     1      27.138   4.823  48.854  1.00  0.00     0.035 A 
HETATM   14  C10 UNL     1      26.261   5.905  48.713  1.00  0.00     0.029 A 
HETATM   15  C11 UNL     1      26.615   7.127  48.232  1.00  0.00     0.004 A 
HETATM   16  C12 UNL     1      27.909   7.375  47.841  1.00  0.00     0.019 A 
HETATM   17  C13 UNL     1      28.811   6.356  47.955  1.00  0.00     0.013 A 
HETATM   18 BR1  UNL     1      30.591   6.750  47.400  1.00  0.00    -0.051 Br
HETATM   19  C14 UNL     1      28.401   5.136  48.449  1.00  0.00     0.048 A 
ENDBRANCH  11  13
ENDBRANCH   8  11
BRANCH   1  20
HETATM   20  N1  UNL     1      28.131   1.307  53.727  1.00  0.00    -0.384 N 
HETATM   21  H4  UNL     1      28.868   2.072  53.662  1.00  0.00     0.160 HD
BRANCH  20  22
HETATM   22  C2  UNL     1      28.393   0.109  54.462  1.00  0.00     0.189 C 
BRANCH  22  23
HETATM   23  C1  UNL     1      29.098  -0.944  53.685  1.00  0.00     0.250 C 
HETATM   24  O1  UNL     1      28.981  -2.133  53.491  1.00  0.00    -0.305 OA
ENDBRANCH  22  23
ENDBRANCH  20  22
ENDBRANCH   1  20
TORSDOF 5
ENDMDL
MODEL 7
REMARK VINA RESULT:      -7.0      3.150      5.283
REMARK  5 active torsions:
REMARK  status: ('A' for Active; 'I' for Inactive)
REMARK    1  A    between atoms: C1_2  and  C2_3 
REMARK    2  A    between atoms: C2_3  and  N1_4 
REMARK    3  A    between atoms: N1_4  and  C3_5 
REMARK    4  A    between atoms: C8_12  and  N4_13 
REMARK    5  A    between atoms: N4_13  and  C9_14 
ROOT
HETATM    1  C3  UNL     1      25.877   0.525  52.961  1.00  0.00     0.029 A 
HETATM    2  C4  UNL     1      26.047  -0.531  53.829  1.00  0.00     0.031 A 
HETATM    3  C5  UNL     1      24.938  -1.063  54.450  1.00  0.00     0.035 A 
HETATM    4  C6  UNL     1      23.707  -0.536  54.191  1.00  0.00     0.072 A 
HETATM    5  N2  UNL     1      22.664  -1.104  54.831  1.00  0.00    -0.241 NA
HETATM    6  C7  UNL     1      21.417  -0.644  54.631  1.00  0.00     0.236 A 
HETATM    7  N3  UNL     1      21.205   0.376  53.799  1.00  0.00    -0.224 NA
HETATM    8  C8  UNL     1      22.186   0.990  53.130  1.00  0.00     0.142 A 
HETATM    9  C15 UNL     1      23.459   0.513  53.339  1.00  0.00     0.041 A 
HETATM   10  C16 UNL     1      24.603   1.004  52.749  1.00  0.00     0.046 A 
ENDROOT
BRANCH   8  11
HETATM   11  N4  UNL     1      22.008   2.057  52.252  1.00  0.00    -0.340 N 
HETATM   12  H8  UNL     1      21.897   3.019  52.571  1.00  0.00     0.167 HD
BRANCH  11  13
HETATM   13  C9  UNL     1      21.945   2.071  50.832  1.00  0.00     0.035 A 
HETATM   14  C10 UNL     1      21.602   0.986  50.017  1.00  0.00     0.029 A 
HETATM   15  C11 UNL     1      21.551   1.029  48.658  1.00  0.00     0.004 A 
HETATM   16  C12 UNL     1      21.848   2.189  47.985  1.00  0.00     0.019 A 
HETATM   17  C13 UNL     1      22.191   3.282  48.728  1.00  0.00     0.013 A 
HETATM   18 BR1  UNL     1      22.594   4.866  47.749  1.00  0.00    -0.051 Br
HETATM   19  C14 UNL     1      22.227   3.186  50.103  1.00  0.00     0.048 A 
ENDBRANCH  11  13
ENDBRANCH   8  11
BRANCH   1  20
HETATM   20  N1  UNL     1      27.005   1.094  52.308  1.00  0.00    -0.384 N 
HETATM   21  H4  UNL     1      27.344   0.629  51.413  1.00  0.00     0.160 HD
BRANCH  20  22
HETATM   22  C2  UNL     1      27.673   2.248  52.821  1.00  0.00     0.189 C 
BRANCH  22  23
HETATM   23  C1  UNL     1      28.813   1.944  53.726  1.00  0.00     0.250 C 
HETATM   24  O1  UNL     1      28.971   1.669  54.895  1.00  0.00    -0.305 OA
ENDBRANCH  22  23
ENDBRANCH  20  22
ENDBRANCH   1  20
TORSDOF 5
ENDMDL
MODEL 8
REMARK VINA RESULT:      -7.0      2.198      3.058
REMARK  5 active torsions:
REMARK  status: ('A' for Active; 'I' for Inactive)
REMARK    1  A    between atoms: C1_2  and  C2_3 
REMARK    2  A    between atoms: C2_3  and  N1_4 
REMARK    3  A    between atoms: N1_4  and  C3_5 
REMARK    4  A    between atoms: C8_12  and  N4_13 
REMARK    5  A    between atoms: N4_13  and  C9_14 
ROOT
HETATM    1  C3  UNL     1      21.743  -0.570  53.820  1.00  0.00     0.029 A 
HETATM    2  C4  UNL     1      22.110  -1.300  54.930  1.00  0.00     0.031 A 
HETATM    3  C5  UNL     1      23.442  -1.347  55.280  1.00  0.00     0.035 A 
HETATM    4  C6  UNL     1      24.358  -0.674  54.526  1.00  0.00     0.072 A 
HETATM    5  N2  UNL     1      25.644  -0.761  54.925  1.00  0.00    -0.241 NA
HETATM    6  C7  UNL     1      26.608  -0.127  54.236  1.00  0.00     0.236 A 
HETATM    7  N3  UNL     1      26.299   0.591  53.156  1.00  0.00    -0.224 NA
HETATM    8  C8  UNL     1      25.050   0.724  52.700  1.00  0.00     0.142 A 
HETATM    9  C15 UNL     1      24.068   0.073  53.410  1.00  0.00     0.041 A 
HETATM   10  C16 UNL     1      22.724   0.083  53.108  1.00  0.00     0.046 A 
ENDROOT
BRANCH   8  11
HETATM   11  N4  UNL     1      24.683   1.464  51.578  1.00  0.00    -0.340 N 
HETATM   12  H8  UNL     1      24.488   1.033  50.675  1.00  0.00     0.167 HD
BRANCH  11  13
HETATM   13  C9  UNL     1      24.507   2.866  51.426  1.00  0.00     0.035 A 
HETATM   14  C10 UNL     1      23.643   3.670  52.177  1.00  0.00     0.029 A 
HETATM   15  C11 UNL     1      23.494   5.011  52.009  1.00  0.00     0.004 A 
HETATM   16  C12 UNL     1      24.218   5.677  51.048  1.00  0.00     0.019 A 
HETATM   17  C13 UNL     1      25.079   4.945  50.282  1.00  0.00     0.013 A 
HETATM   18 BR1  UNL     1      26.057   5.914  48.966  1.00  0.00    -0.051 Br
HETATM   19  C14 UNL     1      25.191   3.587  50.495  1.00  0.00     0.048 A 
ENDBRANCH  11  13
ENDBRANCH   8  11
BRANCH   1  20
HETATM   20  N1  UNL     1      20.375  -0.507  53.435  1.00  0.00    -0.384 N 
HETATM   21  H4  UNL     1      19.665  -1.008  54.049  1.00  0.00     0.160 HD
BRANCH  20  22
HETATM   22  C2  UNL     1      19.950   0.199  52.267  1.00  0.00     0.189 C 
BRANCH  22  23
HETATM   23  C1  UNL     1      18.540  -0.060  51.874  1.00  0.00     0.250 C 
HETATM   24  O1  UNL     1      17.734  -0.956  51.995  1.00  0.00    -0.305 OA
ENDBRANCH  22  23
ENDBRANCH  20  22
ENDBRANCH   1  20
TORSDOF 5
ENDMDL
MODEL 9
REMARK VINA RESULT:      -6.9      3.152      6.441
REMARK  5 active torsions:
REMARK  status: ('A' for Active; 'I' for Inactive)
REMARK    1  A    between atoms: C1_2  and  C2_3 
REMARK    2  A    between atoms: C2_3  and  N1_4 
REMARK    3  A    between atoms: N1_4  and  C3_5 
REMARK    4  A    between atoms: C8_12  and  N4_13 
REMARK    5  A    between atoms: N4_13  and  C9_14 
ROOT
HETATM    1  C3  UNL     1      26.747   2.268  52.155  1.00  0.00     0.029 A 
HETATM    2  C4  UNL     1      27.717   2.015  53.100  1.00  0.00     0.031 A 
HETATM    3  C5  UNL     1      27.445   1.109  54.102  1.00  0.00     0.035 A 
HETATM    4  C6  UNL     1      26.231   0.489  54.135  1.00  0.00     0.072 A 
HETATM    5  N2  UNL     1      26.030  -0.387  55.141  1.00  0.00    -0.241 NA
HETATM    6  C7  UNL     1      24.860  -1.040  55.245  1.00  0.00     0.236 A 
HETATM    7  N3  UNL     1      23.893  -0.826  54.353  1.00  0.00    -0.224 NA
HETATM    8  C8  UNL     1      24.016   0.024  53.329  1.00  0.00     0.142 A 
HETATM    9  C15 UNL     1      25.216   0.688  53.229  1.00  0.00     0.041 A 
HETATM   10  C16 UNL     1      25.544   1.602  52.253  1.00  0.00     0.046 A 
ENDROOT
BRANCH   8  11
HETATM   11  N4  UNL     1      23.032   0.276  52.375  1.00  0.00    -0.340 N 
HETATM   12  H8  UNL     1      23.244   0.661  51.455  1.00  0.00     0.167 HD
BRANCH  11  13
HETATM   13  C9  UNL     1      21.627   0.079  52.440  1.00  0.00     0.035 A 
HETATM   14  C10 UNL     1      20.935  -0.557  53.477  1.00  0.00     0.029 A 
HETATM   15  C11 UNL     1      19.586  -0.732  53.511  1.00  0.00     0.004 A 
HETATM   16  C12 UNL     1      18.798  -0.274  52.483  1.00  0.00     0.019 A 
HETATM   17  C13 UNL     1      19.417   0.355  51.442  1.00  0.00     0.013 A 
HETATM   18 BR1  UNL     1      18.280   0.971  50.042  1.00  0.00    -0.051 Br
HETATM   19  C14 UNL     1      20.787   0.507  51.456  1.00  0.00     0.048 A 
ENDBRANCH  11  13
ENDBRANCH   8  11
BRANCH   1  20
HETATM   20  N1  UNL     1      27.001   3.200  51.111  1.00  0.00    -0.384 N 
HETATM   21  H4  UNL     1      27.936   3.707  51.119  1.00  0.00     0.160 HD
BRANCH  20  22
HETATM   22  C2  UNL     1      26.046   3.458  50.080  1.00  0.00     0.189 C 
BRANCH  22  23
HETATM   23  C1  UNL     1      25.950   4.886  49.678  1.00  0.00     0.250 C 
HETATM   24  O1  UNL     1      25.352   5.874  50.043  1.00  0.00    -0.305 OA
ENDBRANCH  22  23
ENDBRANCH  20  22
ENDBRANCH   1  20
TORSDOF 5
ENDMDL
