MODEL 1
REMARK VINA RESULT:      -8.3      0.000      0.000
REMARK  4 active torsions:
REMARK  status: ('A' for Active; 'I' for Inactive)
REMARK    1  A    between atoms: C2_2  and  C3_3 
REMARK    2  A    between atoms: C4_4  and  C5_5 
REMARK       I    between atoms: C5_5  and  N1_7 
REMARK    3  A    between atoms: C10_14  and  N4_15 
REMARK    4  A    between atoms: N4_15  and  C11_16 
ROOT
HETATM    1  C5  UNL     1      26.266   0.154  54.500  1.00  0.00     0.263 C 
HETATM    2  O1  UNL     1      26.109  -0.623  55.465  1.00  0.00    -0.267 OA
HETATM    3  N1  UNL     1      25.250   0.504  53.571  1.00  0.00    -0.231 N 
HETATM    4  C6  UNL     1      25.601   1.414  52.510  1.00  0.00     0.199 A 
HETATM    5  C7  UNL     1      24.467   1.700  51.598  1.00  0.00     0.038 A 
HETATM    6  C8  UNL     1      23.265   1.093  51.870  1.00  0.00     0.089 A 
HETATM    7  N2  UNL     1      22.210   1.342  51.047  1.00  0.00    -0.240 NA
HETATM    8  C9  UNL     1      22.406   2.188  49.991  1.00  0.00     0.236 A 
HETATM    9  N3  UNL     1      23.588   2.752  49.770  1.00  0.00    -0.224 NA
HETATM   10  C10 UNL     1      24.663   2.550  50.535  1.00  0.00     0.139 A 
HETATM   11  C17 UNL     1      23.039   0.203  52.970  1.00  0.00     0.171 A 
HETATM   12  N5  UNL     1      24.002  -0.074  53.782  1.00  0.00    -0.179 NA
ENDROOT
BRANCH  10  13
HETATM   13  N4  UNL     1      25.936   3.131  50.324  1.00  0.00    -0.340 N 
HETATM   14  H9  UNL     1      26.778   2.556  50.613  1.00  0.00     0.167 HD
BRANCH  13  15
HETATM   15  C11 UNL     1      26.249   4.398  49.772  1.00  0.00     0.035 A 
HETATM   16  C12 UNL     1      27.281   4.658  48.900  1.00  0.00     0.029 A 
HETATM   17  C13 UNL     1      27.580   5.888  48.372  1.00  0.00     0.004 A 
HETATM   18  C14 UNL     1      26.804   6.969  48.723  1.00  0.00     0.019 A 
HETATM   19  C15 UNL     1      25.758   6.757  49.594  1.00  0.00     0.013 A 
HETATM   20 BR1  UNL     1      24.667   8.238  50.097  1.00  0.00    -0.051 Br
HETATM   21  C16 UNL     1      25.510   5.509  50.086  1.00  0.00     0.048 A 
ENDBRANCH  13  15
ENDBRANCH  10  13
BRANCH   1  22
HETATM   22  C4  UNL     1      27.625   0.670  54.437  1.00  0.00     0.075 C 
HETATM   23  C3  UNL     1      28.543  -0.049  53.817  1.00  0.00     0.002 C 
BRANCH  23  24
HETATM   24  C2  UNL     1      28.307  -1.328  53.180  1.00  0.00    -0.026 C 
HETATM   25  C1  UNL     1      29.063  -2.392  53.143  1.00  0.00     0.031 C 
ENDBRANCH  23  24
ENDBRANCH   1  22
TORSDOF 4
ENDMDL
MODEL 2
REMARK VINA RESULT:      -8.2      3.258      5.811
REMARK  4 active torsions:
REMARK  status: ('A' for Active; 'I' for Inactive)
REMARK    1  A    between atoms: C2_2  and  C3_3 
REMARK    2  A    between atoms: C4_4  and  C5_5 
REMARK       I    between atoms: C5_5  and  N1_7 
REMARK    3  A    between atoms: C10_14  and  N4_15 
REMARK    4  A    between atoms: N4_15  and  C11_16 
ROOT
HETATM    1  C5  UNL     1      27.433   2.165  52.864  1.00  0.00     0.263 C 
HETATM    2  O1  UNL     1      28.665   2.220  52.659  1.00  0.00    -0.267 OA
HETATM    3  N1  UNL     1      26.440   2.496  51.904  1.00  0.00    -0.231 N 
HETATM    4  C6  UNL     1      25.061   2.381  52.305  1.00  0.00     0.199 A 
HETATM    5  C7  UNL     1      24.114   2.759  51.227  1.00  0.00     0.038 A 
HETATM    6  C8  UNL     1      24.647   3.148  50.022  1.00  0.00     0.089 A 
HETATM    7  N2  UNL     1      23.797   3.497  49.018  1.00  0.00    -0.240 NA
HETATM    8  C9  UNL     1      22.454   3.440  49.265  1.00  0.00     0.236 A 
HETATM    9  N3  UNL     1      21.987   3.056  50.449  1.00  0.00    -0.224 NA
HETATM   10  C10 UNL     1      22.762   2.702  51.475  1.00  0.00     0.139 A 
HETATM   11  C17 UNL     1      26.050   3.216  49.743  1.00  0.00     0.171 A 
HETATM   12  N5  UNL     1      26.905   2.900  50.656  1.00  0.00    -0.179 NA
ENDROOT
BRANCH  10  13
HETATM   13  N4  UNL     1      22.297   2.294  52.748  1.00  0.00    -0.340 N 
HETATM   14  H9  UNL     1      22.247   3.038  53.500  1.00  0.00     0.167 HD
BRANCH  13  15
HETATM   15  C11 UNL     1      21.882   1.004  53.165  1.00  0.00     0.035 A 
HETATM   16  C12 UNL     1      22.693   0.048  53.731  1.00  0.00     0.029 A 
HETATM   17  C13 UNL     1      22.286  -1.200  54.130  1.00  0.00     0.004 A 
HETATM   18  C14 UNL     1      20.967  -1.554  53.961  1.00  0.00     0.019 A 
HETATM   19  C15 UNL     1      20.117  -0.628  53.397  1.00  0.00     0.013 A 
HETATM   20 BR1  UNL     1      18.284  -1.093  53.152  1.00  0.00    -0.051 Br
HETATM   21  C16 UNL     1      20.581   0.598  53.021  1.00  0.00     0.048 A 
ENDBRANCH  13  15
ENDBRANCH  10  13
BRANCH   1  22
HETATM   22  C4  UNL     1      27.129   1.716  54.214  1.00  0.00     0.075 C 
HETATM   23  C3  UNL     1      27.045   0.417  54.442  1.00  0.00     0.002 C 
BRANCH  23  24
HETATM   24  C2  UNL     1      27.237  -0.616  53.445  1.00  0.00    -0.026 C 
HETATM   25  C1  UNL     1      26.354  -1.244  52.716  1.00  0.00     0.031 C 
ENDBRANCH  23  24
ENDBRANCH   1  22
TORSDOF 4
ENDMDL
MODEL 3
REMARK VINA RESULT:      -8.2      1.747      2.064
REMARK  4 active torsions:
REMARK  status: ('A' for Active; 'I' for Inactive)
REMARK    1  A    between atoms: C2_2  and  C3_3 
REMARK    2  A    between atoms: C4_4  and  C5_5 
REMARK       I    between atoms: C5_5  and  N1_7 
REMARK    3  A    between atoms: C10_14  and  N4_15 
REMARK    4  A    between atoms: N4_15  and  C11_16 
ROOT
HETATM    1  C5  UNL     1      26.886   1.490  54.011  1.00  0.00     0.263 C 
HETATM    2  O1  UNL     1      26.738   0.947  55.126  1.00  0.00    -0.267 OA
HETATM    3  N1  UNL     1      25.838   1.723  53.081  1.00  0.00    -0.231 N 
HETATM    4  C6  UNL     1      26.181   2.358  51.834  1.00  0.00     0.199 A 
HETATM    5  C7  UNL     1      25.012   2.544  50.940  1.00  0.00     0.038 A 
HETATM    6  C8  UNL     1      23.791   2.112  51.395  1.00  0.00     0.089 A 
HETATM    7  N2  UNL     1      22.703   2.273  50.593  1.00  0.00    -0.240 NA
HETATM    8  C9  UNL     1      22.888   2.860  49.373  1.00  0.00     0.236 A 
HETATM    9  N3  UNL     1      24.091   3.262  48.977  1.00  0.00    -0.224 NA
HETATM   10  C10 UNL     1      25.198   3.134  49.711  1.00  0.00     0.139 A 
HETATM   11  C17 UNL     1      23.575   1.494  52.670  1.00  0.00     0.171 A 
HETATM   12  N5  UNL     1      24.568   1.311  53.473  1.00  0.00    -0.179 NA
ENDROOT
BRANCH  10  13
HETATM   13  N4  UNL     1      26.492   3.547  49.317  1.00  0.00    -0.340 N 
HETATM   14  H9  UNL     1      27.251   2.807  49.316  1.00  0.00     0.167 HD
BRANCH  13  15
HETATM   15  C11 UNL     1      26.925   4.836  48.918  1.00  0.00     0.035 A 
HETATM   16  C12 UNL     1      26.139   5.965  48.876  1.00  0.00     0.029 A 
HETATM   17  C13 UNL     1      26.564   7.210  48.485  1.00  0.00     0.004 A 
HETATM   18  C14 UNL     1      27.874   7.374  48.097  1.00  0.00     0.019 A 
HETATM   19  C15 UNL     1      28.698   6.271  48.123  1.00  0.00     0.013 A 
HETATM   20 BR1  UNL     1      30.519   6.471  47.592  1.00  0.00    -0.051 Br
HETATM   21  C16 UNL     1      28.218   5.058  48.522  1.00  0.00     0.048 A 
ENDBRANCH  13  15
ENDBRANCH  10  13
BRANCH   1  22
HETATM   22  C4  UNL     1      28.271   1.863  53.770  1.00  0.00     0.075 C 
HETATM   23  C3  UNL     1      29.142   0.908  53.496  1.00  0.00     0.002 C 
BRANCH  23  24
HETATM   24  C2  UNL     1      28.829  -0.503  53.409  1.00  0.00    -0.026 C 
HETATM   25  C1  UNL     1      29.626  -1.537  53.446  1.00  0.00     0.031 C 
ENDBRANCH  23  24
ENDBRANCH   1  22
TORSDOF 4
ENDMDL
MODEL 4
REMARK VINA RESULT:      -8.0      2.731      4.108
REMARK  4 active torsions:
REMARK  status: ('A' for Active; 'I' for Inactive)
REMARK    1  A    between atoms: C2_2  and  C3_3 
REMARK    2  A    between atoms: C4_4  and  C5_5 
REMARK       I    between atoms: C5_5  and  N1_7 
REMARK    3  A    between atoms: C10_14  and  N4_15 
REMARK    4  A    between atoms: N4_15  and  C11_16 
ROOT
HETATM    1  C5  UNL     1      25.014  -0.567  53.801  1.00  0.00     0.263 C 
HETATM    2  O1  UNL     1      25.636  -0.978  54.803  1.00  0.00    -0.267 OA
HETATM    3  N1  UNL     1      23.599  -0.558  53.678  1.00  0.00    -0.231 N 
HETATM    4  C6  UNL     1      23.039  -0.053  52.449  1.00  0.00     0.199 A 
HETATM    5  C7  UNL     1      21.557  -0.098  52.430  1.00  0.00     0.038 A 
HETATM    6  C8  UNL     1      20.922  -0.588  53.545  1.00  0.00     0.089 A 
HETATM    7  N2  UNL     1      19.562  -0.637  53.550  1.00  0.00    -0.240 NA
HETATM    8  C9  UNL     1      18.900  -0.193  52.440  1.00  0.00     0.236 A 
HETATM    9  N3  UNL     1      19.560   0.274  51.384  1.00  0.00    -0.224 NA
HETATM   10  C10 UNL     1      20.890   0.349  51.313  1.00  0.00     0.139 A 
HETATM   11  C17 UNL     1      21.597  -1.060  54.717  1.00  0.00     0.171 A 
HETATM   12  N5  UNL     1      22.885  -1.041  54.770  1.00  0.00    -0.179 NA
ENDROOT
BRANCH  10  13
HETATM   13  N4  UNL     1      21.622   0.835  50.204  1.00  0.00    -0.340 N 
HETATM   14  H9  UNL     1      21.823   0.147  49.424  1.00  0.00     0.167 HD
BRANCH  13  15
HETATM   15  C11 UNL     1      22.134   2.139  49.986  1.00  0.00     0.035 A 
HETATM   16  C12 UNL     1      21.378   3.272  49.795  1.00  0.00     0.029 A 
HETATM   17  C13 UNL     1      21.880   4.532  49.582  1.00  0.00     0.004 A 
HETATM   18  C14 UNL     1      23.245   4.707  49.550  1.00  0.00     0.019 A 
HETATM   19  C15 UNL     1      24.042   3.599  49.737  1.00  0.00     0.013 A 
HETATM   20 BR1  UNL     1      25.937   3.813  49.699  1.00  0.00    -0.051 Br
HETATM   21  C16 UNL     1      23.484   2.372  49.945  1.00  0.00     0.048 A 
ENDBRANCH  13  15
ENDBRANCH  10  13
BRANCH   1  22
HETATM   22  C4  UNL     1      25.914  -0.092  52.762  1.00  0.00     0.075 C 
HETATM   23  C3  UNL     1      26.172   1.202  52.696  1.00  0.00     0.002 C 
BRANCH  23  24
HETATM   24  C2  UNL     1      25.629   2.205  53.588  1.00  0.00    -0.026 C 
HETATM   25  C1  UNL     1      24.663   3.061  53.388  1.00  0.00     0.031 C 
ENDBRANCH  23  24
ENDBRANCH   1  22
TORSDOF 4
ENDMDL
MODEL 5
REMARK VINA RESULT:      -8.0      2.134      3.269
REMARK  4 active torsions:
REMARK  status: ('A' for Active; 'I' for Inactive)
REMARK    1  A    between atoms: C2_2  and  C3_3 
REMARK    2  A    between atoms: C4_4  and  C5_5 
REMARK       I    between atoms: C5_5  and  N1_7 
REMARK    3  A    between atoms: C10_14  and  N4_15 
REMARK    4  A    between atoms: N4_15  and  C11_16 
ROOT
HETATM    1  C5  UNL     1      25.427  -0.318  54.456  1.00  0.00     0.263 C 
HETATM    2  O1  UNL     1      25.956  -0.845  55.458  1.00  0.00    -0.267 OA
HETATM    3  N1  UNL     1      24.042  -0.382  54.148  1.00  0.00    -0.231 N 
HETATM    4  C6  UNL     1      23.595   0.279  52.948  1.00  0.00     0.199 A 
HETATM    5  C7  UNL     1      22.135   0.139  52.722  1.00  0.00     0.038 A 
HETATM    6  C8  UNL     1      21.415  -0.568  53.653  1.00  0.00     0.089 A 
HETATM    7  N2  UNL     1      20.074  -0.708  53.469  1.00  0.00    -0.240 NA
HETATM    8  C9  UNL     1      19.516  -0.132  52.361  1.00  0.00     0.236 A 
HETATM    9  N3  UNL     1      20.256   0.543  51.488  1.00  0.00    -0.224 NA
HETATM   10  C10 UNL     1      21.574   0.717  51.608  1.00  0.00     0.139 A 
HETATM   11  C17 UNL     1      21.980  -1.180  54.819  1.00  0.00     0.171 A 
HETATM   12  N5  UNL     1      23.246  -1.084  55.047  1.00  0.00    -0.179 NA
ENDROOT
BRANCH  10  13
HETATM   13  N4  UNL     1      22.390   1.426  50.695  1.00  0.00    -0.340 N 
HETATM   14  H9  UNL     1      22.650   0.927  49.798  1.00  0.00     0.167 HD
BRANCH  13  15
HETATM   15  C11 UNL     1      22.919   2.735  50.816  1.00  0.00     0.035 A 
HETATM   16  C12 UNL     1      22.368   3.755  51.558  1.00  0.00     0.029 A 
HETATM   17  C13 UNL     1      22.885   5.021  51.669  1.00  0.00     0.004 A 
HETATM   18  C14 UNL     1      24.045   5.328  50.994  1.00  0.00     0.019 A 
HETATM   19  C15 UNL     1      24.632   4.337  50.238  1.00  0.00     0.013 A 
HETATM   20 BR1  UNL     1      26.241   4.735  49.294  1.00  0.00    -0.051 Br
HETATM   21  C16 UNL     1      24.072   3.096  50.168  1.00  0.00     0.048 A 
ENDBRANCH  13  15
ENDBRANCH  10  13
BRANCH   1  22
HETATM   22  C4  UNL     1      26.403   0.380  53.633  1.00  0.00     0.075 C 
HETATM   23  C3  UNL     1      27.093  -0.317  52.747  1.00  0.00     0.002 C 
BRANCH  23  24
HETATM   24  C2  UNL     1      26.956  -1.740  52.520  1.00  0.00    -0.026 C 
HETATM   25  C1  UNL     1      27.810  -2.704  52.738  1.00  0.00     0.031 C 
ENDBRANCH  23  24
ENDBRANCH   1  22
TORSDOF 4
ENDMDL
MODEL 6
REMARK VINA RESULT:      -8.0      4.386      6.797
REMARK  4 active torsions:
REMARK  status: ('A' for Active; 'I' for Inactive)
REMARK    1  A    between atoms: C2_2  and  C3_3 
REMARK    2  A    between atoms: C4_4  and  C5_5 
REMARK       I    between atoms: C5_5  and  N1_7 
REMARK    3  A    between atoms: C10_14  and  N4_15 
REMARK    4  A    between atoms: N4_15  and  C11_16 
ROOT
HETATM    1  C5  UNL     1      20.136   1.003  50.404  1.00  0.00     0.263 C 
HETATM    2  O1  UNL     1      18.938   1.062  50.056  1.00  0.00    -0.267 OA
HETATM    3  N1  UNL     1      20.599   0.403  51.605  1.00  0.00    -0.231 N 
HETATM    4  C6  UNL     1      22.018   0.423  51.858  1.00  0.00     0.199 A 
HETATM    5  C7  UNL     1      22.384  -0.223  53.142  1.00  0.00     0.038 A 
HETATM    6  C8  UNL     1      21.367  -0.749  53.900  1.00  0.00     0.089 A 
HETATM    7  N2  UNL     1      21.680  -1.348  55.081  1.00  0.00    -0.240 NA
HETATM    8  C9  UNL     1      22.996  -1.394  55.448  1.00  0.00     0.236 A 
HETATM    9  N3  UNL     1      23.945  -0.870  54.680  1.00  0.00    -0.224 NA
HETATM   10  C10 UNL     1      23.708  -0.269  53.512  1.00  0.00     0.139 A 
HETATM   11  C17 UNL     1      19.982  -0.710  53.534  1.00  0.00     0.171 A 
HETATM   12  N5  UNL     1      19.624  -0.153  52.427  1.00  0.00    -0.179 NA
ENDROOT
BRANCH  10  13
HETATM   13  N4  UNL     1      24.694   0.302  52.673  1.00  0.00    -0.340 N 
HETATM   14  H9  UNL     1      24.415   0.494  51.669  1.00  0.00     0.167 HD
BRANCH  13  15
HETATM   15  C11 UNL     1      26.028   0.659  52.993  1.00  0.00     0.035 A 
HETATM   16  C12 UNL     1      26.473   1.935  53.251  1.00  0.00     0.029 A 
HETATM   17  C13 UNL     1      27.768   2.274  53.558  1.00  0.00     0.004 A 
HETATM   18  C14 UNL     1      28.719   1.281  53.617  1.00  0.00     0.019 A 
HETATM   19  C15 UNL     1      28.318  -0.013  53.366  1.00  0.00     0.013 A 
HETATM   20 BR1  UNL     1      29.615  -1.408  53.442  1.00  0.00    -0.051 Br
HETATM   21  C16 UNL     1      27.016  -0.288  53.067  1.00  0.00     0.048 A 
ENDBRANCH  13  15
ENDBRANCH  10  13
BRANCH   1  22
HETATM   22  C4  UNL     1      21.015   1.623  49.425  1.00  0.00     0.075 C 
HETATM   23  C3  UNL     1      21.267   2.916  49.534  1.00  0.00     0.002 C 
BRANCH  23  24
HETATM   24  C2  UNL     1      20.735   3.782  50.566  1.00  0.00    -0.026 C 
HETATM   25  C1  UNL     1      21.363   4.462  51.488  1.00  0.00     0.031 C 
ENDBRANCH  23  24
ENDBRANCH   1  22
TORSDOF 4
ENDMDL
MODEL 7
REMARK VINA RESULT:      -8.0      2.182      4.503
REMARK  4 active torsions:
REMARK  status: ('A' for Active; 'I' for Inactive)
REMARK    1  A    between atoms: C2_2  and  C3_3 
REMARK    2  A    between atoms: C4_4  and  C5_5 
REMARK       I    between atoms: C5_5  and  N1_7 
REMARK    3  A    between atoms: C10_14  and  N4_15 
REMARK    4  A    between atoms: N4_15  and  C11_16 
ROOT
HETATM    1  C5  UNL     1      23.002  -0.660  53.154  1.00  0.00     0.263 C 
HETATM    2  O1  UNL     1      22.324  -1.337  53.956  1.00  0.00    -0.267 OA
HETATM    3  N1  UNL     1      24.275  -0.101  53.445  1.00  0.00    -0.231 N 
HETATM    4  C6  UNL     1      24.923   0.660  52.407  1.00  0.00     0.199 A 
HETATM    5  C7  UNL     1      26.240   1.200  52.824  1.00  0.00     0.038 A 
HETATM    6  C8  UNL     1      26.669   0.913  54.096  1.00  0.00     0.089 A 
HETATM    7  N2  UNL     1      27.875   1.397  54.500  1.00  0.00    -0.240 NA
HETATM    8  C9  UNL     1      28.596   2.145  53.612  1.00  0.00     0.236 A 
HETATM    9  N3  UNL     1      28.138   2.395  52.390  1.00  0.00    -0.224 NA
HETATM   10  C10 UNL     1      26.966   1.953  51.930  1.00  0.00     0.139 A 
HETATM   11  C17 UNL     1      25.928   0.133  55.043  1.00  0.00     0.171 A 
HETATM   12  N5  UNL     1      24.777  -0.350  54.719  1.00  0.00    -0.179 NA
ENDROOT
BRANCH  10  13
HETATM   13  N4  UNL     1      26.447   2.205  50.638  1.00  0.00    -0.340 N 
HETATM   14  H9  UNL     1      26.328   1.369  49.999  1.00  0.00     0.167 HD
BRANCH  13  15
HETATM   15  C11 UNL     1      26.060   3.443  50.068  1.00  0.00     0.035 A 
HETATM   16  C12 UNL     1      24.778   3.943  50.039  1.00  0.00     0.029 A 
HETATM   17  C13 UNL     1      24.409   5.142  49.482  1.00  0.00     0.004 A 
HETATM   18  C14 UNL     1      25.375   5.929  48.897  1.00  0.00     0.019 A 
HETATM   19  C15 UNL     1      26.673   5.469  48.903  1.00  0.00     0.013 A 
HETATM   20 BR1  UNL     1      28.031   6.540  48.100  1.00  0.00    -0.051 Br
HETATM   21  C16 UNL     1      26.979   4.268  49.473  1.00  0.00     0.048 A 
ENDBRANCH  13  15
ENDBRANCH  10  13
BRANCH   1  22
HETATM   22  C4  UNL     1      22.331  -0.508  51.873  1.00  0.00     0.075 C 
HETATM   23  C3  UNL     1      21.551   0.543  51.691  1.00  0.00     0.002 C 
BRANCH  23  24
HETATM   24  C2  UNL     1      21.304   1.576  52.676  1.00  0.00    -0.026 C 
HETATM   25  C1  UNL     1      21.216   2.869  52.521  1.00  0.00     0.031 C 
ENDBRANCH  23  24
ENDBRANCH   1  22
TORSDOF 4
ENDMDL
MODEL 8
REMARK VINA RESULT:      -7.8      3.077      6.864
REMARK  4 active torsions:
REMARK  status: ('A' for Active; 'I' for Inactive)
REMARK    1  A    between atoms: C2_2  and  C3_3 
REMARK    2  A    between atoms: C4_4  and  C5_5 
REMARK       I    between atoms: C5_5  and  N1_7 
REMARK    3  A    between atoms: C10_14  and  N4_15 
REMARK    4  A    between atoms: N4_15  and  C11_16 
ROOT
HETATM    1  C5  UNL     1      26.458   3.130  50.269  1.00  0.00     0.263 C 
HETATM    2  O1  UNL     1      27.163   4.027  49.759  1.00  0.00    -0.267 OA
HETATM    3  N1  UNL     1      26.762   2.457  51.482  1.00  0.00    -0.231 N 
HETATM    4  C6  UNL     1      25.843   1.442  51.930  1.00  0.00     0.199 A 
HETATM    5  C7  UNL     1      26.265   0.802  53.201  1.00  0.00     0.038 A 
HETATM    6  C8  UNL     1      27.430   1.244  53.777  1.00  0.00     0.089 A 
HETATM    7  N2  UNL     1      27.836   0.672  54.944  1.00  0.00    -0.240 NA
HETATM    8  C9  UNL     1      27.056  -0.314  55.480  1.00  0.00     0.236 A 
HETATM    9  N3  UNL     1      25.935  -0.707  54.884  1.00  0.00    -0.224 NA
HETATM   10  C10 UNL     1      25.480  -0.191  53.740  1.00  0.00     0.139 A 
HETATM   11  C17 UNL     1      28.262   2.274  53.231  1.00  0.00     0.171 A 
HETATM   12  N5  UNL     1      27.931   2.851  52.125  1.00  0.00    -0.179 NA
ENDROOT
BRANCH  10  13
HETATM   13  N4  UNL     1      24.295  -0.590  53.079  1.00  0.00    -0.340 N 
HETATM   14  H9  UNL     1      24.408  -1.203  52.222  1.00  0.00     0.167 HD
BRANCH  13  15
HETATM   15  C11 UNL     1      22.952  -0.277  53.407  1.00  0.00     0.035 A 
HETATM   16  C12 UNL     1      22.152  -0.994  54.268  1.00  0.00     0.029 A 
HETATM   17  C13 UNL     1      20.851  -0.687  54.579  1.00  0.00     0.004 A 
HETATM   18  C14 UNL     1      20.272   0.419  53.999  1.00  0.00     0.019 A 
HETATM   19  C15 UNL     1      21.036   1.167  53.130  1.00  0.00     0.013 A 
HETATM   20 BR1  UNL     1      20.257   2.704  52.314  1.00  0.00    -0.051 Br
HETATM   21  C16 UNL     1      22.325   0.812  52.860  1.00  0.00     0.048 A 
ENDBRANCH  13  15
ENDBRANCH  10  13
BRANCH   1  22
HETATM   22  C4  UNL     1      25.274   2.852  49.471  1.00  0.00     0.075 C 
HETATM   23  C3  UNL     1      24.184   3.566  49.690  1.00  0.00     0.002 C 
BRANCH  23  24
HETATM   24  C2  UNL     1      24.066   4.622  50.674  1.00  0.00    -0.026 C 
HETATM   25  C1  UNL     1      23.459   4.619  51.830  1.00  0.00     0.031 C 
ENDBRANCH  23  24
ENDBRANCH   1  22
TORSDOF 4
ENDMDL
MODEL 9
REMARK VINA RESULT:      -7.7      1.861      2.293
REMARK  4 active torsions:
REMARK  status: ('A' for Active; 'I' for Inactive)
REMARK    1  A    between atoms: C2_2  and  C3_3 
REMARK    2  A    between atoms: C4_4  and  C5_5 
REMARK       I    between atoms: C5_5  and  N1_7 
REMARK    3  A    between atoms: C10_14  and  N4_15 
REMARK    4  A    between atoms: N4_15  and  C11_16 
ROOT
HETATM    1  C5  UNL     1      24.159   0.105  53.530  1.00  0.00     0.263 C 
HETATM    2  O1  UNL     1      23.700  -0.764  54.300  1.00  0.00    -0.267 OA
HETATM    3  N1  UNL     1      23.473   0.628  52.401  1.00  0.00    -0.231 N 
HETATM    4  C6  UNL     1      24.150   1.627  51.612  1.00  0.00     0.199 A 
HETATM    5  C7  UNL     1      23.343   2.093  50.458  1.00  0.00     0.038 A 
HETATM    6  C8  UNL     1      22.095   1.545  50.293  1.00  0.00     0.089 A 
HETATM    7  N2  UNL     1      21.336   1.959  49.242  1.00  0.00    -0.240 NA
HETATM    8  C9  UNL     1      21.862   2.904  48.405  1.00  0.00     0.236 A 
HETATM    9  N3  UNL     1      23.076   3.405  48.607  1.00  0.00    -0.224 NA
HETATM   10  C10 UNL     1      23.871   3.043  49.615  1.00  0.00     0.139 A 
HETATM   11  C17 UNL     1      21.527   0.553  51.157  1.00  0.00     0.171 A 
HETATM   12  N5  UNL     1      22.199   0.119  52.169  1.00  0.00    -0.179 NA
ENDROOT
BRANCH  10  13
HETATM   13  N4  UNL     1      25.169   3.554  49.855  1.00  0.00    -0.340 N 
HETATM   14  H9  UNL     1      25.762   3.039  50.567  1.00  0.00     0.167 HD
BRANCH  13  15
HETATM   15  C11 UNL     1      25.798   4.680  49.267  1.00  0.00     0.035 A 
HETATM   16  C12 UNL     1      25.171   5.854  48.918  1.00  0.00     0.029 A 
HETATM   17  C13 UNL     1      25.786   6.939  48.346  1.00  0.00     0.004 A 
HETATM   18  C14 UNL     1      27.136   6.878  48.087  1.00  0.00     0.019 A 
HETATM   19  C15 UNL     1      27.806   5.721  48.420  1.00  0.00     0.013 A 
HETATM   20 BR1  UNL     1      29.678   5.610  48.072  1.00  0.00    -0.051 Br
HETATM   21  C16 UNL     1      27.140   4.675  48.987  1.00  0.00     0.048 A 
ENDBRANCH  13  15
ENDBRANCH  10  13
BRANCH   1  22
HETATM   22  C4  UNL     1      25.493   0.529  53.926  1.00  0.00     0.075 C 
HETATM   23  C3  UNL     1      26.532  -0.142  53.459  1.00  0.00     0.002 C 
BRANCH  23  24
HETATM   24  C2  UNL     1      26.453  -1.280  52.568  1.00  0.00    -0.026 C 
HETATM   25  C1  UNL     1      27.196  -2.354  52.521  1.00  0.00     0.031 C 
ENDBRANCH  23  24
ENDBRANCH   1  22
TORSDOF 4
ENDMDL
