MODEL 1
REMARK VINA RESULT:      -8.5      0.000      0.000
REMARK  4 active torsions:
REMARK  status: ('A' for Active; 'I' for Inactive)
REMARK    1  A    between atoms: C5_7  and  N3_8 
REMARK    2  A    between atoms: C7_10  and  C8_11 
REMARK    3  A    between atoms: C8_11  and  C9_12 
REMARK    4  A    between atoms: C9_12  and  C10_13 
ROOT
HETATM    1  N3  UNL     1      24.470  -0.877  54.580  1.00  0.00    -0.251 N 
HETATM    2  C6  UNL     1      23.360  -0.655  53.829  1.00  0.00     0.142 A 
HETATM    3  C7  UNL     1      22.223  -1.104  54.497  1.00  0.00     0.070 A 
HETATM    4  N4  UNL     1      22.716  -1.590  55.656  1.00  0.00    -0.163 NA
HETATM    5  N5  UNL     1      24.031  -1.450  55.688  1.00  0.00     0.009 NA
ENDROOT
BRANCH   1   6
HETATM    6  C5  UNL     1      25.812  -0.550  54.222  1.00  0.00     0.037 A 
HETATM    7  C4  UNL     1      26.538   0.416  55.084  1.00  0.00     0.122 A 
HETATM    8  C3  UNL     1      27.903   0.626  54.557  1.00  0.00     0.088 A 
HETATM    9  C2  UNL     1      28.483  -0.012  53.358  1.00  0.00     0.076 A 
HETATM   10  N2  UNL     1      29.024   1.246  54.719  1.00  0.00    -0.176 NA
HETATM   11  C1  UNL     1      27.674  -0.839  52.734  1.00  0.00     0.035 A 
HETATM   12  N1  UNL     1      29.703   0.708  53.599  1.00  0.00    -0.276 N 
HETATM   13  C16 UNL     1      26.325  -1.128  53.146  1.00  0.00     0.029 A 
HETATM   14  H2  UNL     1      30.574   0.665  53.025  1.00  0.00     0.189 HD
ENDBRANCH   1   6
BRANCH   3  15
HETATM   15  C8  UNL     1      20.822  -1.035  54.000  1.00  0.00     0.067 C 
BRANCH  15  16
HETATM   16  C9  UNL     1      20.634   0.058  52.992  1.00  0.00     0.044 C 
BRANCH  16  17
HETATM   17  C10 UNL     1      19.290  -0.170  52.373  1.00  0.00    -0.058 A 
HETATM   18  C11 UNL     1      18.334  -0.944  53.024  1.00  0.00     0.007 A 
HETATM   19  C12 UNL     1      17.077  -1.190  52.504  1.00  0.00     0.001 A 
HETATM   20  C13 UNL     1      16.824  -0.614  51.285  1.00  0.00     0.000 A 
HETATM   21  C14 UNL     1      17.708   0.172  50.559  1.00  0.00     0.001 A 
HETATM   22  C15 UNL     1      18.947   0.376  51.138  1.00  0.00     0.007 A 
ENDBRANCH  16  17
ENDBRANCH  15  16
ENDBRANCH   3  15
TORSDOF 4
ENDMDL
MODEL 2
REMARK VINA RESULT:      -8.4      5.214      7.227
REMARK  4 active torsions:
REMARK  status: ('A' for Active; 'I' for Inactive)
REMARK    1  A    between atoms: C5_7  and  N3_8 
REMARK    2  A    between atoms: C7_10  and  C8_11 
REMARK    3  A    between atoms: C8_11  and  C9_12 
REMARK    4  A    between atoms: C9_12  and  C10_13 
ROOT
HETATM    1  N3  UNL     1      26.004   1.667  52.713  1.00  0.00    -0.251 N 
HETATM    2  C6  UNL     1      25.941   2.469  51.619  1.00  0.00     0.142 A 
HETATM    3  C7  UNL     1      24.915   3.402  51.759  1.00  0.00     0.070 A 
HETATM    4  N4  UNL     1      24.393   3.109  52.969  1.00  0.00    -0.163 NA
HETATM    5  N5  UNL     1      25.041   2.092  53.512  1.00  0.00     0.009 NA
ENDROOT
BRANCH   1   6
HETATM    6  C5  UNL     1      26.927   0.600  52.925  1.00  0.00     0.037 A 
HETATM    7  C4  UNL     1      26.495  -0.769  52.546  1.00  0.00     0.122 A 
HETATM    8  C3  UNL     1      27.577  -1.732  52.837  1.00  0.00     0.088 A 
HETATM    9  C2  UNL     1      28.898  -1.412  53.417  1.00  0.00     0.076 A 
HETATM   10  N2  UNL     1      27.941  -2.971  52.799  1.00  0.00    -0.176 NA
HETATM   11  C1  UNL     1      29.083  -0.138  53.682  1.00  0.00     0.035 A 
HETATM   12  N1  UNL     1      29.237  -2.807  53.344  1.00  0.00    -0.276 N 
HETATM   13  C16 UNL     1      28.109   0.895  53.445  1.00  0.00     0.029 A 
HETATM   14  H2  UNL     1      30.137  -3.243  53.641  1.00  0.00     0.189 HD
ENDBRANCH   1   6
BRANCH   3  15
HETATM   15  C8  UNL     1      24.534   4.450  50.773  1.00  0.00     0.067 C 
BRANCH  15  16
HETATM   16  C9  UNL     1      24.882   4.058  49.370  1.00  0.00     0.044 C 
BRANCH  16  17
HETATM   17  C10 UNL     1      25.971   4.989  48.934  1.00  0.00    -0.058 A 
HETATM   18  C11 UNL     1      27.286   4.544  48.844  1.00  0.00     0.007 A 
HETATM   19  C12 UNL     1      28.334   5.355  48.448  1.00  0.00     0.001 A 
HETATM   20  C13 UNL     1      27.992   6.648  48.143  1.00  0.00     0.000 A 
HETATM   21  C14 UNL     1      26.713   7.185  48.201  1.00  0.00     0.001 A 
HETATM   22  C15 UNL     1      25.715   6.318  48.605  1.00  0.00     0.007 A 
ENDBRANCH  16  17
ENDBRANCH  15  16
ENDBRANCH   3  15
TORSDOF 4
ENDMDL
MODEL 3
REMARK VINA RESULT:      -8.1      1.659      2.409
REMARK  4 active torsions:
REMARK  status: ('A' for Active; 'I' for Inactive)
REMARK    1  A    between atoms: C5_7  and  N3_8 
REMARK    2  A    between atoms: C7_10  and  C8_11 
REMARK    3  A    between atoms: C8_11  and  C9_12 
REMARK    4  A    between atoms: C9_12  and  C10_13 
ROOT
HETATM    1  N3  UNL     1      24.513  -0.826  54.500  1.00  0.00    -0.251 N 
HETATM    2  C6  UNL     1      23.439  -0.572  53.708  1.00  0.00     0.142 A 
HETATM    3  C7  UNL     1      22.265  -0.986  54.333  1.00  0.00     0.070 A 
HETATM    4  N4  UNL     1      22.700  -1.486  55.510  1.00  0.00    -0.163 NA
HETATM    5  N5  UNL     1      24.016  -1.384  55.590  1.00  0.00     0.009 NA
ENDROOT
BRANCH   1   6
HETATM    6  C5  UNL     1      25.876  -0.539  54.191  1.00  0.00     0.037 A 
HETATM    7  C4  UNL     1      26.571   0.473  55.025  1.00  0.00     0.122 A 
HETATM    8  C3  UNL     1      27.964   0.633  54.558  1.00  0.00     0.088 A 
HETATM    9  C2  UNL     1      28.596  -0.089  53.434  1.00  0.00     0.076 A 
HETATM   10  N2  UNL     1      29.085   1.249  54.738  1.00  0.00    -0.176 NA
HETATM   11  C1  UNL     1      27.807  -0.945  52.823  1.00  0.00     0.035 A 
HETATM   12  N1  UNL     1      29.813   0.631  53.692  1.00  0.00    -0.276 N 
HETATM   13  C16 UNL     1      26.435  -1.191  53.183  1.00  0.00     0.029 A 
HETATM   14  H2  UNL     1      30.711   0.540  53.168  1.00  0.00     0.189 HD
ENDBRANCH   1   6
BRANCH   3  15
HETATM   15  C8  UNL     1      20.886  -0.877  53.785  1.00  0.00     0.067 C 
BRANCH  15  16
HETATM   16  C9  UNL     1      20.434   0.547  53.674  1.00  0.00     0.044 C 
BRANCH  16  17
HETATM   17  C10 UNL     1      20.957   1.052  52.364  1.00  0.00    -0.058 A 
HETATM   18  C11 UNL     1      21.603   2.282  52.289  1.00  0.00     0.007 A 
HETATM   19  C12 UNL     1      22.107   2.801  51.110  1.00  0.00     0.001 A 
HETATM   20  C13 UNL     1      21.928   2.016  50.001  1.00  0.00     0.000 A 
HETATM   21  C14 UNL     1      21.299   0.778  49.973  1.00  0.00     0.001 A 
HETATM   22  C15 UNL     1      20.820   0.320  51.187  1.00  0.00     0.007 A 
ENDBRANCH  16  17
ENDBRANCH  15  16
ENDBRANCH   3  15
TORSDOF 4
ENDMDL
MODEL 4
REMARK VINA RESULT:      -8.1      2.516      8.561
REMARK  4 active torsions:
REMARK  status: ('A' for Active; 'I' for Inactive)
REMARK    1  A    between atoms: C5_7  and  N3_8 
REMARK    2  A    between atoms: C7_10  and  C8_11 
REMARK    3  A    between atoms: C8_11  and  C9_12 
REMARK    4  A    between atoms: C9_12  and  C10_13 
ROOT
HETATM    1  N3  UNL     1      21.375  -0.873  53.845  1.00  0.00    -0.251 N 
HETATM    2  C6  UNL     1      22.635  -0.467  53.536  1.00  0.00     0.142 A 
HETATM    3  C7  UNL     1      23.540  -0.918  54.493  1.00  0.00     0.070 A 
HETATM    4  N4  UNL     1      22.760  -1.597  55.362  1.00  0.00    -0.163 NA
HETATM    5  N5  UNL     1      21.498  -1.560  54.967  1.00  0.00     0.009 NA
ENDROOT
BRANCH   1   6
HETATM    6  C5  UNL     1      20.193  -0.600  53.096  1.00  0.00     0.037 A 
HETATM    7  C4  UNL     1      18.935  -1.255  53.533  1.00  0.00     0.122 A 
HETATM    8  C3  UNL     1      17.827  -0.852  52.641  1.00  0.00     0.088 A 
HETATM    9  C2  UNL     1      17.926   0.060  51.484  1.00  0.00     0.076 A 
HETATM   10  N2  UNL     1      16.567  -0.976  52.384  1.00  0.00    -0.176 NA
HETATM   11  C1  UNL     1      19.131   0.535  51.265  1.00  0.00     0.035 A 
HETATM   12  N1  UNL     1      16.518  -0.122  51.255  1.00  0.00    -0.276 N 
HETATM   13  C16 UNL     1      20.290   0.220  52.059  1.00  0.00     0.029 A 
HETATM   14  H2  UNL     1      15.951   0.315  50.497  1.00  0.00     0.189 HD
ENDBRANCH   1   6
BRANCH   3  15
HETATM   15  C8  UNL     1      25.009  -0.679  54.503  1.00  0.00     0.067 C 
BRANCH  15  16
HETATM   16  C9  UNL     1      25.577  -0.601  53.119  1.00  0.00     0.044 C 
BRANCH  16  17
HETATM   17  C10 UNL     1      27.060  -0.744  53.266  1.00  0.00    -0.058 A 
HETATM   18  C11 UNL     1      27.685  -1.953  52.982  1.00  0.00     0.007 A 
HETATM   19  C12 UNL     1      29.049  -2.147  53.098  1.00  0.00     0.001 A 
HETATM   20  C13 UNL     1      29.762  -1.053  53.519  1.00  0.00     0.000 A 
HETATM   21  C14 UNL     1      29.233   0.192  53.827  1.00  0.00     0.001 A 
HETATM   22  C15 UNL     1      27.862   0.315  53.688  1.00  0.00     0.007 A 
ENDBRANCH  16  17
ENDBRANCH  15  16
ENDBRANCH   3  15
TORSDOF 4
ENDMDL
MODEL 5
REMARK VINA RESULT:      -8.0      4.701      8.100
REMARK  4 active torsions:
REMARK  status: ('A' for Active; 'I' for Inactive)
REMARK    1  A    between atoms: C5_7  and  N3_8 
REMARK    2  A    between atoms: C7_10  and  C8_11 
REMARK    3  A    between atoms: C8_11  and  C9_12 
REMARK    4  A    between atoms: C9_12  and  C10_13 
ROOT
HETATM    1  N3  UNL     1      24.373   0.408  52.680  1.00  0.00    -0.251 N 
HETATM    2  C6  UNL     1      24.660   1.542  51.989  1.00  0.00     0.142 A 
HETATM    3  C7  UNL     1      26.033   1.652  51.785  1.00  0.00     0.070 A 
HETATM    4  N4  UNL     1      26.526   0.544  52.380  1.00  0.00    -0.163 NA
HETATM    5  N5  UNL     1      25.541  -0.171  52.898  1.00  0.00     0.009 NA
ENDROOT
BRANCH   1   6
HETATM    6  C5  UNL     1      23.075  -0.037  53.072  1.00  0.00     0.037 A 
HETATM    7  C4  UNL     1      21.919   0.412  52.256  1.00  0.00     0.122 A 
HETATM    8  C3  UNL     1      20.669  -0.147  52.813  1.00  0.00     0.088 A 
HETATM    9  C2  UNL     1      20.556  -1.021  53.999  1.00  0.00     0.076 A 
HETATM   10  N2  UNL     1      19.385  -0.217  52.690  1.00  0.00    -0.176 NA
HETATM   11  C1  UNL     1      21.701  -1.302  54.581  1.00  0.00     0.035 A 
HETATM   12  N1  UNL     1      19.133  -1.056  53.803  1.00  0.00    -0.276 N 
HETATM   13  C16 UNL     1      22.983  -0.820  54.136  1.00  0.00     0.029 A 
HETATM   14  H2  UNL     1      18.438  -1.567  54.390  1.00  0.00     0.189 HD
ENDBRANCH   1   6
BRANCH   3  15
HETATM   15  C8  UNL     1      26.734   2.754  51.070  1.00  0.00     0.067 C 
BRANCH  15  16
HETATM   16  C9  UNL     1      26.254   2.906  49.660  1.00  0.00     0.044 C 
BRANCH  16  17
HETATM   17  C10 UNL     1      26.514   4.331  49.280  1.00  0.00    -0.058 A 
HETATM   18  C11 UNL     1      27.712   4.692  48.671  1.00  0.00     0.007 A 
HETATM   19  C12 UNL     1      28.010   5.990  48.298  1.00  0.00     0.001 A 
HETATM   20  C13 UNL     1      27.035   6.916  48.569  1.00  0.00     0.000 A 
HETATM   21  C14 UNL     1      25.812   6.656  49.171  1.00  0.00     0.001 A 
HETATM   22  C15 UNL     1      25.581   5.338  49.518  1.00  0.00     0.007 A 
ENDBRANCH  16  17
ENDBRANCH  15  16
ENDBRANCH   3  15
TORSDOF 4
ENDMDL
MODEL 6
REMARK VINA RESULT:      -7.9      5.332      8.449
REMARK  4 active torsions:
REMARK  status: ('A' for Active; 'I' for Inactive)
REMARK    1  A    between atoms: C5_7  and  N3_8 
REMARK    2  A    between atoms: C7_10  and  C8_11 
REMARK    3  A    between atoms: C8_11  and  C9_12 
REMARK    4  A    between atoms: C9_12  and  C10_13 
ROOT
HETATM    1  N3  UNL     1      24.867   1.267  52.162  1.00  0.00    -0.251 N 
HETATM    2  C6  UNL     1      24.921   2.096  51.086  1.00  0.00     0.142 A 
HETATM    3  C7  UNL     1      26.236   2.481  50.834  1.00  0.00     0.070 A 
HETATM    4  N4  UNL     1      26.936   1.845  51.799  1.00  0.00    -0.163 NA
HETATM    5  N5  UNL     1      26.120   1.141  52.566  1.00  0.00     0.009 NA
ENDROOT
BRANCH   1   6
HETATM    6  C5  UNL     1      23.693   0.675  52.713  1.00  0.00     0.037 A 
HETATM    7  C4  UNL     1      23.873  -0.381  53.742  1.00  0.00     0.122 A 
HETATM    8  C3  UNL     1      22.552  -0.869  54.191  1.00  0.00     0.088 A 
HETATM    9  C2  UNL     1      21.237  -0.400  53.707  1.00  0.00     0.076 A 
HETATM   10  N2  UNL     1      21.927  -1.687  54.971  1.00  0.00    -0.176 NA
HETATM   11  C1  UNL     1      21.297   0.543  52.794  1.00  0.00     0.035 A 
HETATM   12  N1  UNL     1      20.607  -1.332  54.601  1.00  0.00    -0.276 N 
HETATM   13  C16 UNL     1      22.518   1.102  52.275  1.00  0.00     0.029 A 
HETATM   14  H2  UNL     1      19.581  -1.479  54.723  1.00  0.00     0.189 HD
ENDBRANCH   1   6
BRANCH   3  15
HETATM   15  C8  UNL     1      26.699   3.380  49.743  1.00  0.00     0.067 C 
BRANCH  15  16
HETATM   16  C9  UNL     1      25.821   4.584  49.594  1.00  0.00     0.044 C 
BRANCH  16  17
HETATM   17  C10 UNL     1      26.616   5.591  48.821  1.00  0.00    -0.058 A 
HETATM   18  C11 UNL     1      26.013   6.747  48.338  1.00  0.00     0.007 A 
HETATM   19  C12 UNL     1      26.694   7.712  47.618  1.00  0.00     0.001 A 
HETATM   20  C13 UNL     1      28.025   7.455  47.407  1.00  0.00     0.000 A 
HETATM   21  C14 UNL     1      28.716   6.334  47.846  1.00  0.00     0.001 A 
HETATM   22  C15 UNL     1      27.973   5.411  48.559  1.00  0.00     0.007 A 
ENDBRANCH  16  17
ENDBRANCH  15  16
ENDBRANCH   3  15
TORSDOF 4
ENDMDL
MODEL 7
REMARK VINA RESULT:      -7.7      5.700      8.374
REMARK  4 active torsions:
REMARK  status: ('A' for Active; 'I' for Inactive)
REMARK    1  A    between atoms: C5_7  and  N3_8 
REMARK    2  A    between atoms: C7_10  and  C8_11 
REMARK    3  A    between atoms: C8_11  and  C9_12 
REMARK    4  A    between atoms: C9_12  and  C10_13 
ROOT
HETATM    1  N3  UNL     1      24.135   2.353  51.834  1.00  0.00    -0.251 N 
HETATM    2  C6  UNL     1      25.125   2.823  51.030  1.00  0.00     0.142 A 
HETATM    3  C7  UNL     1      24.644   3.841  50.210  1.00  0.00     0.070 A 
HETATM    4  N4  UNL     1      23.346   3.941  50.570  1.00  0.00    -0.163 NA
HETATM    5  N5  UNL     1      23.066   3.064  51.519  1.00  0.00     0.009 NA
ENDROOT
BRANCH   1   6
HETATM    6  C5  UNL     1      24.256   1.312  52.802  1.00  0.00     0.037 A 
HETATM    7  C4  UNL     1      25.551   1.184  53.516  1.00  0.00     0.122 A 
HETATM    8  C3  UNL     1      25.484   0.059  54.472  1.00  0.00     0.088 A 
HETATM    9  C2  UNL     1      24.321  -0.822  54.702  1.00  0.00     0.076 A 
HETATM   10  N2  UNL     1      26.124  -0.621  55.365  1.00  0.00    -0.176 NA
HETATM   11  C1  UNL     1      23.268  -0.541  53.967  1.00  0.00     0.035 A 
HETATM   12  N1  UNL     1      25.090  -1.535  55.685  1.00  0.00    -0.276 N 
HETATM   13  C16 UNL     1      23.208   0.527  53.003  1.00  0.00     0.029 A 
HETATM   14  H2  UNL     1      24.770  -2.351  56.252  1.00  0.00     0.189 HD
ENDBRANCH   1   6
BRANCH   3  15
HETATM   15  C8  UNL     1      25.424   4.603  49.198  1.00  0.00     0.067 C 
BRANCH  15  16
HETATM   16  C9  UNL     1      26.876   4.235  49.211  1.00  0.00     0.044 C 
BRANCH  16  17
HETATM   17  C10 UNL     1      27.603   5.374  48.565  1.00  0.00    -0.058 A 
HETATM   18  C11 UNL     1      26.925   6.539  48.219  1.00  0.00     0.007 A 
HETATM   19  C12 UNL     1      27.540   7.624  47.621  1.00  0.00     0.001 A 
HETATM   20  C13 UNL     1      28.883   7.478  47.385  1.00  0.00     0.000 A 
HETATM   21  C14 UNL     1      29.646   6.360  47.692  1.00  0.00     0.001 A 
HETATM   22  C15 UNL     1      28.967   5.314  48.288  1.00  0.00     0.007 A 
ENDBRANCH  16  17
ENDBRANCH  15  16
ENDBRANCH   3  15
TORSDOF 4
ENDMDL
MODEL 8
REMARK VINA RESULT:      -7.7      2.352      3.271
REMARK  4 active torsions:
REMARK  status: ('A' for Active; 'I' for Inactive)
REMARK    1  A    between atoms: C5_7  and  N3_8 
REMARK    2  A    between atoms: C7_10  and  C8_11 
REMARK    3  A    between atoms: C8_11  and  C9_12 
REMARK    4  A    between atoms: C9_12  and  C10_13 
ROOT
HETATM    1  N3  UNL     1      25.392   1.872  52.852  1.00  0.00    -0.251 N 
HETATM    2  C6  UNL     1      24.495   1.515  51.896  1.00  0.00     0.142 A 
HETATM    3  C7  UNL     1      23.394   2.367  51.919  1.00  0.00     0.070 A 
HETATM    4  N4  UNL     1      23.687   3.226  52.919  1.00  0.00    -0.163 NA
HETATM    5  N5  UNL     1      24.859   2.922  53.453  1.00  0.00     0.009 NA
ENDROOT
BRANCH   1   6
HETATM    6  C5  UNL     1      26.636   1.230  53.124  1.00  0.00     0.037 A 
HETATM    7  C4  UNL     1      26.697  -0.245  52.974  1.00  0.00     0.122 A 
HETATM    8  C3  UNL     1      28.058  -0.724  53.296  1.00  0.00     0.088 A 
HETATM    9  C2  UNL     1      29.203   0.114  53.708  1.00  0.00     0.076 A 
HETATM   10  N2  UNL     1      28.830  -1.755  53.394  1.00  0.00    -0.176 NA
HETATM   11  C1  UNL     1      28.940   1.400  53.780  1.00  0.00     0.035 A 
HETATM   12  N1  UNL     1      30.006  -1.075  53.796  1.00  0.00    -0.276 N 
HETATM   13  C16 UNL     1      27.658   1.989  53.492  1.00  0.00     0.029 A 
HETATM   14  H2  UNL     1      31.012  -1.126  54.068  1.00  0.00     0.189 HD
ENDBRANCH   1   6
BRANCH   3  15
HETATM   15  C8  UNL     1      22.205   2.299  51.027  1.00  0.00     0.067 C 
BRANCH  15  16
HETATM   16  C9  UNL     1      21.926   0.902  50.564  1.00  0.00     0.044 C 
BRANCH  16  17
HETATM   17  C10 UNL     1      20.942   0.327  51.535  1.00  0.00    -0.058 A 
HETATM   18  C11 UNL     1      19.578   0.376  51.270  1.00  0.00     0.007 A 
HETATM   19  C12 UNL     1      18.621  -0.138  52.127  1.00  0.00     0.001 A 
HETATM   20  C13 UNL     1      19.109  -0.709  53.275  1.00  0.00     0.000 A 
HETATM   21  C14 UNL     1      20.448  -0.806  53.628  1.00  0.00     0.001 A 
HETATM   22  C15 UNL     1      21.349  -0.272  52.725  1.00  0.00     0.007 A 
ENDBRANCH  16  17
ENDBRANCH  15  16
ENDBRANCH   3  15
TORSDOF 4
ENDMDL
MODEL 9
REMARK VINA RESULT:      -7.4      5.614      7.894
REMARK  4 active torsions:
REMARK  status: ('A' for Active; 'I' for Inactive)
REMARK    1  A    between atoms: C5_7  and  N3_8 
REMARK    2  A    between atoms: C7_10  and  C8_11 
REMARK    3  A    between atoms: C8_11  and  C9_12 
REMARK    4  A    between atoms: C9_12  and  C10_13 
ROOT
HETATM    1  N3  UNL     1      25.110   3.572  50.186  1.00  0.00    -0.251 N 
HETATM    2  C6  UNL     1      25.280   3.139  51.463  1.00  0.00     0.142 A 
HETATM    3  C7  UNL     1      24.307   2.197  51.790  1.00  0.00     0.070 A 
HETATM    4  N4  UNL     1      23.574   2.102  50.660  1.00  0.00    -0.163 NA
HETATM    5  N5  UNL     1      24.057   2.912  49.733  1.00  0.00     0.009 NA
ENDROOT
BRANCH   1   6
HETATM    6  C5  UNL     1      25.914   4.534  49.507  1.00  0.00     0.037 A 
HETATM    7  C4  UNL     1      25.308   5.859  49.221  1.00  0.00     0.122 A 
HETATM    8  C3  UNL     1      26.288   6.714  48.518  1.00  0.00     0.088 A 
HETATM    9  C2  UNL     1      27.665   6.335  48.142  1.00  0.00     0.076 A 
HETATM   10  N2  UNL     1      26.504   7.870  47.985  1.00  0.00    -0.176 NA
HETATM   11  C1  UNL     1      28.009   5.115  48.487  1.00  0.00     0.035 A 
HETATM   12  N1  UNL     1      27.838   7.642  47.569  1.00  0.00    -0.276 N 
HETATM   13  C16 UNL     1      27.149   4.187  49.173  1.00  0.00     0.029 A 
HETATM   14  H2  UNL     1      28.697   8.006  47.102  1.00  0.00     0.189 HD
ENDBRANCH   1   6
BRANCH   3  15
HETATM   15  C8  UNL     1      24.162   1.494  53.094  1.00  0.00     0.067 C 
BRANCH  15  16
HETATM   16  C9  UNL     1      24.421   0.023  52.973  1.00  0.00     0.044 C 
BRANCH  16  17
HETATM   17  C10 UNL     1      25.866  -0.177  53.316  1.00  0.00    -0.058 A 
HETATM   18  C11 UNL     1      26.446   0.526  54.367  1.00  0.00     0.007 A 
HETATM   19  C12 UNL     1      27.773   0.384  54.731  1.00  0.00     0.001 A 
HETATM   20  C13 UNL     1      28.494  -0.508  53.980  1.00  0.00     0.000 A 
HETATM   21  C14 UNL     1      28.007  -1.254  52.915  1.00  0.00     0.001 A 
HETATM   22  C15 UNL     1      26.673  -1.063  52.607  1.00  0.00     0.007 A 
ENDBRANCH  16  17
ENDBRANCH  15  16
ENDBRANCH   3  15
TORSDOF 4
ENDMDL
