MODEL 1
REMARK VINA RESULT:      -8.5      0.000      0.000
REMARK  5 active torsions:
REMARK  status: ('A' for Active; 'I' for Inactive)
REMARK    1  A    between atoms: O1_2  and  C2_3 
REMARK    2  A    between atoms: C5_6  and  C6_7 
REMARK    3  A    between atoms: C8_9  and  C9_10 
REMARK    4  A    between atoms: N2_18  and  C15_19 
REMARK    5  A    between atoms: C16_21  and  O2_22 
ROOT
HETATM    1  C6  UNL     1      24.935   1.881  53.050  1.00  0.00     0.151 C 
HETATM    2  C7  UNL     1      23.436   1.942  53.238  1.00  0.00     0.094 C 
HETATM    3  C8  UNL     1      22.970   0.604  52.794  1.00  0.00     0.067 C 
HETATM    4  N1  UNL     1      23.977  -0.206  52.625  1.00  0.00    -0.173 NA
HETATM    5  N2  UNL     1      25.166   0.458  52.919  1.00  0.00    -0.236 N 
ENDROOT
BRANCH   1   6
HETATM    6  C5  UNL     1      25.372   2.624  51.843  1.00  0.00    -0.033 A 
HETATM    7  C4  UNL     1      24.570   3.721  51.611  1.00  0.00     0.012 A 
HETATM    8  C3  UNL     1      24.799   4.569  50.522  1.00  0.00     0.037 A 
HETATM    9  C2  UNL     1      25.865   4.266  49.680  1.00  0.00     0.068 A 
HETATM   10  C19 UNL     1      26.665   3.164  49.919  1.00  0.00     0.037 A 
HETATM   11  C18 UNL     1      26.424   2.349  50.988  1.00  0.00     0.012 A 
BRANCH   9  12
HETATM   12  O1  UNL     1      26.089   5.110  48.600  1.00  0.00    -0.356 OA
HETATM   13  C1  UNL     1      27.134   6.044  48.594  1.00  0.00     0.210 C 
ENDBRANCH   9  12
ENDBRANCH   1   6
BRANCH   5  14
HETATM   14  C15 UNL     1      26.331  -0.347  53.031  1.00  0.00     0.192 A 
HETATM   15  N3  UNL     1      26.742  -1.387  52.835  1.00  0.00    -0.198 NA
HETATM   16  C16 UNL     1      27.952  -1.864  53.063  1.00  0.00     0.171 A 
HETATM   17  C17 UNL     1      28.850  -1.030  53.599  1.00  0.00     0.111 A 
HETATM   18  S1  UNL     1      27.853   0.520  53.772  1.00  0.00    -0.058 SA
BRANCH  16  19
HETATM   19  O2  UNL     1      28.248  -3.205  52.738  1.00  0.00    -0.344 OA
HETATM   20  H13 UNL     1      28.337  -3.428  51.743  1.00  0.00     0.219 HD
ENDBRANCH  16  19
ENDBRANCH   5  14
BRANCH   3  21
HETATM   21  C9  UNL     1      21.549   0.270  52.582  1.00  0.00    -0.010 A 
HETATM   22  C10 UNL     1      20.812  -0.418  53.537  1.00  0.00     0.015 A 
HETATM   23  C11 UNL     1      19.499  -0.754  53.393  1.00  0.00     0.024 A 
HETATM   24  C12 UNL     1      18.869  -0.378  52.212  1.00  0.00     0.034 A 
HETATM   25 CL1  UNL     1      17.163  -0.811  52.020  1.00  0.00    -0.084 Cl
HETATM   26  C13 UNL     1      19.563   0.310  51.232  1.00  0.00     0.024 A 
HETATM   27  C14 UNL     1      20.910   0.636  51.416  1.00  0.00     0.015 A 
ENDBRANCH   3  21
TORSDOF 5
ENDMDL
MODEL 2
REMARK VINA RESULT:      -8.3      3.163      5.602
REMARK  5 active torsions:
REMARK  status: ('A' for Active; 'I' for Inactive)
REMARK    1  A    between atoms: O1_2  and  C2_3 
REMARK    2  A    between atoms: C5_6  and  C6_7 
REMARK    3  A    between atoms: C8_9  and  C9_10 
REMARK    4  A    between atoms: N2_18  and  C15_19 
REMARK    5  A    between atoms: C16_21  and  O2_22 
ROOT
HETATM    1  C6  UNL     1      22.968   1.277  51.188  1.00  0.00     0.151 C 
HETATM    2  C7  UNL     1      21.858   0.275  50.968  1.00  0.00     0.094 C 
HETATM    3  C8  UNL     1      20.678   0.908  51.612  1.00  0.00     0.067 C 
HETATM    4  N1  UNL     1      20.930   2.147  51.926  1.00  0.00    -0.173 NA
HETATM    5  N2  UNL     1      22.232   2.470  51.549  1.00  0.00    -0.236 N 
ENDROOT
BRANCH   1   6
HETATM    6  C5  UNL     1      23.891   0.851  52.268  1.00  0.00    -0.033 A 
HETATM    7  C4  UNL     1      25.155   1.368  52.082  1.00  0.00     0.012 A 
HETATM    8  C3  UNL     1      26.191   1.096  52.982  1.00  0.00     0.037 A 
HETATM    9  C2  UNL     1      25.901   0.283  54.074  1.00  0.00     0.068 A 
HETATM   10  C19 UNL     1      24.631  -0.233  54.255  1.00  0.00     0.037 A 
HETATM   11  C18 UNL     1      23.634   0.045  53.363  1.00  0.00     0.012 A 
BRANCH   9  12
HETATM   12  O1  UNL     1      26.931   0.014  54.965  1.00  0.00    -0.356 OA
HETATM   13  C1  UNL     1      28.274   0.240  54.635  1.00  0.00     0.210 C 
ENDBRANCH   9  12
ENDBRANCH   1   6
BRANCH   5  14
HETATM   14  C15 UNL     1      22.581   3.847  51.588  1.00  0.00     0.192 A 
HETATM   15  N3  UNL     1      23.376   4.576  51.944  1.00  0.00    -0.198 NA
HETATM   16  C16 UNL     1      23.420   5.889  51.822  1.00  0.00     0.171 A 
HETATM   17  C17 UNL     1      22.400   6.482  51.192  1.00  0.00     0.111 A 
HETATM   18  S1  UNL     1      21.336   5.028  50.768  1.00  0.00    -0.058 SA
BRANCH  16  19
HETATM   19  O2  UNL     1      24.517   6.604  52.347  1.00  0.00    -0.344 OA
HETATM   20  H13 UNL     1      25.446   6.206  52.185  1.00  0.00     0.219 HD
ENDBRANCH  16  19
ENDBRANCH   5  14
BRANCH   3  21
HETATM   21  C9  UNL     1      19.408   0.199  51.852  1.00  0.00    -0.010 A 
HETATM   22  C10 UNL     1      18.351   0.274  50.954  1.00  0.00     0.015 A 
HETATM   23  C11 UNL     1      17.156  -0.359  51.125  1.00  0.00     0.024 A 
HETATM   24  C12 UNL     1      16.997  -1.125  52.274  1.00  0.00     0.034 A 
HETATM   25 CL1  UNL     1      15.447  -1.949  52.501  1.00  0.00    -0.084 Cl
HETATM   26  C13 UNL     1      18.023  -1.229  53.198  1.00  0.00     0.024 A 
HETATM   27  C14 UNL     1      19.235  -0.566  52.987  1.00  0.00     0.015 A 
ENDBRANCH   3  21
TORSDOF 5
ENDMDL
MODEL 3
REMARK VINA RESULT:      -8.2      3.643      6.525
REMARK  5 active torsions:
REMARK  status: ('A' for Active; 'I' for Inactive)
REMARK    1  A    between atoms: O1_2  and  C2_3 
REMARK    2  A    between atoms: C5_6  and  C6_7 
REMARK    3  A    between atoms: C8_9  and  C9_10 
REMARK    4  A    between atoms: N2_18  and  C15_19 
REMARK    5  A    between atoms: C16_21  and  O2_22 
ROOT
HETATM    1  C6  UNL     1      24.502   2.033  53.591  1.00  0.00     0.151 C 
HETATM    2  C7  UNL     1      24.845   3.338  52.908  1.00  0.00     0.094 C 
HETATM    3  C8  UNL     1      23.973   3.345  51.705  1.00  0.00     0.067 C 
HETATM    4  N1  UNL     1      23.089   2.390  51.766  1.00  0.00    -0.173 NA
HETATM    5  N2  UNL     1      23.255   1.673  52.950  1.00  0.00    -0.236 N 
ENDROOT
BRANCH   1   6
HETATM    6  C5  UNL     1      25.549   1.005  53.377  1.00  0.00    -0.033 A 
HETATM    7  C4  UNL     1      26.414   0.938  54.448  1.00  0.00     0.012 A 
HETATM    8  C3  UNL     1      27.483   0.035  54.463  1.00  0.00     0.037 A 
HETATM    9  C2  UNL     1      27.643  -0.795  53.356  1.00  0.00     0.068 A 
HETATM   10  C19 UNL     1      26.771  -0.722  52.285  1.00  0.00     0.037 A 
HETATM   11  C18 UNL     1      25.735   0.167  52.291  1.00  0.00     0.012 A 
BRANCH   9  12
HETATM   12  O1  UNL     1      28.704  -1.689  53.373  1.00  0.00    -0.356 OA
HETATM   13  C1  UNL     1      30.006  -1.288  53.700  1.00  0.00     0.210 C 
ENDBRANCH   9  12
ENDBRANCH   1   6
BRANCH   5  14
HETATM   14  C15 UNL     1      22.219   0.764  53.292  1.00  0.00     0.192 A 
HETATM   15  N3  UNL     1      21.978  -0.144  53.931  1.00  0.00    -0.198 NA
HETATM   16  C16 UNL     1      20.844  -0.811  54.041  1.00  0.00     0.171 A 
HETATM   17  C17 UNL     1      19.807  -0.385  53.311  1.00  0.00     0.111 A 
HETATM   18  S1  UNL     1      20.552   1.062  52.427  1.00  0.00    -0.058 SA
BRANCH  16  19
HETATM   19  O2  UNL     1      20.767  -1.922  54.907  1.00  0.00    -0.344 OA
HETATM   20  H13 UNL     1      21.056  -1.771  55.877  1.00  0.00     0.219 HD
ENDBRANCH  16  19
ENDBRANCH   5  14
BRANCH   3  21
HETATM   21  C9  UNL     1      24.117   4.317  50.606  1.00  0.00    -0.010 A 
HETATM   22  C10 UNL     1      23.042   5.070  50.152  1.00  0.00     0.015 A 
HETATM   23  C11 UNL     1      23.118   5.980  49.141  1.00  0.00     0.024 A 
HETATM   24  C12 UNL     1      24.355   6.158  48.533  1.00  0.00     0.034 A 
HETATM   25 CL1  UNL     1      24.460   7.340  47.219  1.00  0.00    -0.084 Cl
HETATM   26  C13 UNL     1      25.456   5.430  48.951  1.00  0.00     0.024 A 
HETATM   27  C14 UNL     1      25.339   4.505  49.993  1.00  0.00     0.015 A 
ENDBRANCH   3  21
TORSDOF 5
ENDMDL
MODEL 4
REMARK VINA RESULT:      -8.1      4.102      7.542
REMARK  5 active torsions:
REMARK  status: ('A' for Active; 'I' for Inactive)
REMARK    1  A    between atoms: O1_2  and  C2_3 
REMARK    2  A    between atoms: C5_6  and  C6_7 
REMARK    3  A    between atoms: C8_9  and  C9_10 
REMARK    4  A    between atoms: N2_18  and  C15_19 
REMARK    5  A    between atoms: C16_21  and  O2_22 
ROOT
HETATM    1  C6  UNL     1      23.363   3.171  52.287  1.00  0.00     0.151 C 
HETATM    2  C7  UNL     1      24.390   2.537  53.197  1.00  0.00     0.094 C 
HETATM    3  C8  UNL     1      25.534   2.252  52.294  1.00  0.00     0.067 C 
HETATM    4  N1  UNL     1      25.366   2.827  51.137  1.00  0.00    -0.173 NA
HETATM    5  N2  UNL     1      24.160   3.524  51.131  1.00  0.00    -0.236 N 
ENDROOT
BRANCH   1   6
HETATM    6  C5  UNL     1      22.274   2.227  51.938  1.00  0.00    -0.033 A 
HETATM    7  C4  UNL     1      21.043   2.717  52.319  1.00  0.00     0.012 A 
HETATM    8  C3  UNL     1      19.870   1.991  52.088  1.00  0.00     0.037 A 
HETATM    9  C2  UNL     1      19.989   0.754  51.460  1.00  0.00     0.068 A 
HETATM   10  C19 UNL     1      21.227   0.268  51.081  1.00  0.00     0.037 A 
HETATM   11  C18 UNL     1      22.360   0.994  51.316  1.00  0.00     0.012 A 
BRANCH   9  12
HETATM   12  O1  UNL     1      18.822   0.035  51.233  1.00  0.00    -0.356 OA
HETATM   13  C1  UNL     1      18.114  -0.576  52.275  1.00  0.00     0.210 C 
ENDBRANCH   9  12
ENDBRANCH   1   6
BRANCH   5  14
HETATM   14  C15 UNL     1      23.945   4.411  50.042  1.00  0.00     0.192 A 
HETATM   15  N3  UNL     1      23.363   4.543  49.076  1.00  0.00    -0.198 NA
HETATM   16  C16 UNL     1      23.379   5.548  48.221  1.00  0.00     0.171 A 
HETATM   17  C17 UNL     1      24.184   6.579  48.501  1.00  0.00     0.111 A 
HETATM   18  S1  UNL     1      24.945   6.027  50.095  1.00  0.00    -0.058 SA
BRANCH  16  19
HETATM   19  O2  UNL     1      22.563   5.502  47.070  1.00  0.00    -0.344 OA
HETATM   20  H13 UNL     1      22.589   6.320  46.455  1.00  0.00     0.219 HD
ENDBRANCH  16  19
ENDBRANCH   5  14
BRANCH   3  21
HETATM   21  C9  UNL     1      26.689   1.424  52.686  1.00  0.00    -0.010 A 
HETATM   22  C10 UNL     1      26.651   0.038  52.614  1.00  0.00     0.015 A 
HETATM   23  C11 UNL     1      27.687  -0.775  52.963  1.00  0.00     0.024 A 
HETATM   24  C12 UNL     1      28.851  -0.168  53.420  1.00  0.00     0.034 A 
HETATM   25 CL1  UNL     1      30.200  -1.220  53.875  1.00  0.00    -0.084 Cl
HETATM   26  C13 UNL     1      28.936   1.211  53.509  1.00  0.00     0.024 A 
HETATM   27  C14 UNL     1      27.851   2.013  53.141  1.00  0.00     0.015 A 
ENDBRANCH   3  21
TORSDOF 5
ENDMDL
MODEL 5
REMARK VINA RESULT:      -8.0      4.198      7.732
REMARK  5 active torsions:
REMARK  status: ('A' for Active; 'I' for Inactive)
REMARK    1  A    between atoms: O1_2  and  C2_3 
REMARK    2  A    between atoms: C5_6  and  C6_7 
REMARK    3  A    between atoms: C8_9  and  C9_10 
REMARK    4  A    between atoms: N2_18  and  C15_19 
REMARK    5  A    between atoms: C16_21  and  O2_22 
ROOT
HETATM    1  C6  UNL     1      22.794   2.460  52.423  1.00  0.00     0.151 C 
HETATM    2  C7  UNL     1      24.011   2.099  53.244  1.00  0.00     0.094 C 
HETATM    3  C8  UNL     1      24.955   1.533  52.246  1.00  0.00     0.067 C 
HETATM    4  N1  UNL     1      24.528   1.743  51.033  1.00  0.00    -0.173 NA
HETATM    5  N2  UNL     1      23.320   2.436  51.074  1.00  0.00    -0.236 N 
ENDROOT
BRANCH   1   6
HETATM    6  C5  UNL     1      21.695   1.481  52.604  1.00  0.00    -0.033 A 
HETATM    7  C4  UNL     1      21.956   0.619  53.647  1.00  0.00     0.012 A 
HETATM    8  C3  UNL     1      21.054  -0.391  53.998  1.00  0.00     0.037 A 
HETATM    9  C2  UNL     1      19.880  -0.495  53.256  1.00  0.00     0.068 A 
HETATM   10  C19 UNL     1      19.624   0.373  52.211  1.00  0.00     0.037 A 
HETATM   11  C18 UNL     1      20.520   1.352  51.885  1.00  0.00     0.012 A 
BRANCH   9  12
HETATM   12  O1  UNL     1      18.986  -1.498  53.607  1.00  0.00    -0.356 OA
HETATM   13  C1  UNL     1      17.644  -1.467  53.206  1.00  0.00     0.210 C 
ENDBRANCH   9  12
ENDBRANCH   1   6
BRANCH   5  14
HETATM   14  C15 UNL     1      22.849   2.966  49.843  1.00  0.00     0.192 A 
HETATM   15  N3  UNL     1      22.744   2.741  48.735  1.00  0.00    -0.198 NA
HETATM   16  C16 UNL     1      22.226   3.486  47.776  1.00  0.00     0.171 A 
HETATM   17  C17 UNL     1      21.744   4.685  48.123  1.00  0.00     0.111 A 
HETATM   18  S1  UNL     1      22.077   4.701  49.944  1.00  0.00    -0.058 SA
BRANCH  16  19
HETATM   19  O2  UNL     1      22.198   3.001  46.451  1.00  0.00    -0.344 OA
HETATM   20  H13 UNL     1      21.961   3.677  45.720  1.00  0.00     0.219 HD
ENDBRANCH  16  19
ENDBRANCH   5  14
BRANCH   3  21
HETATM   21  C9  UNL     1      26.198   0.831  52.613  1.00  0.00    -0.010 A 
HETATM   22  C10 UNL     1      27.327   1.520  53.037  1.00  0.00     0.015 A 
HETATM   23  C11 UNL     1      28.501   0.923  53.387  1.00  0.00     0.024 A 
HETATM   24  C12 UNL     1      28.560  -0.463  53.312  1.00  0.00     0.034 A 
HETATM   25 CL1  UNL     1      30.083  -1.244  53.766  1.00  0.00    -0.084 Cl
HETATM   26  C13 UNL     1      27.460  -1.193  52.895  1.00  0.00     0.024 A 
HETATM   27  C14 UNL     1      26.272  -0.545  52.544  1.00  0.00     0.015 A 
ENDBRANCH   3  21
TORSDOF 5
ENDMDL
MODEL 6
REMARK VINA RESULT:      -7.9      4.680      6.851
REMARK  5 active torsions:
REMARK  status: ('A' for Active; 'I' for Inactive)
REMARK    1  A    between atoms: O1_2  and  C2_3 
REMARK    2  A    between atoms: C5_6  and  C6_7 
REMARK    3  A    between atoms: C8_9  and  C9_10 
REMARK    4  A    between atoms: N2_18  and  C15_19 
REMARK    5  A    between atoms: C16_21  and  O2_22 
ROOT
HETATM    1  C6  UNL     1      24.692   3.858  49.546  1.00  0.00     0.151 C 
HETATM    2  C7  UNL     1      25.851   2.919  49.794  1.00  0.00     0.094 C 
HETATM    3  C8  UNL     1      25.564   2.352  51.136  1.00  0.00     0.067 C 
HETATM    4  N1  UNL     1      24.359   2.660  51.523  1.00  0.00    -0.173 NA
HETATM    5  N2  UNL     1      23.733   3.425  50.541  1.00  0.00    -0.236 N 
ENDROOT
BRANCH   1   6
HETATM    6  C5  UNL     1      25.080   5.277  49.735  1.00  0.00    -0.033 A 
HETATM    7  C4  UNL     1      26.090   5.641  48.870  1.00  0.00     0.012 A 
HETATM    8  C3  UNL     1      26.615   6.938  48.872  1.00  0.00     0.037 A 
HETATM    9  C2  UNL     1      26.080   7.849  49.779  1.00  0.00     0.068 A 
HETATM   10  C19 UNL     1      25.067   7.477  50.643  1.00  0.00     0.037 A 
HETATM   11  C18 UNL     1      24.570   6.205  50.625  1.00  0.00     0.012 A 
BRANCH   9  12
HETATM   12  O1  UNL     1      26.603   9.136  49.779  1.00  0.00    -0.356 OA
HETATM   13  C1  UNL     1      27.977   9.377  49.913  1.00  0.00     0.210 C 
ENDBRANCH   9  12
ENDBRANCH   1   6
BRANCH   5  14
HETATM   14  C15 UNL     1      22.335   3.630  50.689  1.00  0.00     0.192 A 
HETATM   15  N3  UNL     1      21.465   3.492  51.406  1.00  0.00    -0.198 NA
HETATM   16  C16 UNL     1      20.193   3.803  51.245  1.00  0.00     0.171 A 
HETATM   17  C17 UNL     1      19.840   4.366  50.084  1.00  0.00     0.111 A 
HETATM   18  S1  UNL     1      21.465   4.431  49.200  1.00  0.00    -0.058 SA
BRANCH  16  19
HETATM   19  O2  UNL     1      19.272   3.540  52.281  1.00  0.00    -0.344 OA
HETATM   20  H13 UNL     1      19.423   2.687  52.826  1.00  0.00     0.219 HD
ENDBRANCH  16  19
ENDBRANCH   5  14
BRANCH   3  21
HETATM   21  C9  UNL     1      26.538   1.552  51.903  1.00  0.00    -0.010 A 
HETATM   22  C10 UNL     1      27.592   2.145  52.585  1.00  0.00     0.015 A 
HETATM   23  C11 UNL     1      28.519   1.455  53.308  1.00  0.00     0.024 A 
HETATM   24  C12 UNL     1      28.392   0.072  53.357  1.00  0.00     0.034 A 
HETATM   25 CL1  UNL     1      29.594  -0.828  54.294  1.00  0.00    -0.084 Cl
HETATM   26  C13 UNL     1      27.357  -0.563  52.693  1.00  0.00     0.024 A 
HETATM   27  C14 UNL     1      26.424   0.178  51.962  1.00  0.00     0.015 A 
ENDBRANCH   3  21
TORSDOF 5
ENDMDL
MODEL 7
REMARK VINA RESULT:      -7.6      4.049      7.029
REMARK  5 active torsions:
REMARK  status: ('A' for Active; 'I' for Inactive)
REMARK    1  A    between atoms: O1_2  and  C2_3 
REMARK    2  A    between atoms: C5_6  and  C6_7 
REMARK    3  A    between atoms: C8_9  and  C9_10 
REMARK    4  A    between atoms: N2_18  and  C15_19 
REMARK    5  A    between atoms: C16_21  and  O2_22 
ROOT
HETATM    1  C6  UNL     1      24.306   2.262  50.142  1.00  0.00     0.151 C 
HETATM    2  C7  UNL     1      24.779   3.238  49.089  1.00  0.00     0.094 C 
HETATM    3  C8  UNL     1      25.928   3.924  49.734  1.00  0.00     0.067 C 
HETATM    4  N1  UNL     1      26.267   3.321  50.839  1.00  0.00    -0.173 NA
HETATM    5  N2  UNL     1      25.434   2.225  51.049  1.00  0.00    -0.236 N 
ENDROOT
BRANCH   1   6
HETATM    6  C5  UNL     1      23.071   2.731  50.816  1.00  0.00    -0.033 A 
HETATM    7  C4  UNL     1      21.961   2.050  50.362  1.00  0.00     0.012 A 
HETATM    8  C3  UNL     1      20.684   2.329  50.861  1.00  0.00     0.037 A 
HETATM    9  C2  UNL     1      20.573   3.319  51.833  1.00  0.00     0.068 A 
HETATM   10  C19 UNL     1      21.690   3.998  52.285  1.00  0.00     0.037 A 
HETATM   11  C18 UNL     1      22.928   3.710  51.783  1.00  0.00     0.012 A 
BRANCH   9  12
HETATM   12  O1  UNL     1      19.304   3.594  52.327  1.00  0.00    -0.356 OA
HETATM   13  C1  UNL     1      18.148   3.355  51.571  1.00  0.00     0.210 C 
ENDBRANCH   9  12
ENDBRANCH   1   6
BRANCH   5  14
HETATM   14  C15 UNL     1      25.825   1.315  52.068  1.00  0.00     0.192 A 
HETATM   15  N3  UNL     1      26.112   0.234  52.263  1.00  0.00    -0.198 NA
HETATM   16  C16 UNL     1      26.447  -0.350  53.398  1.00  0.00     0.171 A 
HETATM   17  C17 UNL     1      26.464   0.410  54.499  1.00  0.00     0.111 A 
HETATM   18  S1  UNL     1      25.959   2.055  53.815  1.00  0.00    -0.058 SA
BRANCH  16  19
HETATM   19  O2  UNL     1      26.771  -1.723  53.410  1.00  0.00    -0.344 OA
HETATM   20  H13 UNL     1      27.444  -2.031  54.118  1.00  0.00     0.219 HD
ENDBRANCH  16  19
ENDBRANCH   5  14
BRANCH   3  21
HETATM   21  C9  UNL     1      26.574   5.125  49.174  1.00  0.00    -0.010 A 
HETATM   22  C10 UNL     1      25.956   6.368  49.207  1.00  0.00     0.015 A 
HETATM   23  C11 UNL     1      26.505   7.509  48.704  1.00  0.00     0.024 A 
HETATM   24  C12 UNL     1      27.764   7.410  48.124  1.00  0.00     0.034 A 
HETATM   25 CL1  UNL     1      28.483   8.890  47.469  1.00  0.00    -0.084 Cl
HETATM   26  C13 UNL     1      28.419   6.192  48.068  1.00  0.00     0.024 A 
HETATM   27  C14 UNL     1      27.823   5.043  48.595  1.00  0.00     0.015 A 
ENDBRANCH   3  21
TORSDOF 5
ENDMDL
MODEL 8
REMARK VINA RESULT:      -7.6      4.955      8.475
REMARK  5 active torsions:
REMARK  status: ('A' for Active; 'I' for Inactive)
REMARK    1  A    between atoms: O1_2  and  C2_3 
REMARK    2  A    between atoms: C5_6  and  C6_7 
REMARK    3  A    between atoms: C8_9  and  C9_10 
REMARK    4  A    between atoms: N2_18  and  C15_19 
REMARK    5  A    between atoms: C16_21  and  O2_22 
ROOT
HETATM    1  C6  UNL     1      23.006   4.249  50.978  1.00  0.00     0.151 C 
HETATM    2  C7  UNL     1      24.241   5.116  50.878  1.00  0.00     0.094 C 
HETATM    3  C8  UNL     1      24.665   4.964  49.463  1.00  0.00     0.067 C 
HETATM    4  N1  UNL     1      23.748   4.355  48.766  1.00  0.00    -0.173 NA
HETATM    5  N2  UNL     1      22.664   4.048  49.585  1.00  0.00    -0.236 N 
ENDROOT
BRANCH   1   6
HETATM    6  C5  UNL     1      23.285   2.966  51.668  1.00  0.00    -0.033 A 
HETATM    7  C4  UNL     1      24.403   3.059  52.469  1.00  0.00     0.012 A 
HETATM    8  C3  UNL     1      24.854   1.966  53.216  1.00  0.00     0.037 A 
HETATM    9  C2  UNL     1      24.134   0.778  53.122  1.00  0.00     0.068 A 
HETATM   10  C19 UNL     1      23.014   0.691  52.316  1.00  0.00     0.037 A 
HETATM   11  C18 UNL     1      22.591   1.772  51.594  1.00  0.00     0.012 A 
BRANCH   9  12
HETATM   12  O1  UNL     1      24.584  -0.306  53.864  1.00  0.00    -0.356 OA
HETATM   13  C1  UNL     1      25.942  -0.639  53.939  1.00  0.00     0.210 C 
ENDBRANCH   9  12
ENDBRANCH   1   6
BRANCH   5  14
HETATM   14  C15 UNL     1      21.478   3.613  48.934  1.00  0.00     0.192 A 
HETATM   15  N3  UNL     1      20.495   3.070  49.100  1.00  0.00    -0.198 NA
HETATM   16  C16 UNL     1      19.532   2.803  48.237  1.00  0.00     0.171 A 
HETATM   17  C17 UNL     1      19.704   3.218  46.977  1.00  0.00     0.111 A 
HETATM   18  S1  UNL     1      21.362   4.034  47.083  1.00  0.00    -0.058 SA
BRANCH  16  19
HETATM   19  O2  UNL     1      18.381   2.108  48.665  1.00  0.00    -0.344 OA
HETATM   20  H13 UNL     1      18.524   1.361  49.351  1.00  0.00     0.219 HD
ENDBRANCH  16  19
ENDBRANCH   5  14
BRANCH   3  21
HETATM   21  C9  UNL     1      25.960   5.447  48.949  1.00  0.00    -0.010 A 
HETATM   22  C10 UNL     1      26.108   6.727  48.431  1.00  0.00     0.015 A 
HETATM   23  C11 UNL     1      27.279   7.224  47.943  1.00  0.00     0.024 A 
HETATM   24  C12 UNL     1      28.388   6.388  47.970  1.00  0.00     0.034 A 
HETATM   25 CL1  UNL     1      29.912   7.030  47.336  1.00  0.00    -0.084 Cl
HETATM   26  C13 UNL     1      28.290   5.104  48.476  1.00  0.00     0.024 A 
HETATM   27  C14 UNL     1      27.071   4.629  48.969  1.00  0.00     0.015 A 
ENDBRANCH   3  21
TORSDOF 5
ENDMDL
MODEL 9
REMARK VINA RESULT:      -7.3      6.982     10.342
REMARK  5 active torsions:
REMARK  status: ('A' for Active; 'I' for Inactive)
REMARK    1  A    between atoms: O1_2  and  C2_3 
REMARK    2  A    between atoms: C5_6  and  C6_7 
REMARK    3  A    between atoms: C8_9  and  C9_10 
REMARK    4  A    between atoms: N2_18  and  C15_19 
REMARK    5  A    between atoms: C16_21  and  O2_22 
ROOT
HETATM    1  C6  UNL     1      29.563   8.119  47.099  1.00  0.00     0.151 C 
HETATM    2  C7  UNL     1      28.681   6.892  47.067  1.00  0.00     0.094 C 
HETATM    3  C8  UNL     1      27.783   7.071  48.236  1.00  0.00     0.067 C 
HETATM    4  N1  UNL     1      27.897   8.272  48.729  1.00  0.00    -0.173 NA
HETATM    5  N2  UNL     1      28.829   8.996  47.988  1.00  0.00    -0.236 N 
ENDROOT
BRANCH   1   6
HETATM    6  C5  UNL     1      30.918   7.814  47.620  1.00  0.00    -0.033 A 
HETATM    7  C4  UNL     1      31.552   6.866  46.846  1.00  0.00     0.012 A 
HETATM    8  C3  UNL     1      32.843   6.424  47.152  1.00  0.00     0.037 A 
HETATM    9  C2  UNL     1      33.467   6.977  48.267  1.00  0.00     0.068 A 
HETATM   10  C19 UNL     1      32.825   7.927  49.040  1.00  0.00     0.037 A 
HETATM   11  C18 UNL     1      31.564   8.344  48.722  1.00  0.00     0.012 A 
BRANCH   9  12
HETATM   12  O1  UNL     1      34.749   6.536  48.569  1.00  0.00    -0.356 OA
HETATM   13  C1  UNL     1      35.058   5.174  48.678  1.00  0.00     0.210 C 
ENDBRANCH   9  12
ENDBRANCH   1   6
BRANCH   5  14
HETATM   14  C15 UNL     1      28.886  10.394  48.232  1.00  0.00     0.192 A 
HETATM   15  N3  UNL     1      28.519  11.214  48.927  1.00  0.00    -0.198 NA
HETATM   16  C16 UNL     1      28.761  12.511  48.890  1.00  0.00     0.171 A 
HETATM   17  C17 UNL     1      29.549  12.961  47.908  1.00  0.00     0.111 A 
HETATM   18  S1  UNL     1      29.942  11.393  47.005  1.00  0.00    -0.058 SA
BRANCH  16  19
HETATM   19  O2  UNL     1      28.194  13.356  49.868  1.00  0.00    -0.344 OA
HETATM   20  H13 UNL     1      28.460  14.344  49.831  1.00  0.00     0.219 HD
ENDBRANCH  16  19
ENDBRANCH   5  14
BRANCH   3  21
HETATM   21  C9  UNL     1      26.896   6.010  48.746  1.00  0.00    -0.010 A 
HETATM   22  C10 UNL     1      27.344   4.708  48.927  1.00  0.00     0.015 A 
HETATM   23  C11 UNL     1      26.569   3.690  49.394  1.00  0.00     0.024 A 
HETATM   24  C12 UNL     1      25.247   3.984  49.706  1.00  0.00     0.034 A 
HETATM   25 CL1  UNL     1      24.235   2.665  50.313  1.00  0.00    -0.084 Cl
HETATM   26  C13 UNL     1      24.754   5.268  49.543  1.00  0.00     0.024 A 
HETATM   27  C14 UNL     1      25.581   6.287  49.061  1.00  0.00     0.015 A 
ENDBRANCH   3  21
TORSDOF 5
ENDMDL
