MODEL 1
REMARK VINA RESULT:      -8.8      0.000      0.000
REMARK  2 active torsions:
REMARK  status: ('A' for Active; 'I' for Inactive)
REMARK    1  A    between atoms: N1_2  and  C2_3 
REMARK    2  A    between atoms: C12_15  and  O3_16 
ROOT
HETATM    1  C2  UNL     1      28.723  -0.499  54.176  1.00  0.00     0.090 C 
HETATM    2  C3  UNL     1      27.450  -0.470  53.922  1.00  0.00    -0.031 C 
HETATM    3  C4  UNL     1      26.765   0.474  54.885  1.00  0.00     0.151 C 
HETATM    4  C5  UNL     1      25.999   1.579  54.139  1.00  0.00     0.263 C 
HETATM    5  O1  UNL     1      26.037   2.817  53.921  1.00  0.00    -0.265 OA
HETATM    6  O2  UNL     1      24.919   1.441  53.413  1.00  0.00    -0.320 OA
HETATM    7  C6  UNL     1      23.849   1.365  52.681  1.00  0.00     0.191 C 
HETATM    8  C7  UNL     1      23.144  -0.055  52.572  1.00  0.00     0.064 C 
HETATM    9  C8  UNL     1      22.033   0.251  51.624  1.00  0.00    -0.015 C 
HETATM   10  C9  UNL     1      20.767   0.504  51.765  1.00  0.00    -0.003 C 
HETATM   11  C10 UNL     1      19.949   0.583  52.943  1.00  0.00    -0.001 C 
HETATM   12  C11 UNL     1      20.255   0.148  54.135  1.00  0.00     0.009 C 
HETATM   13  C12 UNL     1      21.448  -0.530  54.696  1.00  0.00     0.170 C 
HETATM   14  C13 UNL     1      22.670  -0.387  53.913  1.00  0.00    -0.041 C 
HETATM   15  C14 UNL     1      23.758  -0.640  54.646  1.00  0.00    -0.010 C 
HETATM   16  C15 UNL     1      24.774  -0.482  53.657  1.00  0.00     0.049 C 
HETATM   17  C16 UNL     1      26.084  -0.429  53.360  1.00  0.00    -0.067 C 
HETATM   18  C17 UNL     1      26.644  -0.291  52.022  1.00  0.00     0.044 C 
ENDROOT
BRANCH   1  19
HETATM   19  N1  UNL     1      29.499  -1.353  53.343  1.00  0.00    -0.403 N 
HETATM   20  C1  UNL     1      29.087  -2.728  53.140  1.00  0.00     0.145 C 
HETATM   21  H4  UNL     1      30.289  -0.793  52.998  1.00  0.00     0.158 HD
ENDBRANCH   1  19
BRANCH  13  22
HETATM   22  O3  UNL     1      21.190  -1.895  54.942  1.00  0.00    -0.387 OA
HETATM   23  H16 UNL     1      21.881  -2.418  54.476  1.00  0.00     0.210 HD
ENDBRANCH  13  22
TORSDOF 2
ENDMDL
MODEL 2
REMARK VINA RESULT:      -7.9      3.306      6.357
REMARK  2 active torsions:
REMARK  status: ('A' for Active; 'I' for Inactive)
REMARK    1  A    between atoms: N1_2  and  C2_3 
REMARK    2  A    between atoms: C12_15  and  O3_16 
ROOT
HETATM    1  C2  UNL     1      22.458   3.239  51.237  1.00  0.00     0.090 C 
HETATM    2  C3  UNL     1      23.471   2.602  51.740  1.00  0.00    -0.031 C 
HETATM    3  C4  UNL     1      24.409   2.187  50.630  1.00  0.00     0.151 C 
HETATM    4  C5  UNL     1      25.826   2.739  50.855  1.00  0.00     0.263 C 
HETATM    5  O1  UNL     1      26.632   3.580  50.382  1.00  0.00    -0.265 OA
HETATM    6  O2  UNL     1      26.675   2.384  51.785  1.00  0.00    -0.320 OA
HETATM    7  C6  UNL     1      27.558   2.074  52.685  1.00  0.00     0.191 C 
HETATM    8  C7  UNL     1      27.191   0.894  53.684  1.00  0.00     0.064 C 
HETATM    9  C8  UNL     1      28.390   0.890  54.573  1.00  0.00    -0.015 C 
HETATM   10  C9  UNL     1      29.468   0.170  54.636  1.00  0.00    -0.003 C 
HETATM   11  C10 UNL     1      29.910  -0.934  53.830  1.00  0.00    -0.001 C 
HETATM   12  C11 UNL     1      29.183  -1.637  53.005  1.00  0.00     0.009 C 
HETATM   13  C12 UNL     1      27.756  -1.583  52.606  1.00  0.00     0.170 C 
HETATM   14  C13 UNL     1      27.084  -0.317  52.874  1.00  0.00    -0.041 C 
HETATM   15  C14 UNL     1      25.976  -0.182  52.139  1.00  0.00    -0.010 C 
HETATM   16  C15 UNL     1      25.504   1.076  52.619  1.00  0.00     0.049 C 
HETATM   17  C16 UNL     1      24.618   2.081  52.515  1.00  0.00    -0.067 C 
HETATM   18  C17 UNL     1      24.536   3.234  53.402  1.00  0.00     0.044 C 
ENDROOT
BRANCH   1  19
HETATM   19  N1  UNL     1      21.486   3.692  52.173  1.00  0.00    -0.403 N 
HETATM   20  C1  UNL     1      20.378   2.829  52.533  1.00  0.00     0.145 C 
HETATM   21  H4  UNL     1      21.766   4.640  52.455  1.00  0.00     0.158 HD
ENDBRANCH   1  19
BRANCH  13  22
HETATM   22  O3  UNL     1      27.027  -2.648  53.176  1.00  0.00    -0.387 OA
HETATM   23  H16 UNL     1      26.221  -2.784  52.628  1.00  0.00     0.210 HD
ENDBRANCH  13  22
TORSDOF 2
ENDMDL
MODEL 3
REMARK VINA RESULT:      -7.5      3.626      5.782
REMARK  2 active torsions:
REMARK  status: ('A' for Active; 'I' for Inactive)
REMARK    1  A    between atoms: N1_2  and  C2_3 
REMARK    2  A    between atoms: C12_15  and  O3_16 
ROOT
HETATM    1  C2  UNL     1      22.621   3.709  48.271  1.00  0.00     0.090 C 
HETATM    2  C3  UNL     1      22.708   2.848  49.239  1.00  0.00    -0.031 C 
HETATM    3  C4  UNL     1      23.193   3.544  50.490  1.00  0.00     0.151 C 
HETATM    4  C5  UNL     1      22.205   3.361  51.654  1.00  0.00     0.263 C 
HETATM    5  O1  UNL     1      21.389   4.014  52.353  1.00  0.00    -0.265 OA
HETATM    6  O2  UNL     1      21.939   2.255  52.301  1.00  0.00    -0.320 OA
HETATM    7  C6  UNL     1      21.635   1.190  52.976  1.00  0.00     0.191 C 
HETATM    8  C7  UNL     1      22.436  -0.139  52.635  1.00  0.00     0.064 C 
HETATM    9  C8  UNL     1      21.769  -1.116  53.546  1.00  0.00    -0.015 C 
HETATM   10  C9  UNL     1      22.068  -1.623  54.704  1.00  0.00    -0.003 C 
HETATM   11  C10 UNL     1      23.202  -1.411  55.559  1.00  0.00    -0.001 C 
HETATM   12  C11 UNL     1      24.333  -0.849  55.229  1.00  0.00     0.009 C 
HETATM   13  C12 UNL     1      24.849  -0.261  53.969  1.00  0.00     0.170 C 
HETATM   14  C13 UNL     1      23.829   0.112  52.995  1.00  0.00    -0.041 C 
HETATM   15  C14 UNL     1      24.297   0.990  52.103  1.00  0.00    -0.010 C 
HETATM   16  C15 UNL     1      23.150   1.139  51.268  1.00  0.00     0.049 C 
HETATM   17  C16 UNL     1      22.557   1.772  50.241  1.00  0.00    -0.067 C 
HETATM   18  C17 UNL     1      21.243   1.455  49.695  1.00  0.00     0.044 C 
ENDROOT
BRANCH   1  19
HETATM   19  N1  UNL     1      22.174   3.191  47.022  1.00  0.00    -0.403 N 
HETATM   20  C1  UNL     1      21.855   4.101  45.940  1.00  0.00     0.145 C 
HETATM   21  H4  UNL     1      22.154   2.168  47.115  1.00  0.00     0.158 HD
ENDBRANCH   1  19
BRANCH  13  22
HETATM   22  O3  UNL     1      25.806  -1.104  53.367  1.00  0.00    -0.387 OA
HETATM   23  H16 UNL     1      26.669  -0.631  53.379  1.00  0.00     0.210 HD
ENDBRANCH  13  22
TORSDOF 2
ENDMDL
MODEL 4
REMARK VINA RESULT:      -7.4      3.382      6.593
REMARK  2 active torsions:
REMARK  status: ('A' for Active; 'I' for Inactive)
REMARK    1  A    between atoms: N1_2  and  C2_3 
REMARK    2  A    between atoms: C12_15  and  O3_16 
ROOT
HETATM    1  C2  UNL     1      18.883   1.638  51.212  1.00  0.00     0.090 C 
HETATM    2  C3  UNL     1      20.087   1.563  51.691  1.00  0.00    -0.031 C 
HETATM    3  C4  UNL     1      20.897   0.585  50.870  1.00  0.00     0.151 C 
HETATM    4  C5  UNL     1      22.161   1.244  50.295  1.00  0.00     0.263 C 
HETATM    5  O1  UNL     1      22.655   1.618  49.201  1.00  0.00    -0.265 OA
HETATM    6  O2  UNL     1      23.213   1.650  50.958  1.00  0.00    -0.320 OA
HETATM    7  C6  UNL     1      24.282   2.072  51.562  1.00  0.00     0.191 C 
HETATM    8  C7  UNL     1      24.377   1.821  53.128  1.00  0.00     0.064 C 
HETATM    9  C8  UNL     1      25.675   2.487  53.445  1.00  0.00    -0.015 C 
HETATM   10  C9  UNL     1      26.887   2.064  53.634  1.00  0.00    -0.003 C 
HETATM   11  C10 UNL     1      27.435   0.736  53.602  1.00  0.00    -0.001 C 
HETATM   12  C11 UNL     1      26.767  -0.384  53.636  1.00  0.00     0.009 C 
HETATM   13  C12 UNL     1      25.322  -0.706  53.712  1.00  0.00     0.170 C 
HETATM   14  C13 UNL     1      24.424   0.373  53.314  1.00  0.00    -0.041 C 
HETATM   15  C14 UNL     1      23.209  -0.087  53.003  1.00  0.00    -0.010 C 
HETATM   16  C15 UNL     1      22.541   1.139  52.708  1.00  0.00     0.049 C 
HETATM   17  C16 UNL     1      21.438   1.762  52.259  1.00  0.00    -0.067 C 
HETATM   18  C17 UNL     1      21.237   3.205  52.218  1.00  0.00     0.044 C 
ENDROOT
BRANCH   1  19
HETATM   19  N1  UNL     1      18.003   2.527  51.891  1.00  0.00    -0.403 N 
HETATM   20  C1  UNL     1      17.566   3.745  51.236  1.00  0.00     0.145 C 
HETATM   21  H4  UNL     1      17.813   2.112  52.812  1.00  0.00     0.158 HD
ENDBRANCH   1  19
BRANCH  13  22
HETATM   22  O3  UNL     1      24.970  -1.178  54.994  1.00  0.00    -0.387 OA
HETATM   23  H16 UNL     1      25.787  -1.186  55.543  1.00  0.00     0.210 HD
ENDBRANCH  13  22
TORSDOF 2
ENDMDL
MODEL 5
REMARK VINA RESULT:      -7.4      2.062      3.176
REMARK  2 active torsions:
REMARK  status: ('A' for Active; 'I' for Inactive)
REMARK    1  A    between atoms: N1_2  and  C2_3 
REMARK    2  A    between atoms: C12_15  and  O3_16 
ROOT
HETATM    1  C2  UNL     1      28.481   1.617  53.072  1.00  0.00     0.090 C 
HETATM    2  C3  UNL     1      27.190   1.481  53.057  1.00  0.00    -0.031 C 
HETATM    3  C4  UNL     1      26.797   0.521  51.957  1.00  0.00     0.151 C 
HETATM    4  C5  UNL     1      25.988  -0.665  52.508  1.00  0.00     0.263 C 
HETATM    5  O1  UNL     1      26.083  -1.903  52.706  1.00  0.00    -0.265 OA
HETATM    6  O2  UNL     1      24.775  -0.636  52.997  1.00  0.00    -0.320 OA
HETATM    7  C6  UNL     1      23.575  -0.668  53.493  1.00  0.00     0.191 C 
HETATM    8  C7  UNL     1      22.749   0.688  53.481  1.00  0.00     0.064 C 
HETATM    9  C8  UNL     1      21.496   0.265  54.173  1.00  0.00    -0.015 C 
HETATM   10  C9  UNL     1      20.311  -0.080  53.769  1.00  0.00    -0.003 C 
HETATM   11  C10 UNL     1      19.760  -0.180  52.446  1.00  0.00    -0.001 C 
HETATM   12  C11 UNL     1      20.267   0.318  51.351  1.00  0.00     0.009 C 
HETATM   13  C12 UNL     1      21.489   1.106  51.061  1.00  0.00     0.170 C 
HETATM   14  C13 UNL     1      22.532   1.029  52.077  1.00  0.00    -0.041 C 
HETATM   15  C14 UNL     1      23.723   1.391  51.589  1.00  0.00    -0.010 C 
HETATM   16  C15 UNL     1      24.524   1.277  52.764  1.00  0.00     0.049 C 
HETATM   17  C16 UNL     1      25.745   1.315  53.324  1.00  0.00    -0.067 C 
HETATM   18  C17 UNL     1      26.030   1.174  54.746  1.00  0.00     0.044 C 
ENDROOT
BRANCH   1  19
HETATM   19  N1  UNL     1      28.997   2.499  54.064  1.00  0.00    -0.403 N 
HETATM   20  C1  UNL     1      30.043   2.041  54.957  1.00  0.00     0.145 C 
HETATM   21  H4  UNL     1      28.492   3.387  53.962  1.00  0.00     0.158 HD
ENDBRANCH   1  19
BRANCH  13  22
HETATM   22  O3  UNL     1      21.174   2.454  50.792  1.00  0.00    -0.387 OA
HETATM   23  H16 UNL     1      20.424   2.708  51.376  1.00  0.00     0.210 HD
ENDBRANCH  13  22
TORSDOF 2
ENDMDL
MODEL 6
REMARK VINA RESULT:      -7.3      3.651      4.238
REMARK  2 active torsions:
REMARK  status: ('A' for Active; 'I' for Inactive)
REMARK    1  A    between atoms: N1_2  and  C2_3 
REMARK    2  A    between atoms: C12_15  and  O3_16 
ROOT
HETATM    1  C2  UNL     1      26.055   3.911  50.461  1.00  0.00     0.090 C 
HETATM    2  C3  UNL     1      25.031   3.155  50.717  1.00  0.00    -0.031 C 
HETATM    3  C4  UNL     1      24.530   3.441  52.114  1.00  0.00     0.151 C 
HETATM    4  C5  UNL     1      23.051   3.859  52.107  1.00  0.00     0.263 C 
HETATM    5  O1  UNL     1      22.318   4.861  52.307  1.00  0.00    -0.265 OA
HETATM    6  O2  UNL     1      22.017   3.107  51.827  1.00  0.00    -0.320 OA
HETATM    7  C6  UNL     1      20.955   2.410  51.558  1.00  0.00     0.191 C 
HETATM    8  C7  UNL     1      21.160   0.863  51.258  1.00  0.00     0.064 C 
HETATM    9  C8  UNL     1      19.762   0.447  50.941  1.00  0.00    -0.015 C 
HETATM   10  C9  UNL     1      18.819  -0.142  51.611  1.00  0.00    -0.003 C 
HETATM   11  C10 UNL     1      18.787  -0.625  52.964  1.00  0.00    -0.001 C 
HETATM   12  C11 UNL     1      19.812  -0.816  53.748  1.00  0.00     0.009 C 
HETATM   13  C12 UNL     1      21.273  -0.630  53.577  1.00  0.00     0.170 C 
HETATM   14  C13 UNL     1      21.662   0.264  52.492  1.00  0.00    -0.041 C 
HETATM   15  C14 UNL     1      22.911   0.714  52.649  1.00  0.00    -0.010 C 
HETATM   16  C15 UNL     1      23.048   1.499  51.465  1.00  0.00     0.049 C 
HETATM   17  C16 UNL     1      23.785   2.360  50.742  1.00  0.00    -0.067 C 
HETATM   18  C17 UNL     1      23.445   2.860  49.416  1.00  0.00     0.044 C 
ENDROOT
BRANCH   1  19
HETATM   19  N1  UNL     1      26.635   3.748  49.171  1.00  0.00    -0.403 N 
HETATM   20  C1  UNL     1      27.558   4.746  48.667  1.00  0.00     0.145 C 
HETATM   21  H4  UNL     1      26.264   2.870  48.787  1.00  0.00     0.158 HD
ENDBRANCH   1  19
BRANCH  13  22
HETATM   22  O3  UNL     1      21.933  -1.870  53.441  1.00  0.00    -0.387 OA
HETATM   23  H16 UNL     1      22.175  -1.976  52.492  1.00  0.00     0.210 HD
ENDBRANCH  13  22
TORSDOF 2
ENDMDL
MODEL 7
REMARK VINA RESULT:      -7.2      3.820      6.528
REMARK  2 active torsions:
REMARK  status: ('A' for Active; 'I' for Inactive)
REMARK    1  A    between atoms: N1_2  and  C2_3 
REMARK    2  A    between atoms: C12_15  and  O3_16 
ROOT
HETATM    1  C2  UNL     1      21.770   4.011  48.182  1.00  0.00     0.090 C 
HETATM    2  C3  UNL     1      22.461   3.359  49.066  1.00  0.00    -0.031 C 
HETATM    3  C4  UNL     1      22.743   4.257  50.249  1.00  0.00     0.151 C 
HETATM    4  C5  UNL     1      22.222   3.641  51.558  1.00  0.00     0.263 C 
HETATM    5  O1  UNL     1      21.331   3.811  52.430  1.00  0.00    -0.265 OA
HETATM    6  O2  UNL     1      22.684   2.584  52.175  1.00  0.00    -0.320 OA
HETATM    7  C6  UNL     1      23.099   1.543  52.830  1.00  0.00     0.191 C 
HETATM    8  C7  UNL     1      24.389   0.802  52.272  1.00  0.00     0.064 C 
HETATM    9  C8  UNL     1      24.498  -0.339  53.229  1.00  0.00    -0.015 C 
HETATM   10  C9  UNL     1      25.221  -0.572  54.282  1.00  0.00    -0.003 C 
HETATM   11  C10 UNL     1      26.222   0.229  54.931  1.00  0.00    -0.001 C 
HETATM   12  C11 UNL     1      26.822   1.278  54.438  1.00  0.00     0.009 C 
HETATM   13  C12 UNL     1      26.721   1.994  53.143  1.00  0.00     0.170 C 
HETATM   14  C13 UNL     1      25.495   1.748  52.392  1.00  0.00    -0.041 C 
HETATM   15  C14 UNL     1      25.274   2.704  51.484  1.00  0.00    -0.010 C 
HETATM   16  C15 UNL     1      24.081   2.207  50.878  1.00  0.00     0.049 C 
HETATM   17  C16 UNL     1      23.070   2.401  50.013  1.00  0.00    -0.067 C 
HETATM   18  C17 UNL     1      22.031   1.432  49.694  1.00  0.00     0.044 C 
ENDROOT
BRANCH   1  19
HETATM   19  N1  UNL     1      21.430   3.285  47.005  1.00  0.00    -0.403 N 
HETATM   20  C1  UNL     1      21.839   3.787  45.708  1.00  0.00     0.145 C 
HETATM   21  H4  UNL     1      20.905   2.455  47.310  1.00  0.00     0.158 HD
ENDBRANCH   1  19
BRANCH  13  22
HETATM   22  O3  UNL     1      27.845   1.738  52.330  1.00  0.00    -0.387 OA
HETATM   23  H16 UNL     1      28.371   1.028  52.764  1.00  0.00     0.210 HD
ENDBRANCH  13  22
TORSDOF 2
ENDMDL
MODEL 8
REMARK VINA RESULT:      -7.1      5.348      7.806
REMARK  2 active torsions:
REMARK  status: ('A' for Active; 'I' for Inactive)
REMARK    1  A    between atoms: N1_2  and  C2_3 
REMARK    2  A    between atoms: C12_15  and  O3_16 
ROOT
HETATM    1  C2  UNL     1      21.899   0.878  51.079  1.00  0.00     0.090 C 
HETATM    2  C3  UNL     1      22.690   1.889  50.884  1.00  0.00    -0.031 C 
HETATM    3  C4  UNL     1      22.842   2.131  49.399  1.00  0.00     0.151 C 
HETATM    4  C5  UNL     1      22.433   3.563  49.019  1.00  0.00     0.263 C 
HETATM    5  O1  UNL     1      21.535   4.191  48.401  1.00  0.00    -0.265 OA
HETATM    6  O2  UNL     1      23.057   4.672  49.324  1.00  0.00    -0.320 OA
HETATM    7  C6  UNL     1      23.633   5.803  49.596  1.00  0.00     0.191 C 
HETATM    8  C7  UNL     1      25.015   5.745  50.377  1.00  0.00     0.064 C 
HETATM    9  C8  UNL     1      25.306   7.199  50.551  1.00  0.00    -0.015 C 
HETATM   10  C9  UNL     1      26.066   8.050  49.931  1.00  0.00    -0.003 C 
HETATM   11  C10 UNL     1      26.939   7.884  48.803  1.00  0.00    -0.001 C 
HETATM   12  C11 UNL     1      27.366   6.755  48.307  1.00  0.00     0.009 C 
HETATM   13  C12 UNL     1      27.146   5.335  48.670  1.00  0.00     0.170 C 
HETATM   14  C13 UNL     1      25.965   5.080  49.488  1.00  0.00    -0.041 C 
HETATM   15  C14 UNL     1      25.592   3.798  49.428  1.00  0.00    -0.010 C 
HETATM   16  C15 UNL     1      24.484   3.814  50.327  1.00  0.00     0.049 C 
HETATM   17  C16 UNL     1      23.447   3.158  50.877  1.00  0.00    -0.067 C 
HETATM   18  C17 UNL     1      22.565   3.684  51.911  1.00  0.00     0.044 C 
ENDROOT
BRANCH   1  19
HETATM   19  N1  UNL     1      21.663   0.532  52.440  1.00  0.00    -0.403 N 
HETATM   20  C1  UNL     1      22.599  -0.329  53.135  1.00  0.00     0.145 C 
HETATM   21  H4  UNL     1      20.790   0.998  52.717  1.00  0.00     0.158 HD
ENDBRANCH   1  19
BRANCH  13  22
HETATM   22  O3  UNL     1      28.288   4.783  49.286  1.00  0.00    -0.387 OA
HETATM   23  H16 UNL     1      28.495   5.332  50.076  1.00  0.00     0.210 HD
ENDBRANCH  13  22
TORSDOF 2
ENDMDL
MODEL 9
REMARK VINA RESULT:      -6.9      2.638      4.288
REMARK  2 active torsions:
REMARK  status: ('A' for Active; 'I' for Inactive)
REMARK    1  A    between atoms: N1_2  and  C2_3 
REMARK    2  A    between atoms: C12_15  and  O3_16 
ROOT
HETATM    1  C2  UNL     1      27.970  -1.132  53.297  1.00  0.00     0.090 C 
HETATM    2  C3  UNL     1      27.208  -0.128  52.983  1.00  0.00    -0.031 C 
HETATM    3  C4  UNL     1      26.071  -0.612  52.111  1.00  0.00     0.151 C 
HETATM    4  C5  UNL     1      24.705  -0.263  52.724  1.00  0.00     0.263 C 
HETATM    5  O1  UNL     1      23.707  -0.810  53.259  1.00  0.00    -0.265 OA
HETATM    6  O2  UNL     1      24.177   0.927  52.855  1.00  0.00    -0.320 OA
HETATM    7  C6  UNL     1      23.604   2.081  53.012  1.00  0.00     0.191 C 
HETATM    8  C7  UNL     1      24.359   3.351  52.429  1.00  0.00     0.064 C 
HETATM    9  C8  UNL     1      23.442   4.449  52.856  1.00  0.00    -0.015 C 
HETATM   10  C9  UNL     1      22.514   5.136  52.263  1.00  0.00    -0.003 C 
HETATM   11  C10 UNL     1      22.015   5.077  50.917  1.00  0.00    -0.001 C 
HETATM   12  C11 UNL     1      22.582   4.486  49.901  1.00  0.00     0.009 C 
HETATM   13  C12 UNL     1      23.838   3.715  49.742  1.00  0.00     0.170 C 
HETATM   14  C13 UNL     1      24.398   3.180  50.978  1.00  0.00    -0.041 C 
HETATM   15  C14 UNL     1      25.251   2.179  50.740  1.00  0.00    -0.010 C 
HETATM   16  C15 UNL     1      25.675   1.884  52.070  1.00  0.00     0.049 C 
HETATM   17  C16 UNL     1      26.374   1.090  52.899  1.00  0.00    -0.067 C 
HETATM   18  C17 UNL     1      26.543   1.298  54.331  1.00  0.00     0.044 C 
ENDROOT
BRANCH   1  19
HETATM   19  N1  UNL     1      29.089  -0.823  54.121  1.00  0.00    -0.403 N 
HETATM   20  C1  UNL     1      30.058   0.160  53.677  1.00  0.00     0.145 C 
HETATM   21  H4  UNL     1      29.006  -1.404  54.964  1.00  0.00     0.158 HD
ENDBRANCH   1  19
BRANCH  13  22
HETATM   22  O3  UNL     1      24.815   4.467  49.056  1.00  0.00    -0.387 OA
HETATM   23  H16 UNL     1      24.603   4.425  48.096  1.00  0.00     0.210 HD
ENDBRANCH  13  22
TORSDOF 2
ENDMDL
