MODEL 1
REMARK VINA RESULT:      -9.2      0.000      0.000
REMARK  0 active torsions:
REMARK  status: ('A' for Active; 'I' for Inactive)
REMARK       I    between atoms: C2_2  and  N1_4 
ROOT
HETATM    1  C1  UNL     1      19.465   0.432  51.596  1.00  0.00     0.117 C 
HETATM    2  C2  UNL     1      20.845   0.789  51.972  1.00  0.00     0.215 C 
HETATM    3  O1  UNL     1      21.615  -0.233  51.908  1.00  0.00    -0.274 OA
HETATM    4  N1  UNL     1      21.250   2.138  52.359  1.00  0.00    -0.349 N 
HETATM    5  C3  UNL     1      20.499   3.312  52.486  1.00  0.00     0.155 C 
HETATM    6  C4  UNL     1      20.289   4.349  51.504  1.00  0.00     0.289 C 
HETATM    7  N2  UNL     1      19.712   4.035  50.209  1.00  0.00     0.085 NA
HETATM    8  C5  UNL     1      19.916   5.237  49.411  1.00  0.00     0.270 C 
HETATM    9  C6  UNL     1      19.602   5.219  47.987  1.00  0.00     0.035 C 
HETATM   10  C7  UNL     1      20.206   4.306  47.038  1.00  0.00    -0.008 C 
HETATM   11  C8  UNL     1      19.890   2.858  47.032  1.00  0.00     0.011 C 
HETATM   12  C9  UNL     1      20.911   2.115  47.832  1.00  0.00     0.059 C 
HETATM   13  C10 UNL     1      21.932   3.105  48.338  1.00  0.00     0.033 A 
HETATM   14  C11 UNL     1      22.499   4.235  48.051  1.00  0.00    -0.019 A 
HETATM   15  C12 UNL     1      21.741   4.472  46.849  1.00  0.00     0.046 C 
HETATM   16  C13 UNL     1      23.494   4.792  48.930  1.00  0.00     0.028 A 
HETATM   17  C14 UNL     1      23.959   4.327  50.051  1.00  0.00     0.126 A 
HETATM   18  N3  UNL     1      23.529   3.112  50.607  1.00  0.00    -0.293 N 
HETATM   19  N4  UNL     1      22.724   3.076  49.494  1.00  0.00    -0.302 N 
HETATM   20  C15 UNL     1      23.643   2.142  51.619  1.00  0.00     0.154 C 
HETATM   21  C16 UNL     1      22.648   2.145  52.744  1.00  0.00     0.155 C 
HETATM   22  C17 UNL     1      25.067   2.182  52.166  1.00  0.00     0.154 C 
HETATM   23  O2  UNL     1      24.975   1.347  53.297  1.00  0.00    -0.383 OA
HETATM   24  C18 UNL     1      26.166   0.994  53.854  1.00  0.00     0.168 C 
HETATM   25  C19 UNL     1      27.210   2.081  53.608  1.00  0.00     0.027 C 
HETATM   26  C20 UNL     1      27.462   2.057  52.114  1.00  0.00     0.011 C 
HETATM   27  C21 UNL     1      26.162   1.694  51.334  1.00  0.00     0.041 C 
HETATM   28  C22 UNL     1      26.417   2.374  49.993  1.00  0.00     0.181 C 
HETATM   29  O3  UNL     1      26.998   3.608  50.165  1.00  0.00    -0.363 OA
HETATM   30  C23 UNL     1      27.188   4.765  49.576  1.00  0.00     0.134 C 
HETATM   31  C24 UNL     1      26.525   5.770  48.954  1.00  0.00     0.027 C 
HETATM   32  C25 UNL     1      25.340   6.410  48.446  1.00  0.00     0.045 C 
HETATM   33  C26 UNL     1      24.076   6.041  48.421  1.00  0.00     0.128 C 
HETATM   34  F1  UNL     1      23.181   6.887  47.865  1.00  0.00    -0.205 F 
HETATM   35  H8  UNL     1      18.710   3.771  50.249  1.00  0.00     0.315 HD
HETATM   36  H21 UNL     1      21.957   2.499  49.991  1.00  0.00     0.186 HD
ENDROOT
TORSDOF 0
ENDMDL
MODEL 2
REMARK VINA RESULT:      -9.1      3.629      6.671
REMARK  0 active torsions:
REMARK  status: ('A' for Active; 'I' for Inactive)
REMARK       I    between atoms: C2_2  and  N1_4 
ROOT
HETATM    1  C1  UNL     1      19.771   7.359  49.638  1.00  0.00     0.117 C 
HETATM    2  C2  UNL     1      20.926   8.074  49.064  1.00  0.00     0.215 C 
HETATM    3  O1  UNL     1      21.125   9.184  49.673  1.00  0.00    -0.274 OA
HETATM    4  N1  UNL     1      21.719   7.559  47.951  1.00  0.00    -0.349 N 
HETATM    5  C3  UNL     1      21.581   6.386  47.202  1.00  0.00     0.155 C 
HETATM    6  C4  UNL     1      22.225   5.110  47.412  1.00  0.00     0.289 C 
HETATM    7  N2  UNL     1      22.079   4.407  48.674  1.00  0.00     0.085 NA
HETATM    8  C5  UNL     1      23.069   3.340  48.621  1.00  0.00     0.270 C 
HETATM    9  C6  UNL     1      23.316   2.527  49.805  1.00  0.00     0.035 C 
HETATM   10  C7  UNL     1      23.747   3.064  51.080  1.00  0.00    -0.008 C 
HETATM   11  C8  UNL     1      22.845   3.872  51.936  1.00  0.00     0.011 C 
HETATM   12  C9  UNL     1      23.063   5.326  51.667  1.00  0.00     0.059 C 
HETATM   13  C10 UNL     1      24.158   5.462  50.638  1.00  0.00     0.033 A 
HETATM   14  C11 UNL     1      25.230   4.883  50.194  1.00  0.00    -0.019 A 
HETATM   15  C12 UNL     1      25.147   3.743  51.070  1.00  0.00     0.046 C 
HETATM   16  C13 UNL     1      25.976   5.470  49.112  1.00  0.00     0.028 A 
HETATM   17  C14 UNL     1      25.746   6.562  48.446  1.00  0.00     0.126 A 
HETATM   18  N3  UNL     1      24.652   7.400  48.715  1.00  0.00    -0.293 N 
HETATM   19  N4  UNL     1      24.378   6.459  49.678  1.00  0.00    -0.302 N 
HETATM   20  C15 UNL     1      23.949   8.588  48.446  1.00  0.00     0.154 C 
HETATM   21  C16 UNL     1      22.729   8.528  47.572  1.00  0.00     0.155 C 
HETATM   22  C17 UNL     1      24.936   9.622  47.914  1.00  0.00     0.154 C 
HETATM   23  O2  UNL     1      24.081  10.655  47.479  1.00  0.00    -0.383 OA
HETATM   24  C18 UNL     1      24.699  11.828  47.177  1.00  0.00     0.168 C 
HETATM   25  C19 UNL     1      26.128  11.570  46.703  1.00  0.00     0.027 C 
HETATM   26  C20 UNL     1      26.862  11.052  47.923  1.00  0.00     0.011 C 
HETATM   27  C21 UNL     1      25.916  10.203  48.826  1.00  0.00     0.041 C 
HETATM   28  C22 UNL     1      26.912   9.276  49.514  1.00  0.00     0.181 C 
HETATM   29  O3  UNL     1      27.875   8.842  48.636  1.00  0.00    -0.363 OA
HETATM   30  C23 UNL     1      28.759   7.892  48.438  1.00  0.00     0.134 C 
HETATM   31  C24 UNL     1      28.887   6.544  48.393  1.00  0.00     0.027 C 
HETATM   32  C25 UNL     1      28.385   5.198  48.489  1.00  0.00     0.045 C 
HETATM   33  C26 UNL     1      27.193   4.718  48.779  1.00  0.00     0.128 C 
HETATM   34  F1  UNL     1      27.036   3.375  48.782  1.00  0.00    -0.205 F 
HETATM   35  H8  UNL     1      21.125   4.033  48.838  1.00  0.00     0.315 HD
HETATM   36  H21 UNL     1      23.313   6.641  49.640  1.00  0.00     0.186 HD
ENDROOT
TORSDOF 0
ENDMDL
MODEL 3
REMARK VINA RESULT:      -8.7      2.972      7.342
REMARK  0 active torsions:
REMARK  status: ('A' for Active; 'I' for Inactive)
REMARK       I    between atoms: C2_2  and  N1_4 
ROOT
HETATM    1  C1  UNL     1      24.219   5.890  49.343  1.00  0.00     0.117 C 
HETATM    2  C2  UNL     1      22.836   5.421  49.550  1.00  0.00     0.215 C 
HETATM    3  O1  UNL     1      22.288   5.109  48.435  1.00  0.00    -0.274 OA
HETATM    4  N1  UNL     1      22.205   5.334  50.864  1.00  0.00    -0.349 N 
HETATM    5  C3  UNL     1      22.694   5.666  52.132  1.00  0.00     0.155 C 
HETATM    6  C4  UNL     1      23.338   4.805  53.095  1.00  0.00     0.289 C 
HETATM    7  N2  UNL     1      24.543   4.074  52.744  1.00  0.00     0.085 NA
HETATM    8  C5  UNL     1      24.730   3.123  53.832  1.00  0.00     0.270 C 
HETATM    9  C6  UNL     1      25.766   2.103  53.727  1.00  0.00     0.035 C 
HETATM   10  C7  UNL     1      25.829   1.122  52.662  1.00  0.00    -0.008 C 
HETATM   11  C8  UNL     1      26.186   1.496  51.272  1.00  0.00     0.011 C 
HETATM   12  C9  UNL     1      24.941   1.733  50.478  1.00  0.00     0.059 C 
HETATM   13  C10 UNL     1      23.751   1.471  51.368  1.00  0.00     0.033 A 
HETATM   14  C11 UNL     1      23.362   0.766  52.384  1.00  0.00    -0.019 A 
HETATM   15  C12 UNL     1      24.634   0.128  52.609  1.00  0.00     0.046 C 
HETATM   16  C13 UNL     1      22.018   0.894  52.884  1.00  0.00     0.028 A 
HETATM   17  C14 UNL     1      21.050   1.652  52.465  1.00  0.00     0.126 A 
HETATM   18  N3  UNL     1      21.183   2.521  51.372  1.00  0.00    -0.293 N 
HETATM   19  N4  UNL     1      22.463   2.022  51.341  1.00  0.00    -0.302 N 
HETATM   20  C15 UNL     1      20.599   3.449  50.490  1.00  0.00     0.154 C 
HETATM   21  C16 UNL     1      20.824   4.915  50.723  1.00  0.00     0.155 C 
HETATM   22  C17 UNL     1      19.107   3.146  50.393  1.00  0.00     0.154 C 
HETATM   23  O2  UNL     1      18.622   4.262  49.682  1.00  0.00    -0.383 OA
HETATM   24  C18 UNL     1      17.344   4.149  49.229  1.00  0.00     0.168 C 
HETATM   25  C19 UNL     1      16.535   3.232  50.144  1.00  0.00     0.027 C 
HETATM   26  C20 UNL     1      17.134   1.854  49.953  1.00  0.00     0.011 C 
HETATM   27  C21 UNL     1      18.669   1.942  49.694  1.00  0.00     0.041 C 
HETATM   28  C22 UNL     1      19.139   0.587  50.212  1.00  0.00     0.181 C 
HETATM   29  O3  UNL     1      18.484   0.244  51.370  1.00  0.00    -0.363 OA
HETATM   30  C23 UNL     1      18.572  -0.518  52.435  1.00  0.00     0.134 C 
HETATM   31  C24 UNL     1      19.403  -0.833  53.457  1.00  0.00     0.027 C 
HETATM   32  C25 UNL     1      20.633  -0.725  54.198  1.00  0.00     0.045 C 
HETATM   33  C26 UNL     1      21.729  -0.022  53.996  1.00  0.00     0.128 C 
HETATM   34  F1  UNL     1      22.729  -0.136  54.898  1.00  0.00    -0.205 F 
HETATM   35  H8  UNL     1      25.377   4.676  52.617  1.00  0.00     0.315 HD
HETATM   36  H21 UNL     1      22.872   2.927  50.916  1.00  0.00     0.186 HD
ENDROOT
TORSDOF 0
ENDMDL
MODEL 4
REMARK VINA RESULT:      -8.7      2.529      5.792
REMARK  0 active torsions:
REMARK  status: ('A' for Active; 'I' for Inactive)
REMARK       I    between atoms: C2_2  and  N1_4 
ROOT
HETATM    1  C1  UNL     1      23.946   5.318  49.439  1.00  0.00     0.117 C 
HETATM    2  C2  UNL     1      23.798   4.069  50.209  1.00  0.00     0.215 C 
HETATM    3  O1  UNL     1      24.093   4.256  51.442  1.00  0.00    -0.274 OA
HETATM    4  N1  UNL     1      23.369   2.805  49.618  1.00  0.00    -0.349 N 
HETATM    5  C3  UNL     1      23.046   2.483  48.296  1.00  0.00     0.155 C 
HETATM    6  C4  UNL     1      21.746   2.479  47.668  1.00  0.00     0.289 C 
HETATM    7  N2  UNL     1      20.932   3.681  47.648  1.00  0.00     0.085 NA
HETATM    8  C5  UNL     1      19.618   3.233  47.203  1.00  0.00     0.270 C 
HETATM    9  C6  UNL     1      18.495   4.161  47.225  1.00  0.00     0.035 C 
HETATM   10  C7  UNL     1      18.024   4.833  48.419  1.00  0.00    -0.008 C 
HETATM   11  C8  UNL     1      18.807   5.910  49.073  1.00  0.00     0.011 C 
HETATM   12  C9  UNL     1      19.639   5.332  50.173  1.00  0.00     0.059 C 
HETATM   13  C10 UNL     1      19.359   3.851  50.254  1.00  0.00     0.033 A 
HETATM   14  C11 UNL     1      18.437   2.966  50.042  1.00  0.00    -0.019 A 
HETATM   15  C12 UNL     1      17.465   3.895  49.527  1.00  0.00     0.046 C 
HETATM   16  C13 UNL     1      18.694   1.573  50.304  1.00  0.00     0.028 A 
HETATM   17  C14 UNL     1      19.773   1.002  50.750  1.00  0.00     0.126 A 
HETATM   18  N3  UNL     1      20.935   1.719  51.073  1.00  0.00    -0.293 N 
HETATM   19  N4  UNL     1      20.183   2.798  50.675  1.00  0.00    -0.302 N 
HETATM   20  C15 UNL     1      22.247   1.725  51.581  1.00  0.00     0.154 C 
HETATM   21  C16 UNL     1      23.399   1.755  50.617  1.00  0.00     0.155 C 
HETATM   22  C17 UNL     1      22.393   0.556  52.550  1.00  0.00     0.154 C 
HETATM   23  O2  UNL     1      23.780   0.543  52.796  1.00  0.00    -0.383 OA
HETATM   24  C18 UNL     1      24.177  -0.250  53.828  1.00  0.00     0.168 C 
HETATM   25  C19 UNL     1      23.213  -1.421  54.000  1.00  0.00     0.027 C 
HETATM   26  C20 UNL     1      21.915  -0.798  54.472  1.00  0.00     0.011 C 
HETATM   27  C21 UNL     1      21.708   0.611  53.838  1.00  0.00     0.041 C 
HETATM   28  C22 UNL     1      20.187   0.725  53.851  1.00  0.00     0.181 C 
HETATM   29  O3  UNL     1      19.597  -0.466  53.503  1.00  0.00    -0.363 OA
HETATM   30  C23 UNL     1      18.486  -0.986  53.038  1.00  0.00     0.134 C 
HETATM   31  C24 UNL     1      17.599  -0.877  52.020  1.00  0.00     0.027 C 
HETATM   32  C25 UNL     1      17.097  -0.288  50.806  1.00  0.00     0.045 C 
HETATM   33  C26 UNL     1      17.523   0.719  50.070  1.00  0.00     0.128 C 
HETATM   34  F1  UNL     1      16.819   1.031  48.959  1.00  0.00    -0.205 F 
HETATM   35  H8  UNL     1      21.305   4.431  47.036  1.00  0.00     0.315 HD
HETATM   36  H21 UNL     1      21.047   3.362  50.356  1.00  0.00     0.186 HD
ENDROOT
TORSDOF 0
ENDMDL
MODEL 5
REMARK VINA RESULT:      -8.7      2.809      5.829
REMARK  0 active torsions:
REMARK  status: ('A' for Active; 'I' for Inactive)
REMARK       I    between atoms: C2_2  and  N1_4 
ROOT
HETATM    1  C1  UNL     1      17.910   4.520  49.064  1.00  0.00     0.117 C 
HETATM    2  C2  UNL     1      19.046   5.123  48.343  1.00  0.00     0.215 C 
HETATM    3  O1  UNL     1      19.021   6.401  48.438  1.00  0.00    -0.274 OA
HETATM    4  N1  UNL     1      20.051   4.342  47.626  1.00  0.00    -0.349 N 
HETATM    5  C3  UNL     1      20.164   2.961  47.438  1.00  0.00     0.155 C 
HETATM    6  C4  UNL     1      20.914   2.010  48.224  1.00  0.00     0.289 C 
HETATM    7  N2  UNL     1      20.665   1.867  49.647  1.00  0.00     0.085 NA
HETATM    8  C5  UNL     1      21.771   1.054  50.137  1.00  0.00     0.270 C 
HETATM    9  C6  UNL     1      21.932   0.847  51.571  1.00  0.00     0.035 C 
HETATM   10  C7  UNL     1      22.102   1.921  52.529  1.00  0.00    -0.008 C 
HETATM   11  C8  UNL     1      20.994   2.841  52.880  1.00  0.00     0.011 C 
HETATM   12  C9  UNL     1      21.078   4.075  52.040  1.00  0.00     0.059 C 
HETATM   13  C10 UNL     1      22.291   3.963  51.149  1.00  0.00     0.033 A 
HETATM   14  C11 UNL     1      23.477   3.444  51.087  1.00  0.00    -0.019 A 
HETATM   15  C12 UNL     1      23.398   2.762  52.353  1.00  0.00     0.046 C 
HETATM   16  C13 UNL     1      24.302   3.656  49.927  1.00  0.00     0.028 A 
HETATM   17  C14 UNL     1      24.048   4.328  48.844  1.00  0.00     0.126 A 
HETATM   18  N3  UNL     1      22.836   5.004  48.636  1.00  0.00    -0.293 N 
HETATM   19  N4  UNL     1      22.533   4.505  49.879  1.00  0.00    -0.302 N 
HETATM   20  C15 UNL     1      22.046   5.843  47.828  1.00  0.00     0.154 C 
HETATM   21  C16 UNL     1      20.986   5.228  46.961  1.00  0.00     0.155 C 
HETATM   22  C17 UNL     1      22.974   6.723  46.996  1.00  0.00     0.154 C 
HETATM   23  O2  UNL     1      22.079   7.328  46.091  1.00  0.00    -0.383 OA
HETATM   24  C18 UNL     1      22.593   8.364  45.374  1.00  0.00     0.168 C 
HETATM   25  C19 UNL     1      24.096   8.180  45.180  1.00  0.00     0.027 C 
HETATM   26  C20 UNL     1      24.696   8.335  46.563  1.00  0.00     0.011 C 
HETATM   27  C21 UNL     1      23.732   7.780  47.655  1.00  0.00     0.041 C 
HETATM   28  C22 UNL     1      24.716   7.395  48.755  1.00  0.00     0.181 C 
HETATM   29  O3  UNL     1      25.844   6.811  48.230  1.00  0.00    -0.363 OA
HETATM   30  C23 UNL     1      26.852   6.026  48.531  1.00  0.00     0.134 C 
HETATM   31  C24 UNL     1      27.142   4.820  49.074  1.00  0.00     0.027 C 
HETATM   32  C25 UNL     1      26.792   3.566  49.689  1.00  0.00     0.045 C 
HETATM   33  C26 UNL     1      25.635   3.051  50.051  1.00  0.00     0.128 C 
HETATM   34  F1  UNL     1      25.638   1.821  50.610  1.00  0.00    -0.205 F 
HETATM   35  H8  UNL     1      19.748   1.437  49.872  1.00  0.00     0.315 HD
HETATM   36  H21 UNL     1      21.472   4.474  49.677  1.00  0.00     0.186 HD
ENDROOT
TORSDOF 0
ENDMDL
MODEL 6
REMARK VINA RESULT:      -8.6      3.252      7.385
REMARK  0 active torsions:
REMARK  status: ('A' for Active; 'I' for Inactive)
REMARK       I    between atoms: C2_2  and  N1_4 
ROOT
HETATM    1  C1  UNL     1      27.010   7.726  49.318  1.00  0.00     0.117 C 
HETATM    2  C2  UNL     1      25.840   7.751  48.421  1.00  0.00     0.215 C 
HETATM    3  O1  UNL     1      26.200   7.635  47.197  1.00  0.00    -0.274 OA
HETATM    4  N1  UNL     1      24.466   7.890  48.895  1.00  0.00    -0.349 N 
HETATM    5  C3  UNL     1      23.962   8.046  50.191  1.00  0.00     0.155 C 
HETATM    6  C4  UNL     1      23.492   7.024  51.097  1.00  0.00     0.289 C 
HETATM    7  N2  UNL     1      24.360   5.928  51.490  1.00  0.00     0.085 NA
HETATM    8  C5  UNL     1      23.479   4.977  52.154  1.00  0.00     0.270 C 
HETATM    9  C6  UNL     1      23.992   3.667  52.537  1.00  0.00     0.035 C 
HETATM   10  C7  UNL     1      24.559   2.716  51.603  1.00  0.00    -0.008 C 
HETATM   11  C8  UNL     1      25.875   2.939  50.958  1.00  0.00     0.011 C 
HETATM   12  C9  UNL     1      25.680   3.576  49.620  1.00  0.00     0.059 C 
HETATM   13  C10 UNL     1      24.198   3.734  49.379  1.00  0.00     0.033 A 
HETATM   14  C11 UNL     1      23.048   3.207  49.663  1.00  0.00    -0.019 A 
HETATM   15  C12 UNL     1      23.572   2.181  50.526  1.00  0.00     0.046 C 
HETATM   16  C13 UNL     1      21.837   3.782  49.137  1.00  0.00     0.028 A 
HETATM   17  C14 UNL     1      21.680   4.820  48.370  1.00  0.00     0.126 A 
HETATM   18  N3  UNL     1      22.757   5.587  47.899  1.00  0.00    -0.293 N 
HETATM   19  N4  UNL     1      23.502   4.687  48.622  1.00  0.00    -0.302 N 
HETATM   20  C15 UNL     1      23.224   6.651  47.106  1.00  0.00     0.154 C 
HETATM   21  C16 UNL     1      23.557   7.958  47.768  1.00  0.00     0.155 C 
HETATM   22  C17 UNL     1      22.239   6.867  45.962  1.00  0.00     0.154 C 
HETATM   23  O2  UNL     1      22.694   8.077  45.401  1.00  0.00    -0.383 OA
HETATM   24  C18 UNL     1      22.149   8.397  44.196  1.00  0.00     0.168 C 
HETATM   25  C19 UNL     1      20.744   7.811  44.076  1.00  0.00     0.027 C 
HETATM   26  C20 UNL     1      20.944   6.310  44.020  1.00  0.00     0.011 C 
HETATM   27  C21 UNL     1      22.161   5.876  44.894  1.00  0.00     0.041 C 
HETATM   28  C22 UNL     1      21.776   4.445  45.253  1.00  0.00     0.181 C 
HETATM   29  O3  UNL     1      20.436   4.349  45.542  1.00  0.00    -0.363 OA
HETATM   30  C23 UNL     1      19.552   3.608  46.168  1.00  0.00     0.134 C 
HETATM   31  C24 UNL     1      19.294   3.038  47.370  1.00  0.00     0.027 C 
HETATM   32  C25 UNL     1      19.600   2.732  48.743  1.00  0.00     0.045 C 
HETATM   33  C26 UNL     1      20.634   3.024  49.505  1.00  0.00     0.128 C 
HETATM   34  F1  UNL     1      20.621   2.586  50.783  1.00  0.00    -0.205 F 
HETATM   35  H8  UNL     1      25.145   6.215  52.105  1.00  0.00     0.315 HD
HETATM   36  H21 UNL     1      24.291   5.399  48.813  1.00  0.00     0.186 HD
ENDROOT
TORSDOF 0
ENDMDL
MODEL 7
REMARK VINA RESULT:      -8.4      2.441      3.794
REMARK  0 active torsions:
REMARK  status: ('A' for Active; 'I' for Inactive)
REMARK       I    between atoms: C2_2  and  N1_4 
ROOT
HETATM    1  C1  UNL     1      16.260   1.064  49.016  1.00  0.00     0.117 C 
HETATM    2  C2  UNL     1      17.211   0.787  50.109  1.00  0.00     0.215 C 
HETATM    3  O1  UNL     1      17.733  -0.376  49.977  1.00  0.00    -0.274 OA
HETATM    4  N1  UNL     1      17.500   1.734  51.182  1.00  0.00    -0.349 N 
HETATM    5  C3  UNL     1      16.979   3.007  51.437  1.00  0.00     0.155 C 
HETATM    6  C4  UNL     1      17.511   4.287  51.035  1.00  0.00     0.289 C 
HETATM    7  N2  UNL     1      17.742   4.584  49.632  1.00  0.00     0.085 NA
HETATM    8  C5  UNL     1      18.526   5.812  49.637  1.00  0.00     0.270 C 
HETATM    9  C6  UNL     1      19.083   6.316  48.387  1.00  0.00     0.035 C 
HETATM   10  C7  UNL     1      19.991   5.564  47.545  1.00  0.00    -0.008 C 
HETATM   11  C8  UNL     1      19.542   4.387  46.762  1.00  0.00     0.011 C 
HETATM   12  C9  UNL     1      19.810   3.136  47.535  1.00  0.00     0.059 C 
HETATM   13  C10 UNL     1      20.482   3.512  48.833  1.00  0.00     0.033 A 
HETATM   14  C11 UNL     1      21.258   4.401  49.370  1.00  0.00    -0.019 A 
HETATM   15  C12 UNL     1      21.363   5.225  48.193  1.00  0.00     0.046 C 
HETATM   16  C13 UNL     1      21.636   4.293  50.755  1.00  0.00     0.028 A 
HETATM   17  C14 UNL     1      21.308   3.393  51.633  1.00  0.00     0.126 A 
HETATM   18  N3  UNL     1      20.478   2.302  51.330  1.00  0.00    -0.293 N 
HETATM   19  N4  UNL     1      20.458   2.874  50.081  1.00  0.00    -0.302 N 
HETATM   20  C15 UNL     1      19.860   1.106  51.740  1.00  0.00     0.154 C 
HETATM   21  C16 UNL     1      18.413   1.136  52.138  1.00  0.00     0.155 C 
HETATM   22  C17 UNL     1      20.706   0.483  52.846  1.00  0.00     0.154 C 
HETATM   23  O2  UNL     1      19.872  -0.554  53.310  1.00  0.00    -0.383 OA
HETATM   24  C18 UNL     1      20.469  -1.448  54.144  1.00  0.00     0.168 C 
HETATM   25  C19 UNL     1      21.602  -0.778  54.918  1.00  0.00     0.027 C 
HETATM   26  C20 UNL     1      22.657  -0.458  53.878  1.00  0.00     0.011 C 
HETATM   27  C21 UNL     1      22.001  -0.098  52.510  1.00  0.00     0.041 C 
HETATM   28  C22 UNL     1      23.067   0.804  51.895  1.00  0.00     0.181 C 
HETATM   29  O3  UNL     1      23.606   1.648  52.835  1.00  0.00    -0.363 OA
HETATM   30  C23 UNL     1      24.253   2.781  52.975  1.00  0.00     0.134 C 
HETATM   31  C24 UNL     1      24.208   4.088  52.622  1.00  0.00     0.027 C 
HETATM   32  C25 UNL     1      23.627   5.222  51.953  1.00  0.00     0.045 C 
HETATM   33  C26 UNL     1      22.567   5.346  51.180  1.00  0.00     0.128 C 
HETATM   34  F1  UNL     1      22.275   6.575  50.700  1.00  0.00    -0.205 F 
HETATM   35  H8  UNL     1      16.872   4.691  49.077  1.00  0.00     0.315 HD
HETATM   36  H21 UNL     1      19.475   2.488  49.852  1.00  0.00     0.186 HD
ENDROOT
TORSDOF 0
ENDMDL
MODEL 8
REMARK VINA RESULT:      -8.4      7.061     11.002
REMARK  0 active torsions:
REMARK  status: ('A' for Active; 'I' for Inactive)
REMARK       I    between atoms: C2_2  and  N1_4 
ROOT
HETATM    1  C1  UNL     1      33.544  11.583  44.661  1.00  0.00     0.117 C 
HETATM    2  C2  UNL     1      33.289  10.145  44.865  1.00  0.00     0.215 C 
HETATM    3  O1  UNL     1      34.217   9.611  45.569  1.00  0.00    -0.274 OA
HETATM    4  N1  UNL     1      32.123   9.451  44.325  1.00  0.00    -0.349 N 
HETATM    5  C3  UNL     1      31.071   9.921  43.532  1.00  0.00     0.155 C 
HETATM    6  C4  UNL     1      29.781  10.411  43.958  1.00  0.00     0.289 C 
HETATM    7  N2  UNL     1      29.682  11.529  44.879  1.00  0.00     0.085 NA
HETATM    8  C5  UNL     1      28.283  11.549  45.289  1.00  0.00     0.270 C 
HETATM    9  C6  UNL     1      27.857  12.454  46.349  1.00  0.00     0.035 C 
HETATM   10  C7  UNL     1      28.404  12.442  47.691  1.00  0.00    -0.008 C 
HETATM   11  C8  UNL     1      29.784  12.903  47.979  1.00  0.00     0.011 C 
HETATM   12  C9  UNL     1      30.715  11.733  47.987  1.00  0.00     0.059 C 
HETATM   13  C10 UNL     1      29.911  10.482  47.733  1.00  0.00     0.033 A 
HETATM   14  C11 UNL     1      28.734   9.965  47.898  1.00  0.00    -0.019 A 
HETATM   15  C12 UNL     1      28.148  11.136  48.496  1.00  0.00     0.046 C 
HETATM   16  C13 UNL     1      28.459   8.626  47.445  1.00  0.00     0.028 A 
HETATM   17  C14 UNL     1      29.244   7.778  46.849  1.00  0.00     0.126 A 
HETATM   18  N3  UNL     1      30.583   8.066  46.545  1.00  0.00    -0.293 N 
HETATM   19  N4  UNL     1      30.285   9.274  47.127  1.00  0.00    -0.302 N 
HETATM   20  C15 UNL     1      31.822   7.641  46.030  1.00  0.00     0.154 C 
HETATM   21  C16 UNL     1      32.202   8.036  44.632  1.00  0.00     0.155 C 
HETATM   22  C17 UNL     1      31.920   6.128  46.204  1.00  0.00     0.154 C 
HETATM   23  O2  UNL     1      33.074   5.817  45.456  1.00  0.00    -0.383 OA
HETATM   24  C18 UNL     1      33.554   4.556  45.631  1.00  0.00     0.168 C 
HETATM   25  C19 UNL     1      32.418   3.601  45.991  1.00  0.00     0.027 C 
HETATM   26  C20 UNL     1      31.960   4.032  47.369  1.00  0.00     0.011 C 
HETATM   27  C21 UNL     1      32.090   5.576  47.544  1.00  0.00     0.041 C 
HETATM   28  C22 UNL     1      31.012   5.851  48.587  1.00  0.00     0.181 C 
HETATM   29  O3  UNL     1      29.882   5.108  48.342  1.00  0.00    -0.363 OA
HETATM   30  C23 UNL     1      28.593   5.055  48.583  1.00  0.00     0.134 C 
HETATM   31  C24 UNL     1      27.461   5.795  48.510  1.00  0.00     0.027 C 
HETATM   32  C25 UNL     1      26.723   6.995  48.212  1.00  0.00     0.045 C 
HETATM   33  C26 UNL     1      27.099   8.177  47.769  1.00  0.00     0.128 C 
HETATM   34  F1  UNL     1      26.144   9.115  47.582  1.00  0.00    -0.205 F 
HETATM   35  H8  UNL     1      29.971  12.437  44.469  1.00  0.00     0.315 HD
HETATM   36  H21 UNL     1      31.009   9.811  46.532  1.00  0.00     0.186 HD
ENDROOT
TORSDOF 0
ENDMDL
MODEL 9
REMARK VINA RESULT:      -8.3      8.166     12.666
REMARK  0 active torsions:
REMARK  status: ('A' for Active; 'I' for Inactive)
REMARK       I    between atoms: C2_2  and  N1_4 
ROOT
HETATM    1  C1  UNL     1      36.003   9.492  44.357  1.00  0.00     0.117 C 
HETATM    2  C2  UNL     1      34.661   9.994  44.708  1.00  0.00     0.215 C 
HETATM    3  O1  UNL     1      34.041  10.405  43.665  1.00  0.00    -0.274 OA
HETATM    4  N1  UNL     1      34.137  10.005  46.071  1.00  0.00    -0.349 N 
HETATM    5  C3  UNL     1      34.727   9.608  47.275  1.00  0.00     0.155 C 
HETATM    6  C4  UNL     1      34.635   8.327  47.936  1.00  0.00     0.289 C 
HETATM    7  N2  UNL     1      35.042   7.112  47.253  1.00  0.00     0.085 NA
HETATM    8  C5  UNL     1      34.551   6.030  48.097  1.00  0.00     0.270 C 
HETATM    9  C6  UNL     1      34.641   4.653  47.626  1.00  0.00     0.035 C 
HETATM   10  C7  UNL     1      34.030   4.175  46.402  1.00  0.00    -0.008 C 
HETATM   11  C8  UNL     1      34.541   4.567  45.066  1.00  0.00     0.011 C 
HETATM   12  C9  UNL     1      33.769   5.742  44.556  1.00  0.00     0.059 C 
HETATM   13  C10 UNL     1      32.711   6.095  45.572  1.00  0.00     0.033 A 
HETATM   14  C11 UNL     1      31.954   5.580  46.491  1.00  0.00    -0.019 A 
HETATM   15  C12 UNL     1      32.476   4.244  46.370  1.00  0.00     0.046 C 
HETATM   16  C13 UNL     1      31.040   6.413  47.229  1.00  0.00     0.028 A 
HETATM   17  C14 UNL     1      30.825   7.691  47.131  1.00  0.00     0.126 A 
HETATM   18  N3  UNL     1      31.500   8.508  46.213  1.00  0.00    -0.293 N 
HETATM   19  N4  UNL     1      32.120   7.331  45.870  1.00  0.00    -0.302 N 
HETATM   20  C15 UNL     1      31.681   9.777  45.632  1.00  0.00     0.154 C 
HETATM   21  C16 UNL     1      32.829  10.629  46.093  1.00  0.00     0.155 C 
HETATM   22  C17 UNL     1      30.368  10.546  45.739  1.00  0.00     0.154 C 
HETATM   23  O2  UNL     1      30.750  11.844  45.342  1.00  0.00    -0.383 OA
HETATM   24  C18 UNL     1      29.721  12.701  45.102  1.00  0.00     0.168 C 
HETATM   25  C19 UNL     1      28.510  12.331  45.955  1.00  0.00     0.027 C 
HETATM   26  C20 UNL     1      28.035  10.999  45.411  1.00  0.00     0.011 C 
HETATM   27  C21 UNL     1      29.237  10.138  44.913  1.00  0.00     0.041 C 
HETATM   28  C22 UNL     1      28.683   8.727  45.080  1.00  0.00     0.181 C 
HETATM   29  O3  UNL     1      27.970   8.608  46.249  1.00  0.00    -0.363 OA
HETATM   30  C23 UNL     1      27.531   7.732  47.122  1.00  0.00     0.134 C 
HETATM   31  C24 UNL     1      27.943   6.710  47.909  1.00  0.00     0.027 C 
HETATM   32  C25 UNL     1      28.933   5.807  48.435  1.00  0.00     0.045 C 
HETATM   33  C26 UNL     1      30.217   5.658  48.182  1.00  0.00     0.128 C 
HETATM   34  F1  UNL     1      30.889   4.702  48.862  1.00  0.00    -0.205 F 
HETATM   35  H8  UNL     1      36.066   7.040  47.100  1.00  0.00     0.315 HD
HETATM   36  H21 UNL     1      33.027   7.827  45.557  1.00  0.00     0.186 HD
ENDROOT
TORSDOF 0
ENDMDL
