MODEL 1
REMARK VINA RESULT:      -7.2      0.000      0.000
REMARK  4 active torsions:
REMARK  status: ('A' for Active; 'I' for Inactive)
REMARK       I    between atoms: C1_2  and  N1_3 
REMARK    1  A    between atoms: C1_2  and  C8_14 
REMARK    2  A    between atoms: N1_3  and  S1_4 
REMARK    3  A    between atoms: S1_4  and  C2_7 
REMARK    4  A    between atoms: C5_10  and  S2_11 
ROOT
HETATM    1  O1  UNL     1      26.635   2.878  49.306  1.00  0.00    -0.267 OA
HETATM    2  C1  UNL     1      26.436   4.070  49.683  1.00  0.00     0.266 C 
HETATM    3  N1  UNL     1      25.664   4.171  50.858  1.00  0.00    -0.246 N 
HETATM    4  H1  UNL     1      25.463   5.147  51.225  1.00  0.00     0.182 HD
ENDROOT
BRANCH   3   5
HETATM    5  S1  UNL     1      25.029   2.839  51.733  1.00  0.00     0.265 S 
HETATM    6  O2  UNL     1      24.262   3.394  52.912  1.00  0.00    -0.200 OA
HETATM    7  O3  UNL     1      24.023   2.124  50.880  1.00  0.00    -0.200 OA
BRANCH   5   8
HETATM    8  C2  UNL     1      26.236   1.703  52.242  1.00  0.00     0.080 A 
HETATM    9  C3  UNL     1      27.379   2.259  52.816  1.00  0.00     0.026 A 
HETATM   10  C4  UNL     1      28.438   1.493  53.277  1.00  0.00     0.020 A 
HETATM   11  C5  UNL     1      28.334   0.110  53.150  1.00  0.00    -0.003 A 
HETATM   12  C6  UNL     1      27.198  -0.445  52.580  1.00  0.00     0.020 A 
HETATM   13  C7  UNL     1      26.148   0.332  52.124  1.00  0.00     0.026 A 
BRANCH  11  14
HETATM   14  S2  UNL     1      29.695  -0.882  53.742  1.00  0.00    -0.143 SA
HETATM   15  H4  UNL     1      30.830  -0.675  52.911  1.00  0.00     0.107 HD
ENDBRANCH  11  14
ENDBRANCH   5   8
ENDBRANCH   3   5
BRANCH   2  16
HETATM   16  C8  UNL     1      26.968   5.214  48.952  1.00  0.00     0.051 A 
HETATM   17  C9  UNL     1      26.235   6.318  48.569  1.00  0.00     0.133 A 
HETATM   18  N2  UNL     1      26.767   7.352  47.896  1.00  0.00    -0.271 NA
HETATM   19  C10 UNL     1      28.056   7.366  47.555  1.00  0.00     0.135 A 
HETATM   20  C11 UNL     1      28.843   6.278  47.916  1.00  0.00     0.029 A 
HETATM   21 BR1  UNL     1      30.691   6.323  47.416  1.00  0.00    -0.050 Br
HETATM   22  C12 UNL     1      28.306   5.196  48.616  1.00  0.00     0.039 A 
ENDBRANCH   2  16
TORSDOF 4
ENDMDL
MODEL 2
REMARK VINA RESULT:      -7.1      1.424      1.673
REMARK  4 active torsions:
REMARK  status: ('A' for Active; 'I' for Inactive)
REMARK       I    between atoms: C1_2  and  N1_3 
REMARK    1  A    between atoms: C1_2  and  C8_14 
REMARK    2  A    between atoms: N1_3  and  S1_4 
REMARK    3  A    between atoms: S1_4  and  C2_7 
REMARK    4  A    between atoms: C5_10  and  S2_11 
ROOT
HETATM    1  O1  UNL     1      26.550   2.792  49.330  1.00  0.00    -0.267 OA
HETATM    2  C1  UNL     1      26.397   3.988  49.718  1.00  0.00     0.266 C 
HETATM    3  N1  UNL     1      25.677   4.105  50.923  1.00  0.00    -0.246 N 
HETATM    4  H1  UNL     1      25.515   5.084  51.300  1.00  0.00     0.182 HD
ENDROOT
BRANCH   3   5
HETATM    5  S1  UNL     1      25.044   2.786  51.820  1.00  0.00     0.265 S 
HETATM    6  O2  UNL     1      24.319   3.358  53.018  1.00  0.00    -0.200 OA
HETATM    7  O3  UNL     1      24.003   2.086  50.998  1.00  0.00    -0.200 OA
BRANCH   5   8
HETATM    8  C2  UNL     1      26.245   1.633  52.301  1.00  0.00     0.080 A 
HETATM    9  C3  UNL     1      27.397   2.169  52.874  1.00  0.00     0.026 A 
HETATM   10  C4  UNL     1      28.454   1.386  53.313  1.00  0.00     0.020 A 
HETATM   11  C5  UNL     1      28.337   0.007  53.165  1.00  0.00    -0.003 A 
HETATM   12  C6  UNL     1      27.192  -0.529  52.595  1.00  0.00     0.020 A 
HETATM   13  C7  UNL     1      26.144   0.264  52.161  1.00  0.00     0.026 A 
BRANCH  11  14
HETATM   14  S2  UNL     1      29.695  -1.006  53.728  1.00  0.00    -0.143 SA
HETATM   15  H4  UNL     1      29.521  -1.311  55.105  1.00  0.00     0.107 HD
ENDBRANCH  11  14
ENDBRANCH   5   8
ENDBRANCH   3   5
BRANCH   2  16
HETATM   16  C8  UNL     1      26.928   5.121  48.968  1.00  0.00     0.051 A 
HETATM   17  C9  UNL     1      28.226   5.232  48.517  1.00  0.00     0.133 A 
HETATM   18  N2  UNL     1      28.673   6.296  47.829  1.00  0.00    -0.271 NA
HETATM   19  C10 UNL     1      27.869   7.320  47.540  1.00  0.00     0.135 A 
HETATM   20  C11 UNL     1      26.548   7.261  47.971  1.00  0.00     0.029 A 
HETATM   21 BR1  UNL     1      25.416   8.744  47.542  1.00  0.00    -0.050 Br
HETATM   22  C12 UNL     1      26.068   6.163  48.686  1.00  0.00     0.039 A 
ENDBRANCH   2  16
TORSDOF 4
ENDMDL
MODEL 3
REMARK VINA RESULT:      -7.0      3.361      6.756
REMARK  4 active torsions:
REMARK  status: ('A' for Active; 'I' for Inactive)
REMARK       I    between atoms: C1_2  and  N1_3 
REMARK    1  A    between atoms: C1_2  and  C8_14 
REMARK    2  A    between atoms: N1_3  and  S1_4 
REMARK    3  A    between atoms: S1_4  and  C2_7 
REMARK    4  A    between atoms: C5_10  and  S2_11 
ROOT
HETATM    1  O1  UNL     1      26.787   2.414  50.401  1.00  0.00    -0.267 OA
HETATM    2  C1  UNL     1      26.251   2.538  51.541  1.00  0.00     0.266 C 
HETATM    3  N1  UNL     1      25.188   3.464  51.569  1.00  0.00    -0.246 N 
HETATM    4  H1  UNL     1      24.698   3.612  52.499  1.00  0.00     0.182 HD
ENDROOT
BRANCH   3   5
HETATM    5  S1  UNL     1      24.635   4.365  50.218  1.00  0.00     0.265 S 
HETATM    6  O2  UNL     1      24.308   3.379  49.119  1.00  0.00    -0.200 OA
HETATM    7  O3  UNL     1      23.344   5.040  50.571  1.00  0.00    -0.200 OA
BRANCH   5   8
HETATM    8  C2  UNL     1      25.762   5.564  49.674  1.00  0.00     0.080 A 
HETATM    9  C3  UNL     1      25.579   6.843  50.201  1.00  0.00     0.026 A 
HETATM   10  C4  UNL     1      26.392   7.916  49.871  1.00  0.00     0.020 A 
HETATM   11  C5  UNL     1      27.431   7.684  48.973  1.00  0.00    -0.003 A 
HETATM   12  C6  UNL     1      27.615   6.413  48.448  1.00  0.00     0.020 A 
HETATM   13  C7  UNL     1      26.795   5.351  48.786  1.00  0.00     0.026 A 
BRANCH  11  14
HETATM   14  S2  UNL     1      28.480   9.062  48.545  1.00  0.00    -0.143 SA
HETATM   15  H4  UNL     1      27.820   9.886  47.593  1.00  0.00     0.107 HD
ENDBRANCH  11  14
ENDBRANCH   5   8
ENDBRANCH   3   5
BRANCH   2  16
HETATM   16  C8  UNL     1      26.707   1.781  52.701  1.00  0.00     0.051 A 
HETATM   17  C9  UNL     1      26.136   1.834  53.955  1.00  0.00     0.133 A 
HETATM   18  N2  UNL     1      26.590   1.118  54.997  1.00  0.00    -0.271 NA
HETATM   19  C10 UNL     1      27.638   0.303  54.872  1.00  0.00     0.135 A 
HETATM   20  C11 UNL     1      28.254   0.210  53.628  1.00  0.00     0.029 A 
HETATM   21 BR1  UNL     1      29.755  -0.969  53.476  1.00  0.00    -0.050 Br
HETATM   22  C12 UNL     1      27.793   0.947  52.535  1.00  0.00     0.039 A 
ENDBRANCH   2  16
TORSDOF 4
ENDMDL
MODEL 4
REMARK VINA RESULT:      -6.7      3.547      7.152
REMARK  4 active torsions:
REMARK  status: ('A' for Active; 'I' for Inactive)
REMARK       I    between atoms: C1_2  and  N1_3 
REMARK    1  A    between atoms: C1_2  and  C8_14 
REMARK    2  A    between atoms: N1_3  and  S1_4 
REMARK    3  A    between atoms: S1_4  and  C2_7 
REMARK    4  A    between atoms: C5_10  and  S2_11 
ROOT
HETATM    1  O1  UNL     1      24.825   2.287  51.350  1.00  0.00    -0.267 OA
HETATM    2  C1  UNL     1      26.059   2.466  51.573  1.00  0.00     0.266 C 
HETATM    3  N1  UNL     1      26.609   3.558  50.873  1.00  0.00    -0.246 N 
HETATM    4  H1  UNL     1      27.641   3.759  51.019  1.00  0.00     0.182 HD
ENDROOT
BRANCH   3   5
HETATM    5  S1  UNL     1      25.736   4.580  49.806  1.00  0.00     0.265 S 
HETATM    6  O2  UNL     1      24.870   3.695  48.937  1.00  0.00    -0.200 OA
HETATM    7  O3  UNL     1      24.793   5.433  50.602  1.00  0.00    -0.200 OA
BRANCH   5   8
HETATM    8  C2  UNL     1      26.747   5.611  48.848  1.00  0.00     0.080 A 
HETATM    9  C3  UNL     1      26.131   6.754  48.340  1.00  0.00     0.026 A 
HETATM   10  C4  UNL     1      26.797   7.683  47.555  1.00  0.00     0.020 A 
HETATM   11  C5  UNL     1      28.139   7.443  47.275  1.00  0.00    -0.003 A 
HETATM   12  C6  UNL     1      28.754   6.306  47.778  1.00  0.00     0.020 A 
HETATM   13  C7  UNL     1      28.078   5.387  48.560  1.00  0.00     0.026 A 
BRANCH  11  14
HETATM   14  S2  UNL     1      29.002   8.635  46.265  1.00  0.00    -0.143 SA
HETATM   15  H4  UNL     1      30.365   8.698  46.662  1.00  0.00     0.107 HD
ENDBRANCH  11  14
ENDBRANCH   5   8
ENDBRANCH   3   5
BRANCH   2  16
HETATM   16  C8  UNL     1      26.816   1.608  52.476  1.00  0.00     0.051 A 
HETATM   17  C9  UNL     1      27.514   2.045  53.584  1.00  0.00     0.133 A 
HETATM   18  N2  UNL     1      28.199   1.217  54.390  1.00  0.00    -0.271 NA
HETATM   19  C10 UNL     1      28.244  -0.095  54.158  1.00  0.00     0.135 A 
HETATM   20  C11 UNL     1      27.558  -0.592  53.054  1.00  0.00     0.029 A 
HETATM   21 BR1  UNL     1      27.637  -2.479  52.745  1.00  0.00    -0.050 Br
HETATM   22  C12 UNL     1      26.840   0.255  52.207  1.00  0.00     0.039 A 
ENDBRANCH   2  16
TORSDOF 4
ENDMDL
MODEL 5
REMARK VINA RESULT:      -6.6      4.469      7.355
REMARK  4 active torsions:
REMARK  status: ('A' for Active; 'I' for Inactive)
REMARK       I    between atoms: C1_2  and  N1_3 
REMARK    1  A    between atoms: C1_2  and  C8_14 
REMARK    2  A    between atoms: N1_3  and  S1_4 
REMARK    3  A    between atoms: S1_4  and  C2_7 
REMARK    4  A    between atoms: C5_10  and  S2_11 
ROOT
HETATM    1  O1  UNL     1      24.197   3.747  52.445  1.00  0.00    -0.267 OA
HETATM    2  C1  UNL     1      23.960   2.578  52.020  1.00  0.00     0.266 C 
HETATM    3  N1  UNL     1      23.528   2.540  50.678  1.00  0.00    -0.246 N 
HETATM    4  H1  UNL     1      23.313   1.587  50.264  1.00  0.00     0.182 HD
ENDROOT
BRANCH   3   5
HETATM    5  S1  UNL     1      23.324   3.916  49.674  1.00  0.00     0.265 S 
HETATM    6  O2  UNL     1      22.547   3.476  48.454  1.00  0.00    -0.200 OA
HETATM    7  O3  UNL     1      22.460   4.918  50.381  1.00  0.00    -0.200 OA
BRANCH   5   8
HETATM    8  C2  UNL     1      24.815   4.680  49.231  1.00  0.00     0.080 A 
HETATM    9  C3  UNL     1      25.953   3.881  49.335  1.00  0.00     0.026 A 
HETATM   10  C4  UNL     1      27.225   4.336  49.020  1.00  0.00     0.020 A 
HETATM   11  C5  UNL     1      27.345   5.653  48.582  1.00  0.00    -0.003 A 
HETATM   12  C6  UNL     1      26.215   6.449  48.478  1.00  0.00     0.020 A 
HETATM   13  C7  UNL     1      24.952   5.982  48.796  1.00  0.00     0.026 A 
BRANCH  11  14
HETATM   14  S2  UNL     1      28.979   6.244  48.175  1.00  0.00    -0.143 SA
HETATM   15  H4  UNL     1      29.947   5.287  48.584  1.00  0.00     0.107 HD
ENDBRANCH  11  14
ENDBRANCH   5   8
ENDBRANCH   3   5
BRANCH   2  16
HETATM   16  C8  UNL     1      24.128   1.397  52.859  1.00  0.00     0.051 A 
HETATM   17  C9  UNL     1      25.323   0.977  53.403  1.00  0.00     0.133 A 
HETATM   18  N2  UNL     1      25.432  -0.119  54.173  1.00  0.00    -0.271 NA
HETATM   19  C10 UNL     1      24.369  -0.874  54.456  1.00  0.00     0.135 A 
HETATM   20  C11 UNL     1      23.137  -0.497  53.933  1.00  0.00     0.029 A 
HETATM   21 BR1  UNL     1      21.628  -1.597  54.355  1.00  0.00    -0.050 Br
HETATM   22  C12 UNL     1      23.007   0.640  53.132  1.00  0.00     0.039 A 
ENDBRANCH   2  16
TORSDOF 4
ENDMDL
MODEL 6
REMARK VINA RESULT:      -6.5      4.847      6.994
REMARK  4 active torsions:
REMARK  status: ('A' for Active; 'I' for Inactive)
REMARK       I    between atoms: C1_2  and  N1_3 
REMARK    1  A    between atoms: C1_2  and  C8_14 
REMARK    2  A    between atoms: N1_3  and  S1_4 
REMARK    3  A    between atoms: S1_4  and  C2_7 
REMARK    4  A    between atoms: C5_10  and  S2_11 
ROOT
HETATM    1  O1  UNL     1      25.741   2.656  51.218  1.00  0.00    -0.267 OA
HETATM    2  C1  UNL     1      25.637   1.780  52.126  1.00  0.00     0.266 C 
HETATM    3  N1  UNL     1      24.310   1.373  52.372  1.00  0.00    -0.246 N 
HETATM    4  H1  UNL     1      24.159   0.639  53.124  1.00  0.00     0.182 HD
ENDROOT
BRANCH   3   5
HETATM    5  S1  UNL     1      22.931   1.976  51.549  1.00  0.00     0.265 S 
HETATM    6  O2  UNL     1      22.786   3.436  51.915  1.00  0.00    -0.200 OA
HETATM    7  O3  UNL     1      23.184   1.940  50.071  1.00  0.00    -0.200 OA
BRANCH   5   8
HETATM    8  C2  UNL     1      21.478   1.094  51.888  1.00  0.00     0.080 A 
HETATM    9  C3  UNL     1      21.410   0.514  53.155  1.00  0.00     0.026 A 
HETATM   10  C4  UNL     1      20.319  -0.225  53.587  1.00  0.00     0.020 A 
HETATM   11  C5  UNL     1      19.257  -0.381  52.700  1.00  0.00    -0.003 A 
HETATM   12  C6  UNL     1      19.323   0.195  51.440  1.00  0.00     0.020 A 
HETATM   13  C7  UNL     1      20.418   0.930  51.022  1.00  0.00     0.026 A 
BRANCH  11  14
HETATM   14  S2  UNL     1      17.850  -1.331  53.250  1.00  0.00    -0.143 SA
HETATM   15  H4  UNL     1      18.133  -2.718  53.123  1.00  0.00     0.107 HD
ENDBRANCH  11  14
ENDBRANCH   5   8
ENDBRANCH   3   5
BRANCH   2  16
HETATM   16  C8  UNL     1      26.798   1.256  52.836  1.00  0.00     0.051 A 
HETATM   17  C9  UNL     1      27.594   1.983  53.697  1.00  0.00     0.133 A 
HETATM   18  N2  UNL     1      28.656   1.459  54.331  1.00  0.00    -0.271 NA
HETATM   19  C10 UNL     1      29.005   0.184  54.158  1.00  0.00     0.135 A 
HETATM   20  C11 UNL     1      28.238  -0.597  53.300  1.00  0.00     0.029 A 
HETATM   21 BR1  UNL     1      28.760  -2.425  53.070  1.00  0.00    -0.050 Br
HETATM   22  C12 UNL     1      27.130  -0.068  52.634  1.00  0.00     0.039 A 
ENDBRANCH   2  16
TORSDOF 4
ENDMDL
MODEL 7
REMARK VINA RESULT:      -6.5      5.504      7.723
REMARK  4 active torsions:
REMARK  status: ('A' for Active; 'I' for Inactive)
REMARK       I    between atoms: C1_2  and  N1_3 
REMARK    1  A    between atoms: C1_2  and  C8_14 
REMARK    2  A    between atoms: N1_3  and  S1_4 
REMARK    3  A    between atoms: S1_4  and  C2_7 
REMARK    4  A    between atoms: C5_10  and  S2_11 
ROOT
HETATM    1  O1  UNL     1      21.594   2.483  51.914  1.00  0.00    -0.267 OA
HETATM    2  C1  UNL     1      21.745   1.337  52.430  1.00  0.00     0.266 C 
HETATM    3  N1  UNL     1      23.084   1.025  52.737  1.00  0.00    -0.246 N 
HETATM    4  H1  UNL     1      23.275   0.076  53.173  1.00  0.00     0.182 HD
ENDROOT
BRANCH   3   5
HETATM    5  S1  UNL     1      24.422   2.062  52.458  1.00  0.00     0.265 S 
HETATM    6  O2  UNL     1      24.357   2.509  51.014  1.00  0.00    -0.200 OA
HETATM    7  O3  UNL     1      24.265   3.303  53.286  1.00  0.00    -0.200 OA
BRANCH   5   8
HETATM    8  C2  UNL     1      25.953   1.337  52.825  1.00  0.00     0.080 A 
HETATM    9  C3  UNL     1      26.046  -0.031  52.566  1.00  0.00     0.026 A 
HETATM   10  C4  UNL     1      27.199  -0.764  52.803  1.00  0.00     0.020 A 
HETATM   11  C5  UNL     1      28.298  -0.084  53.321  1.00  0.00    -0.003 A 
HETATM   12  C6  UNL     1      28.207   1.275  53.580  1.00  0.00     0.020 A 
HETATM   13  C7  UNL     1      27.050   1.995  53.339  1.00  0.00     0.026 A 
BRANCH  11  14
HETATM   14  S2  UNL     1      29.785  -1.024  53.628  1.00  0.00    -0.143 SA
HETATM   15  H4  UNL     1      29.618  -1.808  54.802  1.00  0.00     0.107 HD
ENDBRANCH  11  14
ENDBRANCH   5   8
ENDBRANCH   3   5
BRANCH   2  16
HETATM   16  C8  UNL     1      20.620   0.442  52.674  1.00  0.00     0.051 A 
HETATM   17  C9  UNL     1      20.557  -0.492  53.688  1.00  0.00     0.133 A 
HETATM   18  N2  UNL     1      19.498  -1.297  53.877  1.00  0.00    -0.271 NA
HETATM   19  C10 UNL     1      18.431  -1.235  53.079  1.00  0.00     0.135 A 
HETATM   20  C11 UNL     1      18.440  -0.311  52.039  1.00  0.00     0.029 A 
HETATM   21 BR1  UNL     1      16.895  -0.243  50.910  1.00  0.00    -0.050 Br
HETATM   22  C12 UNL     1      19.532   0.533  51.830  1.00  0.00     0.039 A 
ENDBRANCH   2  16
TORSDOF 4
ENDMDL
MODEL 8
REMARK VINA RESULT:      -6.4      2.202      2.644
REMARK  4 active torsions:
REMARK  status: ('A' for Active; 'I' for Inactive)
REMARK       I    between atoms: C1_2  and  N1_3 
REMARK    1  A    between atoms: C1_2  and  C8_14 
REMARK    2  A    between atoms: N1_3  and  S1_4 
REMARK    3  A    between atoms: S1_4  and  C2_7 
REMARK    4  A    between atoms: C5_10  and  S2_11 
ROOT
HETATM    1  O1  UNL     1      25.916   6.714  48.438  1.00  0.00    -0.267 OA
HETATM    2  C1  UNL     1      26.960   6.031  48.653  1.00  0.00     0.266 C 
HETATM    3  N1  UNL     1      26.731   4.875  49.428  1.00  0.00    -0.246 N 
HETATM    4  H1  UNL     1      27.570   4.260  49.642  1.00  0.00     0.182 HD
ENDROOT
BRANCH   3   5
HETATM    5  S1  UNL     1      25.205   4.395  50.046  1.00  0.00     0.265 S 
HETATM    6  O2  UNL     1      24.661   5.549  50.860  1.00  0.00    -0.200 OA
HETATM    7  O3  UNL     1      24.250   4.202  48.906  1.00  0.00    -0.200 OA
BRANCH   5   8
HETATM    8  C2  UNL     1      25.261   2.936  50.980  1.00  0.00     0.080 A 
HETATM    9  C3  UNL     1      26.529   2.382  51.151  1.00  0.00     0.026 A 
HETATM   10  C4  UNL     1      26.750   1.217  51.871  1.00  0.00     0.020 A 
HETATM   11  C5  UNL     1      25.643   0.592  52.438  1.00  0.00    -0.003 A 
HETATM   12  C6  UNL     1      24.381   1.141  52.268  1.00  0.00     0.020 A 
HETATM   13  C7  UNL     1      24.175   2.304  51.548  1.00  0.00     0.026 A 
BRANCH  11  14
HETATM   14  S2  UNL     1      25.922  -0.908  53.365  1.00  0.00    -0.143 SA
HETATM   15  H4  UNL     1      25.279  -0.813  54.629  1.00  0.00     0.107 HD
ENDBRANCH  11  14
ENDBRANCH   5   8
ENDBRANCH   3   5
BRANCH   2  16
HETATM   16  C8  UNL     1      28.265   6.423  48.136  1.00  0.00     0.051 A 
HETATM   17  C9  UNL     1      28.575   7.670  47.633  1.00  0.00     0.133 A 
HETATM   18  N2  UNL     1      29.793   7.989  47.166  1.00  0.00    -0.271 NA
HETATM   19  C10 UNL     1      30.787   7.100  47.162  1.00  0.00     0.135 A 
HETATM   20  C11 UNL     1      30.532   5.826  47.658  1.00  0.00     0.029 A 
HETATM   21 BR1  UNL     1      31.977   4.570  47.643  1.00  0.00    -0.050 Br
HETATM   22  C12 UNL     1      29.271   5.479  48.148  1.00  0.00     0.039 A 
ENDBRANCH   2  16
TORSDOF 4
ENDMDL
MODEL 9
REMARK VINA RESULT:      -6.3      2.816      3.920
REMARK  4 active torsions:
REMARK  status: ('A' for Active; 'I' for Inactive)
REMARK       I    between atoms: C1_2  and  N1_3 
REMARK    1  A    between atoms: C1_2  and  C8_14 
REMARK    2  A    between atoms: N1_3  and  S1_4 
REMARK    3  A    between atoms: S1_4  and  C2_7 
REMARK    4  A    between atoms: C5_10  and  S2_11 
ROOT
HETATM    1  O1  UNL     1      25.239   2.273  49.958  1.00  0.00    -0.267 OA
HETATM    2  C1  UNL     1      25.692   3.343  50.462  1.00  0.00     0.266 C 
HETATM    3  N1  UNL     1      25.979   3.243  51.838  1.00  0.00    -0.246 N 
HETATM    4  H1  UNL     1      26.362   4.110  52.318  1.00  0.00     0.182 HD
ENDROOT
BRANCH   3   5
HETATM    5  S1  UNL     1      25.755   1.832  52.788  1.00  0.00     0.265 S 
HETATM    6  O2  UNL     1      26.615   0.741  52.190  1.00  0.00    -0.200 OA
HETATM    7  O3  UNL     1      26.292   2.076  54.167  1.00  0.00    -0.200 OA
BRANCH   5   8
HETATM    8  C2  UNL     1      24.100   1.334  52.913  1.00  0.00     0.080 A 
HETATM    9  C3  UNL     1      23.897   0.037  53.383  1.00  0.00     0.026 A 
HETATM   10  C4  UNL     1      22.636  -0.517  53.543  1.00  0.00     0.020 A 
HETATM   11  C5  UNL     1      21.539   0.276  53.213  1.00  0.00    -0.003 A 
HETATM   12  C6  UNL     1      21.739   1.566  52.745  1.00  0.00     0.020 A 
HETATM   13  C7  UNL     1      23.004   2.106  52.590  1.00  0.00     0.026 A 
BRANCH  11  14
HETATM   14  S2  UNL     1      19.914  -0.432  53.416  1.00  0.00    -0.143 SA
HETATM   15  H4  UNL     1      19.837  -1.097  54.671  1.00  0.00     0.107 HD
ENDBRANCH  11  14
ENDBRANCH   5   8
ENDBRANCH   3   5
BRANCH   2  16
HETATM   16  C8  UNL     1      25.888   4.551  49.670  1.00  0.00     0.051 A 
HETATM   17  C9  UNL     1      24.894   5.446  49.332  1.00  0.00     0.133 A 
HETATM   18  N2  UNL     1      25.121   6.549  48.599  1.00  0.00    -0.271 NA
HETATM   19  C10 UNL     1      26.342   6.843  48.151  1.00  0.00     0.135 A 
HETATM   20  C11 UNL     1      27.383   5.975  48.462  1.00  0.00     0.029 A 
HETATM   21 BR1  UNL     1      29.126   6.422  47.807  1.00  0.00    -0.050 Br
HETATM   22  C12 UNL     1      27.164   4.825  49.223  1.00  0.00     0.039 A 
ENDBRANCH   2  16
TORSDOF 4
ENDMDL
