MODEL 1
REMARK VINA RESULT:      -9.5      0.000      0.000
REMARK  4 active torsions:
REMARK  status: ('A' for Active; 'I' for Inactive)
REMARK    1  A    between atoms: C7_11  and  N3_12 
REMARK    2  A    between atoms: N3_12  and  C8_13 
REMARK    3  A    between atoms: N4_23  and  C17_24 
REMARK    4  A    between atoms: C17_24  and  C18_25 
ROOT
HETATM    1  O1  UNL     1      22.516   1.025  53.188  1.00  0.00    -0.327 OA
HETATM    2  C1  UNL     1      23.241   0.233  52.662  1.00  0.00     0.234 A 
HETATM    3  C2  UNL     1      21.947  -0.418  52.912  1.00  0.00     0.359 A 
HETATM    4  O2  UNL     1      20.960   0.459  53.359  1.00  0.00    -0.357 OA
HETATM    5  C3  UNL     1      20.830   1.810  53.096  1.00  0.00     0.164 C 
HETATM    6  C4  UNL     1      20.819   3.027  52.632  1.00  0.00     0.083 C 
HETATM    7  C5  UNL     1      21.094   4.031  51.631  1.00  0.00     0.057 A 
HETATM    8  N1  UNL     1      20.284   4.539  50.699  1.00  0.00    -0.245 NA
HETATM    9  C6  UNL     1      20.748   5.500  49.844  1.00  0.00     0.235 A 
HETATM   10  N2  UNL     1      21.984   5.919  49.938  1.00  0.00    -0.224 NA
HETATM   11  C7  UNL     1      22.867   5.471  50.835  1.00  0.00     0.141 A 
HETATM   12  C14 UNL     1      22.431   4.501  51.713  1.00  0.00     0.036 A 
HETATM   13  C15 UNL     1      23.407   3.992  52.675  1.00  0.00     0.034 C 
HETATM   14  C16 UNL     1      24.043   2.886  53.097  1.00  0.00     0.090 C 
HETATM   15  N4  UNL     1      24.069   1.446  52.750  1.00  0.00    -0.349 N 
ENDROOT
BRANCH  11  16
HETATM   16  N3  UNL     1      24.201   5.944  50.928  1.00  0.00    -0.340 N 
HETATM   17  H6  UNL     1      24.429   6.657  51.675  1.00  0.00     0.167 HD
BRANCH  16  18
HETATM   18  C8  UNL     1      25.310   5.597  50.154  1.00  0.00     0.035 A 
HETATM   19  C9  UNL     1      25.788   4.289  50.060  1.00  0.00     0.029 A 
HETATM   20  C10 UNL     1      26.857   3.888  49.326  1.00  0.00     0.004 A 
HETATM   21  C11 UNL     1      27.557   4.807  48.601  1.00  0.00     0.019 A 
HETATM   22  C12 UNL     1      27.164   6.126  48.629  1.00  0.00     0.013 A 
HETATM   23 BR1  UNL     1      28.158   7.372  47.611  1.00  0.00    -0.051 Br
HETATM   24  C13 UNL     1      26.079   6.452  49.390  1.00  0.00     0.048 A 
ENDBRANCH  16  18
ENDBRANCH  11  16
BRANCH  15  25
HETATM   25  C17 UNL     1      25.295   1.018  52.277  1.00  0.00     0.161 C 
BRANCH  25  26
HETATM   26  C18 UNL     1      26.522   1.101  53.105  1.00  0.00     0.238 C 
HETATM   27  C19 UNL     1      27.577   2.031  52.534  1.00  0.00     0.037 C 
HETATM   28  C20 UNL     1      28.463   2.469  53.698  1.00  0.00     0.004 C 
HETATM   29  C21 UNL     1      29.036   1.197  54.271  1.00  0.00     0.030 C 
HETATM   30  C22 UNL     1      27.964   0.216  54.680  1.00  0.00     0.270 C 
HETATM   31  N5  UNL     1      27.086  -0.137  53.565  1.00  0.00     0.089 N 
HETATM   32  H24 UNL     1      27.717  -0.609  52.888  1.00  0.00     0.316 HD
ENDBRANCH  25  26
ENDBRANCH  15  25
TORSDOF 4
ENDMDL
MODEL 2
REMARK VINA RESULT:      -9.3      1.686      1.927
REMARK  4 active torsions:
REMARK  status: ('A' for Active; 'I' for Inactive)
REMARK    1  A    between atoms: C7_11  and  N3_12 
REMARK    2  A    between atoms: N3_12  and  C8_13 
REMARK    3  A    between atoms: N4_23  and  C17_24 
REMARK    4  A    between atoms: C17_24  and  C18_25 
ROOT
HETATM    1  O1  UNL     1      22.214   0.226  53.753  1.00  0.00    -0.327 OA
HETATM    2  C1  UNL     1      22.826  -0.800  53.785  1.00  0.00     0.234 A 
HETATM    3  C2  UNL     1      21.415  -1.093  54.075  1.00  0.00     0.359 A 
HETATM    4  O2  UNL     1      20.570  -0.000  53.889  1.00  0.00    -0.357 OA
HETATM    5  C3  UNL     1      20.722   1.062  53.017  1.00  0.00     0.164 C 
HETATM    6  C4  UNL     1      20.985   1.897  52.052  1.00  0.00     0.083 C 
HETATM    7  C5  UNL     1      21.540   2.255  50.768  1.00  0.00     0.057 A 
HETATM    8  N1  UNL     1      20.935   2.343  49.581  1.00  0.00    -0.245 NA
HETATM    9  C6  UNL     1      21.654   2.712  48.477  1.00  0.00     0.235 A 
HETATM   10  N2  UNL     1      22.931   2.976  48.584  1.00  0.00    -0.224 NA
HETATM   11  C7  UNL     1      23.621   2.915  49.726  1.00  0.00     0.141 A 
HETATM   12  C14 UNL     1      22.926   2.545  50.860  1.00  0.00     0.036 A 
HETATM   13  C15 UNL     1      23.690   2.451  52.102  1.00  0.00     0.034 C 
HETATM   14  C16 UNL     1      24.063   1.619  53.090  1.00  0.00     0.090 C 
HETATM   15  N4  UNL     1      23.853   0.198  53.451  1.00  0.00    -0.349 N 
ENDROOT
BRANCH  11  16
HETATM   16  N3  UNL     1      25.004   3.213  49.825  1.00  0.00    -0.340 N 
HETATM   17  H6  UNL     1      25.631   2.521  50.321  1.00  0.00     0.167 HD
BRANCH  16  18
HETATM   18  C8  UNL     1      25.698   4.326  49.345  1.00  0.00     0.035 A 
HETATM   19  C9  UNL     1      25.084   5.558  49.114  1.00  0.00     0.029 A 
HETATM   20  C10 UNL     1      25.700   6.675  48.650  1.00  0.00     0.004 A 
HETATM   21  C11 UNL     1      27.035   6.638  48.371  1.00  0.00     0.019 A 
HETATM   22  C12 UNL     1      27.731   5.467  48.566  1.00  0.00     0.013 A 
HETATM   23 BR1  UNL     1      29.580   5.453  48.169  1.00  0.00    -0.051 Br
HETATM   24  C13 UNL     1      27.041   4.387  49.035  1.00  0.00     0.048 A 
ENDBRANCH  16  18
ENDBRANCH  11  16
BRANCH  15  25
HETATM   25  C17 UNL     1      25.018  -0.545  53.451  1.00  0.00     0.161 C 
BRANCH  25  26
HETATM   26  C18 UNL     1      26.344   0.082  53.668  1.00  0.00     0.238 C 
HETATM   27  C19 UNL     1      26.961   0.647  52.402  1.00  0.00     0.037 C 
HETATM   28  C20 UNL     1      27.957   1.723  52.831  1.00  0.00     0.004 C 
HETATM   29  C21 UNL     1      28.953   1.021  53.719  1.00  0.00     0.030 C 
HETATM   30  C22 UNL     1      28.293   0.325  54.886  1.00  0.00     0.270 C 
HETATM   31  N5  UNL     1      27.296  -0.653  54.452  1.00  0.00     0.089 N 
HETATM   32  H24 UNL     1      27.849  -1.357  53.924  1.00  0.00     0.316 HD
ENDBRANCH  25  26
ENDBRANCH  15  25
TORSDOF 4
ENDMDL
MODEL 3
REMARK VINA RESULT:      -9.1      2.944      5.810
REMARK  4 active torsions:
REMARK  status: ('A' for Active; 'I' for Inactive)
REMARK    1  A    between atoms: C7_11  and  N3_12 
REMARK    2  A    between atoms: N3_12  and  C8_13 
REMARK    3  A    between atoms: N4_23  and  C17_24 
REMARK    4  A    between atoms: C17_24  and  C18_25 
ROOT
HETATM    1  O1  UNL     1      21.300   4.971  51.264  1.00  0.00    -0.327 OA
HETATM    2  C1  UNL     1      20.483   4.151  50.963  1.00  0.00     0.234 A 
HETATM    3  C2  UNL     1      20.166   5.401  50.258  1.00  0.00     0.359 A 
HETATM    4  O2  UNL     1      21.150   6.380  50.388  1.00  0.00    -0.357 OA
HETATM    5  C3  UNL     1      22.509   6.208  50.576  1.00  0.00     0.164 C 
HETATM    6  C4  UNL     1      23.757   5.836  50.623  1.00  0.00     0.083 C 
HETATM    7  C5  UNL     1      24.850   4.940  50.328  1.00  0.00     0.057 A 
HETATM    8  N1  UNL     1      25.756   5.006  49.350  1.00  0.00    -0.245 NA
HETATM    9  C6  UNL     1      26.725   4.045  49.254  1.00  0.00     0.235 A 
HETATM   10  N2  UNL     1      26.763   3.064  50.119  1.00  0.00    -0.224 NA
HETATM   11  C7  UNL     1      25.901   2.914  51.129  1.00  0.00     0.141 A 
HETATM   12  C14 UNL     1      24.910   3.866  51.254  1.00  0.00     0.036 A 
HETATM   13  C15 UNL     1      23.952   3.684  52.343  1.00  0.00     0.034 C 
HETATM   14  C16 UNL     1      22.650   3.517  52.629  1.00  0.00     0.090 C 
HETATM   15  N4  UNL     1      21.375   3.424  51.880  1.00  0.00    -0.349 N 
ENDROOT
BRANCH  11  16
HETATM   16  N3  UNL     1      25.963   1.848  52.062  1.00  0.00    -0.340 N 
HETATM   17  H6  UNL     1      25.059   1.375  52.343  1.00  0.00     0.167 HD
BRANCH  16  18
HETATM   18  C8  UNL     1      27.081   1.298  52.694  1.00  0.00     0.035 A 
HETATM   19  C9  UNL     1      27.976   2.061  53.445  1.00  0.00     0.029 A 
HETATM   20  C10 UNL     1      29.077   1.589  54.083  1.00  0.00     0.004 A 
HETATM   21  C11 UNL     1      29.376   0.260  54.011  1.00  0.00     0.019 A 
HETATM   22  C12 UNL     1      28.553  -0.576  53.292  1.00  0.00     0.013 A 
HETATM   23 BR1  UNL     1      28.999  -2.413  53.215  1.00  0.00    -0.051 Br
HETATM   24  C13 UNL     1      27.465  -0.027  52.679  1.00  0.00     0.048 A 
ENDBRANCH  16  18
ENDBRANCH  11  16
BRANCH  15  25
HETATM   25  C17 UNL     1      20.752   2.197  52.008  1.00  0.00     0.161 C 
BRANCH  25  26
HETATM   26  C18 UNL     1      21.294   1.136  52.889  1.00  0.00     0.238 C 
HETATM   27  C19 UNL     1      22.096   0.082  52.147  1.00  0.00     0.037 C 
HETATM   28  C20 UNL     1      23.039  -0.559  53.162  1.00  0.00     0.004 C 
HETATM   29  C21 UNL     1      22.149  -1.134  54.236  1.00  0.00     0.030 C 
HETATM   30  C22 UNL     1      21.240  -0.094  54.846  1.00  0.00     0.270 C 
HETATM   31  N5  UNL     1      20.393   0.554  53.845  1.00  0.00     0.089 N 
HETATM   32  H24 UNL     1      19.803  -0.218  53.478  1.00  0.00     0.316 HD
ENDBRANCH  25  26
ENDBRANCH  15  25
TORSDOF 4
ENDMDL
MODEL 4
REMARK VINA RESULT:      -8.7      2.748      6.089
REMARK  4 active torsions:
REMARK  status: ('A' for Active; 'I' for Inactive)
REMARK    1  A    between atoms: C7_11  and  N3_12 
REMARK    2  A    between atoms: N3_12  and  C8_13 
REMARK    3  A    between atoms: N4_23  and  C17_24 
REMARK    4  A    between atoms: C17_24  and  C18_25 
ROOT
HETATM    1  O1  UNL     1      21.655   4.077  50.815  1.00  0.00    -0.327 OA
HETATM    2  C1  UNL     1      22.404   4.979  51.049  1.00  0.00     0.234 A 
HETATM    3  C2  UNL     1      21.026   5.480  51.159  1.00  0.00     0.359 A 
HETATM    4  O2  UNL     1      20.061   4.477  51.085  1.00  0.00    -0.357 OA
HETATM    5  C3  UNL     1      20.174   3.151  51.458  1.00  0.00     0.164 C 
HETATM    6  C4  UNL     1      20.441   1.987  51.979  1.00  0.00     0.083 C 
HETATM    7  C5  UNL     1      21.112   1.112  52.912  1.00  0.00     0.057 A 
HETATM    8  N1  UNL     1      20.675   0.621  54.074  1.00  0.00    -0.245 NA
HETATM    9  C6  UNL     1      21.478  -0.208  54.808  1.00  0.00     0.235 A 
HETATM   10  N2  UNL     1      22.673  -0.517  54.373  1.00  0.00    -0.224 NA
HETATM   11  C7  UNL     1      23.196  -0.075  53.225  1.00  0.00     0.141 A 
HETATM   12  C14 UNL     1      22.412   0.763  52.460  1.00  0.00     0.036 A 
HETATM   13  C15 UNL     1      22.998   1.268  51.220  1.00  0.00     0.034 C 
HETATM   14  C16 UNL     1      23.349   2.384  50.558  1.00  0.00     0.090 C 
HETATM   15  N4  UNL     1      23.306   3.846  50.792  1.00  0.00    -0.349 N 
ENDROOT
BRANCH  11  16
HETATM   16  N3  UNL     1      24.490  -0.428  52.766  1.00  0.00    -0.340 N 
HETATM   17  H6  UNL     1      24.577  -1.229  52.080  1.00  0.00     0.167 HD
BRANCH  16  18
HETATM   18  C8  UNL     1      25.722   0.144  53.089  1.00  0.00     0.035 A 
HETATM   19  C9  UNL     1      25.874   1.502  53.376  1.00  0.00     0.029 A 
HETATM   20  C10 UNL     1      27.040   2.118  53.697  1.00  0.00     0.004 A 
HETATM   21  C11 UNL     1      28.190   1.387  53.757  1.00  0.00     0.019 A 
HETATM   22  C12 UNL     1      28.145   0.038  53.490  1.00  0.00     0.013 A 
HETATM   23 BR1  UNL     1      29.760  -0.942  53.582  1.00  0.00    -0.051 Br
HETATM   24  C13 UNL     1      26.935  -0.509  53.174  1.00  0.00     0.048 A 
ENDBRANCH  16  18
ENDBRANCH  11  16
BRANCH  15  25
HETATM   25  C17 UNL     1      24.558   4.429  50.846  1.00  0.00     0.161 C 
BRANCH  25  26
HETATM   26  C18 UNL     1      24.874   5.669  50.098  1.00  0.00     0.238 C 
HETATM   27  C19 UNL     1      24.708   5.529  48.596  1.00  0.00     0.037 C 
HETATM   28  C20 UNL     1      24.484   6.932  48.038  1.00  0.00     0.004 C 
HETATM   29  C21 UNL     1      25.705   7.724  48.432  1.00  0.00     0.030 C 
HETATM   30  C22 UNL     1      25.942   7.711  49.924  1.00  0.00     0.270 C 
HETATM   31  N5  UNL     1      26.088   6.353  50.446  1.00  0.00     0.089 N 
HETATM   32  H24 UNL     1      26.943   5.994  49.978  1.00  0.00     0.316 HD
ENDBRANCH  25  26
ENDBRANCH  15  25
TORSDOF 4
ENDMDL
MODEL 5
REMARK VINA RESULT:      -8.7      1.526      5.050
REMARK  4 active torsions:
REMARK  status: ('A' for Active; 'I' for Inactive)
REMARK    1  A    between atoms: C7_11  and  N3_12 
REMARK    2  A    between atoms: N3_12  and  C8_13 
REMARK    3  A    between atoms: N4_23  and  C17_24 
REMARK    4  A    between atoms: C17_24  and  C18_25 
ROOT
HETATM    1  O1  UNL     1      21.490   0.364  53.233  1.00  0.00    -0.327 OA
HETATM    2  C1  UNL     1      20.713   1.215  53.550  1.00  0.00     0.234 A 
HETATM    3  C2  UNL     1      20.806   0.242  54.647  1.00  0.00     0.359 A 
HETATM    4  O2  UNL     1      21.816  -0.702  54.470  1.00  0.00    -0.357 OA
HETATM    5  C3  UNL     1      23.008  -0.562  53.784  1.00  0.00     0.164 C 
HETATM    6  C4  UNL     1      24.115  -0.191  53.204  1.00  0.00     0.083 C 
HETATM    7  C5  UNL     1      25.116   0.780  52.834  1.00  0.00     0.057 A 
HETATM    8  N1  UNL     1      26.289   1.049  53.414  1.00  0.00    -0.245 NA
HETATM    9  C6  UNL     1      27.102   2.016  52.890  1.00  0.00     0.235 A 
HETATM   10  N2  UNL     1      26.730   2.677  51.824  1.00  0.00    -0.224 NA
HETATM   11  C7  UNL     1      25.579   2.480  51.176  1.00  0.00     0.141 A 
HETATM   12  C14 UNL     1      24.735   1.511  51.678  1.00  0.00     0.036 A 
HETATM   13  C15 UNL     1      23.463   1.318  50.984  1.00  0.00     0.034 C 
HETATM   14  C16 UNL     1      22.128   1.352  51.131  1.00  0.00     0.090 C 
HETATM   15  N4  UNL     1      21.160   1.642  52.214  1.00  0.00    -0.349 N 
ENDROOT
BRANCH  11  16
HETATM   16  N3  UNL     1      25.197   3.201  50.016  1.00  0.00    -0.340 N 
HETATM   17  H6  UNL     1      24.326   2.895  49.500  1.00  0.00     0.167 HD
BRANCH  16  18
HETATM   18  C8  UNL     1      25.819   4.302  49.423  1.00  0.00     0.035 A 
HETATM   19  C9  UNL     1      25.129   5.466  49.079  1.00  0.00     0.029 A 
HETATM   20  C10 UNL     1      25.673   6.568  48.503  1.00  0.00     0.004 A 
HETATM   21  C11 UNL     1      27.007   6.586  48.218  1.00  0.00     0.019 A 
HETATM   22  C12 UNL     1      27.775   5.486  48.520  1.00  0.00     0.013 A 
HETATM   23 BR1  UNL     1      29.620   5.547  48.111  1.00  0.00    -0.051 Br
HETATM   24  C13 UNL     1      27.155   4.416  49.098  1.00  0.00     0.048 A 
ENDBRANCH  16  18
ENDBRANCH  11  16
BRANCH  15  25
HETATM   25  C17 UNL     1      20.372   2.750  51.964  1.00  0.00     0.161 C 
BRANCH  25  26
HETATM   26  C18 UNL     1      20.944   4.006  51.424  1.00  0.00     0.238 C 
HETATM   27  C19 UNL     1      21.873   4.715  52.392  1.00  0.00     0.037 C 
HETATM   28  C20 UNL     1      22.802   5.595  51.559  1.00  0.00     0.004 C 
HETATM   29  C21 UNL     1      21.896   6.536  50.803  1.00  0.00     0.030 C 
HETATM   30  C22 UNL     1      20.870   5.804  49.972  1.00  0.00     0.270 C 
HETATM   31  N5  UNL     1      20.037   4.916  50.783  1.00  0.00     0.089 N 
HETATM   32  H24 UNL     1      19.535   5.560  51.425  1.00  0.00     0.316 HD
ENDBRANCH  25  26
ENDBRANCH  15  25
TORSDOF 4
ENDMDL
MODEL 6
REMARK VINA RESULT:      -8.5      3.040      5.891
REMARK  4 active torsions:
REMARK  status: ('A' for Active; 'I' for Inactive)
REMARK    1  A    between atoms: C7_11  and  N3_12 
REMARK    2  A    between atoms: N3_12  and  C8_13 
REMARK    3  A    between atoms: N4_23  and  C17_24 
REMARK    4  A    between atoms: C17_24  and  C18_25 
ROOT
HETATM    1  O1  UNL     1      26.408   0.599  53.193  1.00  0.00    -0.327 OA
HETATM    2  C1  UNL     1      26.891   0.590  52.099  1.00  0.00     0.234 A 
HETATM    3  C2  UNL     1      27.584  -0.413  52.919  1.00  0.00     0.359 A 
HETATM    4  O2  UNL     1      26.991  -0.622  54.163  1.00  0.00    -0.357 OA
HETATM    5  C3  UNL     1      25.661  -0.480  54.513  1.00  0.00     0.164 C 
HETATM    6  C4  UNL     1      24.363  -0.410  54.605  1.00  0.00     0.083 C 
HETATM    7  C5  UNL     1      23.022  -0.512  54.078  1.00  0.00     0.057 A 
HETATM    8  N1  UNL     1      22.156  -1.525  54.161  1.00  0.00    -0.245 NA
HETATM    9  C6  UNL     1      20.919  -1.410  53.590  1.00  0.00     0.235 A 
HETATM   10  N2  UNL     1      20.584  -0.311  52.964  1.00  0.00    -0.224 NA
HETATM   11  C7  UNL     1      21.381   0.753  52.829  1.00  0.00     0.141 A 
HETATM   12  C14 UNL     1      22.638   0.671  53.393  1.00  0.00     0.036 A 
HETATM   13  C15 UNL     1      23.518   1.825  53.219  1.00  0.00     0.034 C 
HETATM   14  C16 UNL     1      24.698   2.227  52.717  1.00  0.00     0.090 C 
HETATM   15  N4  UNL     1      25.840   1.615  51.999  1.00  0.00    -0.349 N 
ENDROOT
BRANCH  11  16
HETATM   16  N3  UNL     1      20.999   1.940  52.154  1.00  0.00    -0.340 N 
HETATM   17  H6  UNL     1      20.818   2.808  52.730  1.00  0.00     0.167 HD
BRANCH  16  18
HETATM   18  C8  UNL     1      20.818   2.151  50.785  1.00  0.00     0.035 A 
HETATM   19  C9  UNL     1      21.399   1.338  49.811  1.00  0.00     0.029 A 
HETATM   20  C10 UNL     1      21.262   1.488  48.469  1.00  0.00     0.004 A 
HETATM   21  C11 UNL     1      20.499   2.510  47.983  1.00  0.00     0.019 A 
HETATM   22  C12 UNL     1      19.883   3.368  48.865  1.00  0.00     0.013 A 
HETATM   23 BR1  UNL     1      18.834   4.772  48.155  1.00  0.00    -0.051 Br
HETATM   24  C13 UNL     1      20.069   3.151  50.199  1.00  0.00     0.048 A 
ENDBRANCH  16  18
ENDBRANCH  11  16
BRANCH  15  25
HETATM   25  C17 UNL     1      26.019   2.118  50.724  1.00  0.00     0.161 C 
BRANCH  25  26
HETATM   26  C18 UNL     1      25.416   3.405  50.302  1.00  0.00     0.238 C 
HETATM   27  C19 UNL     1      24.479   3.274  49.115  1.00  0.00     0.037 C 
HETATM   28  C20 UNL     1      23.526   4.466  49.164  1.00  0.00     0.004 C 
HETATM   29  C21 UNL     1      24.404   5.690  49.100  1.00  0.00     0.030 C 
HETATM   30  C22 UNL     1      25.439   5.714  50.199  1.00  0.00     0.270 C 
HETATM   31  N5  UNL     1      26.298   4.530  50.172  1.00  0.00     0.089 N 
HETATM   32  H24 UNL     1      26.791   4.598  49.261  1.00  0.00     0.316 HD
ENDBRANCH  25  26
ENDBRANCH  15  25
TORSDOF 4
ENDMDL
MODEL 7
REMARK VINA RESULT:      -8.4      3.032      6.499
REMARK  4 active torsions:
REMARK  status: ('A' for Active; 'I' for Inactive)
REMARK    1  A    between atoms: C7_11  and  N3_12 
REMARK    2  A    between atoms: N3_12  and  C8_13 
REMARK    3  A    between atoms: N4_23  and  C17_24 
REMARK    4  A    between atoms: C17_24  and  C18_25 
ROOT
HETATM    1  O1  UNL     1      21.949   6.811  50.743  1.00  0.00    -0.327 OA
HETATM    2  C1  UNL     1      20.970   6.439  50.165  1.00  0.00     0.234 A 
HETATM    3  C2  UNL     1      21.224   7.838  49.793  1.00  0.00     0.359 A 
HETATM    4  O2  UNL     1      22.442   8.328  50.264  1.00  0.00    -0.357 OA
HETATM    5  C3  UNL     1      23.606   7.627  50.516  1.00  0.00     0.164 C 
HETATM    6  C4  UNL     1      24.626   6.817  50.570  1.00  0.00     0.083 C 
HETATM    7  C5  UNL     1      25.386   5.666  50.143  1.00  0.00     0.057 A 
HETATM    8  N1  UNL     1      26.419   5.601  49.299  1.00  0.00    -0.245 NA
HETATM    9  C6  UNL     1      27.006   4.394  49.035  1.00  0.00     0.235 A 
HETATM   10  N2  UNL     1      26.557   3.307  49.608  1.00  0.00    -0.224 NA
HETATM   11  C7  UNL     1      25.531   3.273  50.463  1.00  0.00     0.141 A 
HETATM   12  C14 UNL     1      24.915   4.473  50.751  1.00  0.00     0.036 A 
HETATM   13  C15 UNL     1      23.775   4.429  51.665  1.00  0.00     0.034 C 
HETATM   14  C16 UNL     1      22.464   4.700  51.782  1.00  0.00     0.090 C 
HETATM   15  N4  UNL     1      21.387   5.252  50.929  1.00  0.00    -0.349 N 
ENDROOT
BRANCH  11  16
HETATM   16  N3  UNL     1      25.062   2.085  51.080  1.00  0.00    -0.340 N 
HETATM   17  H6  UNL     1      24.169   1.651  50.717  1.00  0.00     0.167 HD
BRANCH  16  18
HETATM   18  C8  UNL     1      25.623   1.367  52.138  1.00  0.00     0.035 A 
HETATM   19  C9  UNL     1      24.853   0.715  53.102  1.00  0.00     0.029 A 
HETATM   20  C10 UNL     1      25.335   0.001  54.152  1.00  0.00     0.004 A 
HETATM   21  C11 UNL     1      26.684  -0.116  54.320  1.00  0.00     0.019 A 
HETATM   22  C12 UNL     1      27.529   0.492  53.420  1.00  0.00     0.013 A 
HETATM   23 BR1  UNL     1      29.392   0.307  53.685  1.00  0.00    -0.051 Br
HETATM   24  C13 UNL     1      26.969   1.191  52.391  1.00  0.00     0.048 A 
ENDBRANCH  16  18
ENDBRANCH  11  16
BRANCH  15  25
HETATM   25  C17 UNL     1      20.373   4.348  50.671  1.00  0.00     0.161 C 
BRANCH  25  26
HETATM   26  C18 UNL     1      20.466   2.931  51.097  1.00  0.00     0.238 C 
HETATM   27  C19 UNL     1      20.766   1.975  49.957  1.00  0.00     0.037 C 
HETATM   28  C20 UNL     1      21.396   0.728  50.574  1.00  0.00     0.004 C 
HETATM   29  C21 UNL     1      20.373   0.196  51.546  1.00  0.00     0.030 C 
HETATM   30  C22 UNL     1      19.967   1.226  52.575  1.00  0.00     0.270 C 
HETATM   31  N5  UNL     1      19.428   2.437  51.958  1.00  0.00     0.089 N 
HETATM   32  H24 UNL     1      18.572   2.111  51.469  1.00  0.00     0.316 HD
ENDBRANCH  25  26
ENDBRANCH  15  25
TORSDOF 4
ENDMDL
MODEL 8
REMARK VINA RESULT:      -8.4      3.587      6.963
REMARK  4 active torsions:
REMARK  status: ('A' for Active; 'I' for Inactive)
REMARK    1  A    between atoms: C7_11  and  N3_12 
REMARK    2  A    between atoms: N3_12  and  C8_13 
REMARK    3  A    between atoms: N4_23  and  C17_24 
REMARK    4  A    between atoms: C17_24  and  C18_25 
ROOT
HETATM    1  O1  UNL     1      24.227   6.152  48.097  1.00  0.00    -0.327 OA
HETATM    2  C1  UNL     1      24.462   7.251  48.503  1.00  0.00     0.234 A 
HETATM    3  C2  UNL     1      23.190   7.292  47.767  1.00  0.00     0.359 A 
HETATM    4  O2  UNL     1      22.719   6.033  47.399  1.00  0.00    -0.357 OA
HETATM    5  C3  UNL     1      22.925   4.822  48.033  1.00  0.00     0.164 C 
HETATM    6  C4  UNL     1      23.131   3.818  48.839  1.00  0.00     0.083 C 
HETATM    7  C5  UNL     1      23.351   3.228  50.138  1.00  0.00     0.057 A 
HETATM    8  N1  UNL     1      22.473   2.656  50.966  1.00  0.00    -0.245 NA
HETATM    9  C6  UNL     1      22.898   2.147  52.162  1.00  0.00     0.235 A 
HETATM   10  N2  UNL     1      24.162   2.221  52.494  1.00  0.00    -0.224 NA
HETATM   11  C7  UNL     1      25.111   2.774  51.734  1.00  0.00     0.141 A 
HETATM   12  C14 UNL     1      24.716   3.298  50.520  1.00  0.00     0.036 A 
HETATM   13  C15 UNL     1      25.752   3.927  49.704  1.00  0.00     0.034 C 
HETATM   14  C16 UNL     1      26.125   5.078  49.117  1.00  0.00     0.090 C 
HETATM   15  N4  UNL     1      25.598   6.456  48.994  1.00  0.00    -0.349 N 
ENDROOT
BRANCH  11  16
HETATM   16  N3  UNL     1      26.478   2.837  52.107  1.00  0.00    -0.340 N 
HETATM   17  H6  UNL     1      27.001   3.741  51.940  1.00  0.00     0.167 HD
BRANCH  16  18
HETATM   18  C8  UNL     1      27.275   1.850  52.689  1.00  0.00     0.035 A 
HETATM   19  C9  UNL     1      28.339   2.142  53.544  1.00  0.00     0.029 A 
HETATM   20  C10 UNL     1      29.149   1.231  54.141  1.00  0.00     0.004 A 
HETATM   21  C11 UNL     1      28.943  -0.098  53.916  1.00  0.00     0.019 A 
HETATM   22  C12 UNL     1      27.917  -0.490  53.087  1.00  0.00     0.013 A 
HETATM   23 BR1  UNL     1      27.663  -2.341  52.798  1.00  0.00    -0.051 Br
HETATM   24  C13 UNL     1      27.147   0.485  52.523  1.00  0.00     0.048 A 
ENDBRANCH  16  18
ENDBRANCH  11  16
BRANCH  15  25
HETATM   25  C17 UNL     1      26.410   7.408  49.581  1.00  0.00     0.161 C 
BRANCH  25  26
HETATM   26  C18 UNL     1      27.554   8.013  48.857  1.00  0.00     0.238 C 
HETATM   27  C19 UNL     1      27.950   7.250  47.606  1.00  0.00     0.037 C 
HETATM   28  C20 UNL     1      28.676   8.235  46.692  1.00  0.00     0.004 C 
HETATM   29  C21 UNL     1      29.857   8.730  47.489  1.00  0.00     0.030 C 
HETATM   30  C22 UNL     1      29.447   9.338  48.809  1.00  0.00     0.270 C 
HETATM   31  N5  UNL     1      28.695   8.397  49.639  1.00  0.00     0.089 N 
HETATM   32  H24 UNL     1      29.373   7.634  49.830  1.00  0.00     0.316 HD
ENDBRANCH  25  26
ENDBRANCH  15  25
TORSDOF 4
ENDMDL
MODEL 9
REMARK VINA RESULT:      -8.2      2.998      6.183
REMARK  4 active torsions:
REMARK  status: ('A' for Active; 'I' for Inactive)
REMARK    1  A    between atoms: C7_11  and  N3_12 
REMARK    2  A    between atoms: N3_12  and  C8_13 
REMARK    3  A    between atoms: N4_23  and  C17_24 
REMARK    4  A    between atoms: C17_24  and  C18_25 
ROOT
HETATM    1  O1  UNL     1      22.182   6.253  49.933  1.00  0.00    -0.327 OA
HETATM    2  C1  UNL     1      23.036   6.930  50.425  1.00  0.00     0.234 A 
HETATM    3  C2  UNL     1      21.794   7.715  50.377  1.00  0.00     0.359 A 
HETATM    4  O2  UNL     1      20.681   6.972  49.988  1.00  0.00    -0.357 OA
HETATM    5  C3  UNL     1      20.447   5.621  50.168  1.00  0.00     0.164 C 
HETATM    6  C4  UNL     1      20.366   4.375  50.542  1.00  0.00     0.083 C 
HETATM    7  C5  UNL     1      20.648   3.272  51.429  1.00  0.00     0.057 A 
HETATM    8  N1  UNL     1      19.900   2.764  52.411  1.00  0.00    -0.245 NA
HETATM    9  C6  UNL     1      20.358   1.698  53.135  1.00  0.00     0.235 A 
HETATM   10  N2  UNL     1      21.528   1.177  52.865  1.00  0.00    -0.224 NA
HETATM   11  C7  UNL     1      22.346   1.615  51.904  1.00  0.00     0.141 A 
HETATM   12  C14 UNL     1      21.914   2.691  51.155  1.00  0.00     0.036 A 
HETATM   13  C15 UNL     1      22.824   3.186  50.124  1.00  0.00     0.034 C 
HETATM   14  C16 UNL     1      23.516   4.260  49.709  1.00  0.00     0.090 C 
HETATM   15  N4  UNL     1      23.724   5.658  50.153  1.00  0.00    -0.349 N 
ENDROOT
BRANCH  11  16
HETATM   16  N3  UNL     1      23.607   1.032  51.621  1.00  0.00    -0.340 N 
HETATM   17  H6  UNL     1      23.707   0.460  50.737  1.00  0.00     0.167 HD
BRANCH  16  18
HETATM   18  C8  UNL     1      24.791   1.101  52.358  1.00  0.00     0.035 A 
HETATM   19  C9  UNL     1      25.119   2.194  53.161  1.00  0.00     0.029 A 
HETATM   20  C10 UNL     1      26.250   2.322  53.901  1.00  0.00     0.004 A 
HETATM   21  C11 UNL     1      27.175   1.320  53.890  1.00  0.00     0.019 A 
HETATM   22  C12 UNL     1      26.944   0.198  53.128  1.00  0.00     0.013 A 
HETATM   23 BR1  UNL     1      28.248  -1.171  53.138  1.00  0.00    -0.051 Br
HETATM   24  C13 UNL     1      25.783   0.143  52.412  1.00  0.00     0.048 A 
ENDBRANCH  16  18
ENDBRANCH  11  16
BRANCH  15  25
HETATM   25  C17 UNL     1      25.031   5.932  50.507  1.00  0.00     0.161 C 
BRANCH  25  26
HETATM   26  C18 UNL     1      25.843   6.934  49.776  1.00  0.00     0.238 C 
HETATM   27  C19 UNL     1      26.727   6.331  48.700  1.00  0.00     0.037 C 
HETATM   28  C20 UNL     1      27.023   7.437  47.691  1.00  0.00     0.004 C 
HETATM   29  C21 UNL     1      27.702   8.531  48.477  1.00  0.00     0.030 C 
HETATM   30  C22 UNL     1      26.869   9.002  49.645  1.00  0.00     0.270 C 
HETATM   31  N5  UNL     1      26.542   7.912  50.563  1.00  0.00     0.089 N 
HETATM   32  H24 UNL     1      27.465   7.603  50.926  1.00  0.00     0.316 HD
ENDBRANCH  25  26
ENDBRANCH  15  25
TORSDOF 4
ENDMDL
