MODEL 1
REMARK VINA RESULT:      -9.0      0.000      0.000
REMARK  7 active torsions:
REMARK  status: ('A' for Active; 'I' for Inactive)
REMARK    1  A    between atoms: O1_1  and  C1_2 
REMARK    2  A    between atoms: C3_4  and  N1_5 
REMARK    3  A    between atoms: N1_5  and  C4_6 
REMARK    4  A    between atoms: C9_13  and  N4_14 
REMARK    5  A    between atoms: N4_14  and  C10_15 
REMARK    6  A    between atoms: C10_15  and  C11_16 
REMARK    7  A    between atoms: C12_17  and  C13_18 
ROOT
HETATM    1  C4  UNL     1      23.835  -0.399  53.538  1.00  0.00     0.142 A 
HETATM    2  N2  UNL     1      23.854  -1.008  54.726  1.00  0.00    -0.224 NA
HETATM    3  C5  UNL     1      22.775  -1.395  55.412  1.00  0.00     0.236 A 
HETATM    4  N3  UNL     1      21.547  -1.173  54.905  1.00  0.00    -0.241 NA
HETATM    5  C6  UNL     1      21.437  -0.562  53.709  1.00  0.00     0.072 A 
HETATM    6  C7  UNL     1      20.164  -0.368  53.256  1.00  0.00     0.035 A 
HETATM    7  C8  UNL     1      19.974   0.245  52.055  1.00  0.00     0.031 A 
HETATM    8  C9  UNL     1      21.063   0.676  51.286  1.00  0.00     0.029 A 
HETATM    9  C17 UNL     1      22.307   0.434  51.828  1.00  0.00     0.046 A 
HETATM   10  C18 UNL     1      22.574  -0.178  53.032  1.00  0.00     0.041 A 
ENDROOT
BRANCH   8  11
HETATM   11  N4  UNL     1      20.895   1.325  50.021  1.00  0.00    -0.380 N 
HETATM   12  H7  UNL     1      20.897   0.666  49.184  1.00  0.00     0.160 HD
BRANCH  11  13
HETATM   13  C10 UNL     1      20.733   2.733  49.823  1.00  0.00     0.214 C 
BRANCH  13  14
HETATM   14  C11 UNL     1      21.943   3.405  50.321  1.00  0.00    -0.085 C 
HETATM   15  C12 UNL     1      22.928   3.934  50.738  1.00  0.00    -0.067 C 
BRANCH  15  16
HETATM   16  C13 UNL     1      24.135   4.570  51.269  1.00  0.00     0.322 C 
HETATM   17  C14 UNL     1      24.817   5.438  50.240  1.00  0.00     0.216 C 
HETATM   18  O2  UNL     1      25.194   4.641  49.164  1.00  0.00    -0.386 OA
HETATM   19  C15 UNL     1      26.171   3.770  49.591  1.00  0.00     0.197 C 
HETATM   20  C16 UNL     1      25.770   2.893  50.733  1.00  0.00     0.297 C 
HETATM   21  N5  UNL     1      25.059   3.587  51.787  1.00  0.00     0.103 N 
HETATM   22  H17 UNL     1      25.768   4.105  52.362  1.00  0.00     0.317 HD
ENDBRANCH  15  16
ENDBRANCH  13  14
ENDBRANCH  11  13
ENDBRANCH   8  11
BRANCH   1  23
HETATM   23  N1  UNL     1      24.962   0.018  52.794  1.00  0.00    -0.340 N 
HETATM   24  H3  UNL     1      24.890   0.674  51.996  1.00  0.00     0.167 HD
BRANCH  23  25
HETATM   25  C3  UNL     1      26.310  -0.364  52.998  1.00  0.00     0.036 A 
HETATM   26  C2  UNL     1      26.765  -1.649  52.846  1.00  0.00     0.069 A 
HETATM   27  C1  UNL     1      28.067  -2.048  53.026  1.00  0.00     0.106 A 
HETATM   28  C21 UNL     1      29.021  -1.118  53.388  1.00  0.00     0.149 A 
HETATM   29  C20 UNL     1      28.629   0.192  53.558  1.00  0.00     0.047 A 
HETATM   30  F1  UNL     1      30.331  -1.382  53.596  1.00  0.00    -0.203 F 
HETATM   31  C19 UNL     1      27.308   0.517  53.360  1.00  0.00     0.032 A 
BRANCH  27  32
HETATM   32  O1  UNL     1      28.523  -3.333  52.874  1.00  0.00    -0.358 OA
HETATM   33  H1  UNL     1      28.527  -4.033  53.606  1.00  0.00     0.217 HD
ENDBRANCH  27  32
ENDBRANCH  23  25
ENDBRANCH   1  23
TORSDOF 7
ENDMDL
MODEL 2
REMARK VINA RESULT:      -9.0      1.681      2.157
REMARK  7 active torsions:
REMARK  status: ('A' for Active; 'I' for Inactive)
REMARK    1  A    between atoms: O1_1  and  C1_2 
REMARK    2  A    between atoms: C3_4  and  N1_5 
REMARK    3  A    between atoms: N1_5  and  C4_6 
REMARK    4  A    between atoms: C9_13  and  N4_14 
REMARK    5  A    between atoms: N4_14  and  C10_15 
REMARK    6  A    between atoms: C10_15  and  C11_16 
REMARK    7  A    between atoms: C12_17  and  C13_18 
ROOT
HETATM    1  C4  UNL     1      23.638  -0.283  53.473  1.00  0.00     0.142 A 
HETATM    2  N2  UNL     1      23.795  -0.875  54.659  1.00  0.00    -0.224 NA
HETATM    3  C5  UNL     1      22.807  -1.375  55.407  1.00  0.00     0.236 A 
HETATM    4  N3  UNL     1      21.535  -1.298  54.971  1.00  0.00    -0.241 NA
HETATM    5  C6  UNL     1      21.289  -0.714  53.782  1.00  0.00     0.072 A 
HETATM    6  C7  UNL     1      19.978  -0.671  53.401  1.00  0.00     0.035 A 
HETATM    7  C8  UNL     1      19.652  -0.094  52.212  1.00  0.00     0.031 A 
HETATM    8  C9  UNL     1      20.639   0.450  51.380  1.00  0.00     0.029 A 
HETATM    9  C17 UNL     1      21.931   0.356  51.850  1.00  0.00     0.046 A 
HETATM   10  C18 UNL     1      22.334  -0.211  53.039  1.00  0.00     0.041 A 
ENDROOT
BRANCH   8  11
HETATM   11  N4  UNL     1      20.328   1.063  50.125  1.00  0.00    -0.380 N 
HETATM   12  H7  UNL     1      19.363   1.514  50.083  1.00  0.00     0.160 HD
BRANCH  11  13
HETATM   13  C10 UNL     1      21.189   1.107  48.983  1.00  0.00     0.214 C 
BRANCH  13  14
HETATM   14  C11 UNL     1      22.222   2.124  49.230  1.00  0.00    -0.085 C 
HETATM   15  C12 UNL     1      23.056   2.948  49.451  1.00  0.00    -0.067 C 
BRANCH  15  16
HETATM   16  C13 UNL     1      24.070   3.962  49.743  1.00  0.00     0.322 C 
HETATM   17  C14 UNL     1      24.960   3.559  50.894  1.00  0.00     0.216 C 
HETATM   18  O2  UNL     1      24.175   3.402  52.032  1.00  0.00    -0.386 OA
HETATM   19  C15 UNL     1      23.678   4.636  52.388  1.00  0.00     0.197 C 
HETATM   20  C16 UNL     1      22.874   5.316  51.328  1.00  0.00     0.297 C 
HETATM   21  N5  UNL     1      23.464   5.248  50.007  1.00  0.00     0.103 N 
HETATM   22  H17 UNL     1      24.230   5.963  49.962  1.00  0.00     0.317 HD
ENDBRANCH  15  16
ENDBRANCH  13  14
ENDBRANCH  11  13
ENDBRANCH   8  11
BRANCH   1  23
HETATM   23  N1  UNL     1      24.667   0.252  52.664  1.00  0.00    -0.340 N 
HETATM   24  H3  UNL     1      24.482   0.680  51.739  1.00  0.00     0.167 HD
BRANCH  23  25
HETATM   25  C3  UNL     1      26.051   0.295  52.958  1.00  0.00     0.036 A 
HETATM   26  C2  UNL     1      26.694   1.417  53.415  1.00  0.00     0.069 A 
HETATM   27  C1  UNL     1      28.032   1.488  53.718  1.00  0.00     0.106 A 
HETATM   28  C21 UNL     1      28.825   0.369  53.565  1.00  0.00     0.149 A 
HETATM   29  C20 UNL     1      28.241  -0.792  53.109  1.00  0.00     0.047 A 
HETATM   30  F1  UNL     1      30.151   0.308  53.828  1.00  0.00    -0.203 F 
HETATM   31  C19 UNL     1      26.896  -0.788  52.826  1.00  0.00     0.032 A 
BRANCH  27  32
HETATM   32  O1  UNL     1      28.676   2.610  54.176  1.00  0.00    -0.358 OA
HETATM   33  H1  UNL     1      28.411   3.560  53.945  1.00  0.00     0.217 HD
ENDBRANCH  27  32
ENDBRANCH  23  25
ENDBRANCH   1  23
TORSDOF 7
ENDMDL
MODEL 3
REMARK VINA RESULT:      -8.8      3.341      4.968
REMARK  7 active torsions:
REMARK  status: ('A' for Active; 'I' for Inactive)
REMARK    1  A    between atoms: O1_1  and  C1_2 
REMARK    2  A    between atoms: C3_4  and  N1_5 
REMARK    3  A    between atoms: N1_5  and  C4_6 
REMARK    4  A    between atoms: C9_13  and  N4_14 
REMARK    5  A    between atoms: N4_14  and  C10_15 
REMARK    6  A    between atoms: C10_15  and  C11_16 
REMARK    7  A    between atoms: C12_17  and  C13_18 
ROOT
HETATM    1  C4  UNL     1      24.812   1.364  52.781  1.00  0.00     0.142 A 
HETATM    2  N2  UNL     1      23.740   0.602  53.008  1.00  0.00    -0.224 NA
HETATM    3  C5  UNL     1      22.638   0.578  52.253  1.00  0.00     0.236 A 
HETATM    4  N3  UNL     1      22.555   1.370  51.166  1.00  0.00    -0.241 NA
HETATM    5  C6  UNL     1      23.594   2.173  50.867  1.00  0.00     0.072 A 
HETATM    6  C7  UNL     1      23.443   2.950  49.753  1.00  0.00     0.035 A 
HETATM    7  C8  UNL     1      24.452   3.788  49.388  1.00  0.00     0.031 A 
HETATM    8  C9  UNL     1      25.634   3.862  50.135  1.00  0.00     0.029 A 
HETATM    9  C17 UNL     1      25.692   3.039  51.240  1.00  0.00     0.046 A 
HETATM   10  C18 UNL     1      24.714   2.169  51.669  1.00  0.00     0.041 A 
ENDROOT
BRANCH   8  11
HETATM   11  N4  UNL     1      26.710   4.734  49.778  1.00  0.00    -0.380 N 
HETATM   12  H7  UNL     1      27.581   4.630  50.383  1.00  0.00     0.160 HD
BRANCH  11  13
HETATM   13  C10 UNL     1      26.690   5.689  48.711  1.00  0.00     0.214 C 
BRANCH  13  14
HETATM   14  C11 UNL     1      28.077   5.926  48.286  1.00  0.00    -0.085 C 
HETATM   15  C12 UNL     1      29.199   6.109  47.922  1.00  0.00    -0.067 C 
BRANCH  15  16
HETATM   16  C13 UNL     1      30.572   6.319  47.459  1.00  0.00     0.322 C 
HETATM   17  C14 UNL     1      31.471   5.157  47.806  1.00  0.00     0.216 C 
HETATM   18  O2  UNL     1      31.505   5.019  49.190  1.00  0.00    -0.386 OA
HETATM   19  C15 UNL     1      32.135   6.122  49.721  1.00  0.00     0.197 C 
HETATM   20  C16 UNL     1      31.502   7.430  49.376  1.00  0.00     0.297 C 
HETATM   21  N5  UNL     1      31.118   7.549  47.984  1.00  0.00     0.103 N 
HETATM   22  H17 UNL     1      31.985   7.761  47.431  1.00  0.00     0.317 HD
ENDBRANCH  15  16
ENDBRANCH  13  14
ENDBRANCH  11  13
ENDBRANCH   8  11
BRANCH   1  23
HETATM   23  N1  UNL     1      25.988   1.406  53.564  1.00  0.00    -0.340 N 
HETATM   24  H3  UNL     1      26.169   2.154  54.257  1.00  0.00     0.167 HD
BRANCH  23  25
HETATM   25  C3  UNL     1      27.064   0.485  53.541  1.00  0.00     0.036 A 
HETATM   26  C2  UNL     1      26.932  -0.826  53.163  1.00  0.00     0.069 A 
HETATM   27  C1  UNL     1      27.956  -1.740  53.121  1.00  0.00     0.106 A 
HETATM   28  C21 UNL     1      29.231  -1.350  53.478  1.00  0.00     0.149 A 
HETATM   29  C20 UNL     1      29.433  -0.044  53.870  1.00  0.00     0.047 A 
HETATM   30  F1  UNL     1      30.322  -2.150  53.480  1.00  0.00    -0.203 F 
HETATM   31  C19 UNL     1      28.359   0.813  53.887  1.00  0.00     0.032 A 
BRANCH  27  32
HETATM   32  O1  UNL     1      27.825  -3.051  52.742  1.00  0.00    -0.358 OA
HETATM   33  H1  UNL     1      28.214  -3.448  51.895  1.00  0.00     0.217 HD
ENDBRANCH  27  32
ENDBRANCH  23  25
ENDBRANCH   1  23
TORSDOF 7
ENDMDL
MODEL 4
REMARK VINA RESULT:      -8.8      3.271      6.097
REMARK  7 active torsions:
REMARK  status: ('A' for Active; 'I' for Inactive)
REMARK    1  A    between atoms: O1_1  and  C1_2 
REMARK    2  A    between atoms: C3_4  and  N1_5 
REMARK    3  A    between atoms: N1_5  and  C4_6 
REMARK    4  A    between atoms: C9_13  and  N4_14 
REMARK    5  A    between atoms: N4_14  and  C10_15 
REMARK    6  A    between atoms: C10_15  and  C11_16 
REMARK    7  A    between atoms: C12_17  and  C13_18 
ROOT
HETATM    1  C4  UNL     1      27.160   1.850  52.114  1.00  0.00     0.142 A 
HETATM    2  N2  UNL     1      28.305   2.314  52.618  1.00  0.00    -0.224 NA
HETATM    3  C5  UNL     1      28.766   2.060  53.846  1.00  0.00     0.236 A 
HETATM    4  N3  UNL     1      28.052   1.278  54.679  1.00  0.00    -0.241 NA
HETATM    5  C6  UNL     1      26.881   0.769  54.249  1.00  0.00     0.072 A 
HETATM    6  C7  UNL     1      26.209  -0.014  55.145  1.00  0.00     0.035 A 
HETATM    7  C8  UNL     1      25.018  -0.562  54.781  1.00  0.00     0.031 A 
HETATM    8  C9  UNL     1      24.477  -0.335  53.509  1.00  0.00     0.029 A 
HETATM    9  C17 UNL     1      25.230   0.466  52.678  1.00  0.00     0.046 A 
HETATM   10  C18 UNL     1      26.440   1.054  52.976  1.00  0.00     0.041 A 
ENDROOT
BRANCH   8  11
HETATM   11  N4  UNL     1      23.227  -0.896  53.099  1.00  0.00    -0.380 N 
HETATM   12  H7  UNL     1      23.283  -1.910  52.778  1.00  0.00     0.160 HD
BRANCH  11  13
HETATM   13  C10 UNL     1      21.968  -0.213  53.095  1.00  0.00     0.214 C 
BRANCH  13  14
HETATM   14  C11 UNL     1      21.710   0.255  51.725  1.00  0.00    -0.085 C 
HETATM   15  C12 UNL     1      21.502   0.655  50.620  1.00  0.00    -0.067 C 
BRANCH  15  16
HETATM   16  C13 UNL     1      21.244   1.165  49.272  1.00  0.00     0.322 C 
HETATM   17  C14 UNL     1      22.052   2.403  48.971  1.00  0.00     0.216 C 
HETATM   18  O2  UNL     1      21.699   3.398  49.877  1.00  0.00    -0.386 OA
HETATM   19  C15 UNL     1      20.394   3.763  49.634  1.00  0.00     0.197 C 
HETATM   20  C16 UNL     1      19.406   2.646  49.724  1.00  0.00     0.297 C 
HETATM   21  N5  UNL     1      19.836   1.425  49.073  1.00  0.00     0.103 N 
HETATM   22  H17 UNL     1      19.690   1.546  48.040  1.00  0.00     0.317 HD
ENDBRANCH  15  16
ENDBRANCH  13  14
ENDBRANCH  11  13
ENDBRANCH   8  11
BRANCH   1  23
HETATM   23  N1  UNL     1      26.652   2.104  50.820  1.00  0.00    -0.340 N 
HETATM   24  H3  UNL     1      26.536   1.358  50.111  1.00  0.00     0.167 HD
BRANCH  23  25
HETATM   25  C3  UNL     1      26.238   3.352  50.294  1.00  0.00     0.036 A 
HETATM   26  C2  UNL     1      25.070   3.975  50.652  1.00  0.00     0.069 A 
HETATM   27  C1  UNL     1      24.645   5.188  50.168  1.00  0.00     0.106 A 
HETATM   28  C21 UNL     1      25.423   5.864  49.249  1.00  0.00     0.149 A 
HETATM   29  C20 UNL     1      26.609   5.292  48.846  1.00  0.00     0.047 A 
HETATM   30  F1  UNL     1      25.118   7.061  48.697  1.00  0.00    -0.203 F 
HETATM   31  C19 UNL     1      26.969   4.075  49.374  1.00  0.00     0.032 A 
BRANCH  27  32
HETATM   32  O1  UNL     1      23.478   5.812  50.526  1.00  0.00    -0.358 OA
HETATM   33  H1  UNL     1      22.790   5.426  51.162  1.00  0.00     0.217 HD
ENDBRANCH  27  32
ENDBRANCH  23  25
ENDBRANCH   1  23
TORSDOF 7
ENDMDL
MODEL 5
REMARK VINA RESULT:      -8.6      4.697      7.237
REMARK  7 active torsions:
REMARK  status: ('A' for Active; 'I' for Inactive)
REMARK    1  A    between atoms: O1_1  and  C1_2 
REMARK    2  A    between atoms: C3_4  and  N1_5 
REMARK    3  A    between atoms: N1_5  and  C4_6 
REMARK    4  A    between atoms: C9_13  and  N4_14 
REMARK    5  A    between atoms: N4_14  and  C10_15 
REMARK    6  A    between atoms: C10_15  and  C11_16 
REMARK    7  A    between atoms: C12_17  and  C13_18 
ROOT
HETATM    1  C4  UNL     1      25.131   3.068  51.002  1.00  0.00     0.142 A 
HETATM    2  N2  UNL     1      23.996   3.303  51.665  1.00  0.00    -0.224 NA
HETATM    3  C5  UNL     1      23.338   4.465  51.680  1.00  0.00     0.236 A 
HETATM    4  N3  UNL     1      23.820   5.514  50.986  1.00  0.00    -0.241 NA
HETATM    5  C6  UNL     1      24.963   5.363  50.290  1.00  0.00     0.072 A 
HETATM    6  C7  UNL     1      25.395   6.467  49.611  1.00  0.00     0.035 A 
HETATM    7  C8  UNL     1      26.544   6.391  48.885  1.00  0.00     0.031 A 
HETATM    8  C9  UNL     1      27.283   5.202  48.827  1.00  0.00     0.029 A 
HETATM    9  C17 UNL     1      26.765   4.145  49.545  1.00  0.00     0.046 A 
HETATM   10  C18 UNL     1      25.612   4.148  50.299  1.00  0.00     0.041 A 
ENDROOT
BRANCH   8  11
HETATM   11  N4  UNL     1      28.495   5.091  48.075  1.00  0.00    -0.380 N 
HETATM   12  H7  UNL     1      28.422   4.474  47.210  1.00  0.00     0.160 HD
BRANCH  11  13
HETATM   13  C10 UNL     1      29.737   5.728  48.398  1.00  0.00     0.214 C 
BRANCH  13  14
HETATM   14  C11 UNL     1      30.802   5.060  47.635  1.00  0.00    -0.085 C 
HETATM   15  C12 UNL     1      31.661   4.530  46.998  1.00  0.00    -0.067 C 
BRANCH  15  16
HETATM   16  C13 UNL     1      32.706   3.887  46.200  1.00  0.00     0.322 C 
HETATM   17  C14 UNL     1      33.081   2.530  46.744  1.00  0.00     0.216 C 
HETATM   18  O2  UNL     1      33.571   2.688  48.037  1.00  0.00    -0.386 OA
HETATM   19  C15 UNL     1      34.759   3.380  47.968  1.00  0.00     0.197 C 
HETATM   20  C16 UNL     1      34.665   4.720  47.313  1.00  0.00     0.297 C 
HETATM   21  N5  UNL     1      33.877   4.728  46.098  1.00  0.00     0.103 N 
HETATM   22  H17 UNL     1      34.473   4.332  45.329  1.00  0.00     0.317 HD
ENDBRANCH  15  16
ENDBRANCH  13  14
ENDBRANCH  11  13
ENDBRANCH   8  11
BRANCH   1  23
HETATM   23  N1  UNL     1      25.844   1.848  50.971  1.00  0.00    -0.340 N 
HETATM   24  H3  UNL     1      25.785   1.190  50.174  1.00  0.00     0.167 HD
BRANCH  23  25
HETATM   25  C3  UNL     1      26.714   1.341  51.966  1.00  0.00     0.036 A 
HETATM   26  C2  UNL     1      27.583   2.123  52.684  1.00  0.00     0.069 A 
HETATM   27  C1  UNL     1      28.431   1.662  53.661  1.00  0.00     0.106 A 
HETATM   28  C21 UNL     1      28.443   0.318  53.975  1.00  0.00     0.149 A 
HETATM   29  C20 UNL     1      27.594  -0.524  53.289  1.00  0.00     0.047 A 
HETATM   30  F1  UNL     1      29.228  -0.260  54.913  1.00  0.00    -0.203 F 
HETATM   31  C19 UNL     1      26.773   0.010  52.324  1.00  0.00     0.032 A 
BRANCH  27  32
HETATM   32  O1  UNL     1      29.299   2.444  54.380  1.00  0.00    -0.358 OA
HETATM   33  H1  UNL     1      29.313   2.510  55.390  1.00  0.00     0.217 HD
ENDBRANCH  27  32
ENDBRANCH  23  25
ENDBRANCH   1  23
TORSDOF 7
ENDMDL
MODEL 6
REMARK VINA RESULT:      -8.3      3.064      5.678
REMARK  7 active torsions:
REMARK  status: ('A' for Active; 'I' for Inactive)
REMARK    1  A    between atoms: O1_1  and  C1_2 
REMARK    2  A    between atoms: C3_4  and  N1_5 
REMARK    3  A    between atoms: N1_5  and  C4_6 
REMARK    4  A    between atoms: C9_13  and  N4_14 
REMARK    5  A    between atoms: N4_14  and  C10_15 
REMARK    6  A    between atoms: C10_15  and  C11_16 
REMARK    7  A    between atoms: C12_17  and  C13_18 
ROOT
HETATM    1  C4  UNL     1      24.633   0.920  52.251  1.00  0.00     0.142 A 
HETATM    2  N2  UNL     1      25.945   0.688  52.330  1.00  0.00    -0.224 NA
HETATM    3  C5  UNL     1      26.534  -0.107  53.227  1.00  0.00     0.236 A 
HETATM    4  N3  UNL     1      25.786  -0.747  54.146  1.00  0.00    -0.241 NA
HETATM    5  C6  UNL     1      24.451  -0.566  54.138  1.00  0.00     0.072 A 
HETATM    6  C7  UNL     1      23.753  -1.244  55.097  1.00  0.00     0.035 A 
HETATM    7  C8  UNL     1      22.400  -1.110  55.152  1.00  0.00     0.031 A 
HETATM    8  C9  UNL     1      21.720  -0.290  54.241  1.00  0.00     0.029 A 
HETATM    9  C17 UNL     1      22.510   0.350  53.312  1.00  0.00     0.046 A 
HETATM   10  C18 UNL     1      23.880   0.262  53.196  1.00  0.00     0.041 A 
ENDROOT
BRANCH   8  11
HETATM   11  N4  UNL     1      20.298  -0.127  54.275  1.00  0.00    -0.380 N 
HETATM   12  H7  UNL     1      19.950   0.551  55.018  1.00  0.00     0.160 HD
BRANCH  11  13
HETATM   13  C10 UNL     1      19.364  -0.787  53.413  1.00  0.00     0.214 C 
BRANCH  13  14
HETATM   14  C11 UNL     1      19.259  -0.004  52.172  1.00  0.00    -0.085 C 
HETATM   15  C12 UNL     1      19.157   0.620  51.160  1.00  0.00    -0.067 C 
BRANCH  15  16
HETATM   16  C13 UNL     1      19.020   1.369  49.910  1.00  0.00     0.322 C 
HETATM   17  C14 UNL     1      20.339   1.523  49.193  1.00  0.00     0.216 C 
HETATM   18  O2  UNL     1      21.214   2.225  50.016  1.00  0.00    -0.386 OA
HETATM   19  C15 UNL     1      20.740   3.509  50.157  1.00  0.00     0.197 C 
HETATM   20  C16 UNL     1      19.358   3.607  50.716  1.00  0.00     0.297 C 
HETATM   21  N5  UNL     1      18.421   2.664  50.140  1.00  0.00     0.103 N 
HETATM   22  H17 UNL     1      18.128   3.038  49.204  1.00  0.00     0.317 HD
ENDBRANCH  15  16
ENDBRANCH  13  14
ENDBRANCH  11  13
ENDBRANCH   8  11
BRANCH   1  23
HETATM   23  N1  UNL     1      23.987   1.757  51.312  1.00  0.00    -0.340 N 
HETATM   24  H3  UNL     1      23.136   1.465  50.800  1.00  0.00     0.167 HD
BRANCH  23  25
HETATM   25  C3  UNL     1      24.368   3.065  50.928  1.00  0.00     0.036 A 
HETATM   26  C2  UNL     1      24.116   4.181  51.686  1.00  0.00     0.069 A 
HETATM   27  C1  UNL     1      24.481   5.460  51.346  1.00  0.00     0.106 A 
HETATM   28  C21 UNL     1      25.153   5.685  50.161  1.00  0.00     0.149 A 
HETATM   29  C20 UNL     1      25.436   4.606  49.352  1.00  0.00     0.047 A 
HETATM   30  F1  UNL     1      25.565   6.893  49.713  1.00  0.00    -0.203 F 
HETATM   31  C19 UNL     1      25.039   3.354  49.758  1.00  0.00     0.032 A 
BRANCH  27  32
HETATM   32  O1  UNL     1      24.231   6.576  52.103  1.00  0.00    -0.358 OA
HETATM   33  H1  UNL     1      24.944   7.174  52.502  1.00  0.00     0.217 HD
ENDBRANCH  27  32
ENDBRANCH  23  25
ENDBRANCH   1  23
TORSDOF 7
ENDMDL
MODEL 7
REMARK VINA RESULT:      -8.2      1.766      2.210
REMARK  7 active torsions:
REMARK  status: ('A' for Active; 'I' for Inactive)
REMARK    1  A    between atoms: O1_1  and  C1_2 
REMARK    2  A    between atoms: C3_4  and  N1_5 
REMARK    3  A    between atoms: N1_5  and  C4_6 
REMARK    4  A    between atoms: C9_13  and  N4_14 
REMARK    5  A    between atoms: N4_14  and  C10_15 
REMARK    6  A    between atoms: C10_15  and  C11_16 
REMARK    7  A    between atoms: C12_17  and  C13_18 
ROOT
HETATM    1  C4  UNL     1      23.118   0.460  53.317  1.00  0.00     0.142 A 
HETATM    2  N2  UNL     1      22.756  -0.350  54.315  1.00  0.00    -0.224 NA
HETATM    3  C5  UNL     1      21.570  -0.953  54.426  1.00  0.00     0.236 A 
HETATM    4  N3  UNL     1      20.630  -0.758  53.481  1.00  0.00    -0.241 NA
HETATM    5  C6  UNL     1      20.913   0.048  52.439  1.00  0.00     0.072 A 
HETATM    6  C7  UNL     1      19.916   0.202  51.518  1.00  0.00     0.035 A 
HETATM    7  C8  UNL     1      20.128   1.002  50.438  1.00  0.00     0.031 A 
HETATM    8  C9  UNL     1      21.350   1.665  50.262  1.00  0.00     0.029 A 
HETATM    9  C17 UNL     1      22.293   1.446  51.243  1.00  0.00     0.046 A 
HETATM   10  C18 UNL     1      22.149   0.652  52.359  1.00  0.00     0.041 A 
ENDROOT
BRANCH   8  11
HETATM   11  N4  UNL     1      21.603   2.514  49.138  1.00  0.00    -0.380 N 
HETATM   12  H7  UNL     1      20.764   3.092  48.824  1.00  0.00     0.160 HD
BRANCH  11  13
HETATM   13  C10 UNL     1      22.851   2.631  48.446  1.00  0.00     0.214 C 
BRANCH  13  14
HETATM   14  C11 UNL     1      23.625   3.707  49.082  1.00  0.00    -0.085 C 
HETATM   15  C12 UNL     1      24.246   4.594  49.584  1.00  0.00    -0.067 C 
BRANCH  15  16
HETATM   16  C13 UNL     1      25.004   5.694  50.181  1.00  0.00     0.322 C 
HETATM   17  C14 UNL     1      24.584   7.036  49.632  1.00  0.00     0.216 C 
HETATM   18  O2  UNL     1      24.821   7.050  48.261  1.00  0.00    -0.386 OA
HETATM   19  C15 UNL     1      26.182   6.997  48.057  1.00  0.00     0.197 C 
HETATM   20  C16 UNL     1      26.859   5.809  48.658  1.00  0.00     0.297 C 
HETATM   21  N5  UNL     1      26.426   5.504  50.007  1.00  0.00     0.103 N 
HETATM   22  H17 UNL     1      26.907   6.175  50.655  1.00  0.00     0.317 HD
ENDBRANCH  15  16
ENDBRANCH  13  14
ENDBRANCH  11  13
ENDBRANCH   8  11
BRANCH   1  23
HETATM   23  N1  UNL     1      24.366   1.109  53.178  1.00  0.00    -0.340 N 
HETATM   24  H3  UNL     1      24.448   2.115  52.946  1.00  0.00     0.167 HD
BRANCH  23  25
HETATM   25  C3  UNL     1      25.651   0.531  53.323  1.00  0.00     0.036 A 
HETATM   26  C2  UNL     1      26.624   1.043  54.143  1.00  0.00     0.069 A 
HETATM   27  C1  UNL     1      27.874   0.501  54.312  1.00  0.00     0.106 A 
HETATM   28  C21 UNL     1      28.219  -0.645  53.623  1.00  0.00     0.149 A 
HETATM   29  C20 UNL     1      27.287  -1.210  52.781  1.00  0.00     0.047 A 
HETATM   30  F1  UNL     1      29.414  -1.275  53.702  1.00  0.00    -0.203 F 
HETATM   31  C19 UNL     1      26.055  -0.611  52.663  1.00  0.00     0.032 A 
BRANCH  27  32
HETATM   32  O1  UNL     1      28.848   1.012  55.132  1.00  0.00    -0.358 OA
HETATM   33  H1  UNL     1      28.883   0.880  56.136  1.00  0.00     0.217 HD
ENDBRANCH  27  32
ENDBRANCH  23  25
ENDBRANCH   1  23
TORSDOF 7
ENDMDL
MODEL 8
REMARK VINA RESULT:      -8.2      1.709      2.236
REMARK  7 active torsions:
REMARK  status: ('A' for Active; 'I' for Inactive)
REMARK    1  A    between atoms: O1_1  and  C1_2 
REMARK    2  A    between atoms: C3_4  and  N1_5 
REMARK    3  A    between atoms: N1_5  and  C4_6 
REMARK    4  A    between atoms: C9_13  and  N4_14 
REMARK    5  A    between atoms: N4_14  and  C10_15 
REMARK    6  A    between atoms: C10_15  and  C11_16 
REMARK    7  A    between atoms: C12_17  and  C13_18 
ROOT
HETATM    1  C4  UNL     1      23.464   0.858  52.404  1.00  0.00     0.142 A 
HETATM    2  N2  UNL     1      23.058   0.402  53.591  1.00  0.00    -0.224 NA
HETATM    3  C5  UNL     1      21.802   0.067  53.899  1.00  0.00     0.236 A 
HETATM    4  N3  UNL     1      20.833   0.181  52.970  1.00  0.00    -0.241 NA
HETATM    5  C6  UNL     1      21.158   0.636  51.744  1.00  0.00     0.072 A 
HETATM    6  C7  UNL     1      20.127   0.728  50.853  1.00  0.00     0.035 A 
HETATM    7  C8  UNL     1      20.379   1.181  49.594  1.00  0.00     0.031 A 
HETATM    8  C9  UNL     1      21.673   1.550  49.206  1.00  0.00     0.029 A 
HETATM    9  C17 UNL     1      22.644   1.421  50.175  1.00  0.00     0.046 A 
HETATM   10  C18 UNL     1      22.465   0.972  51.465  1.00  0.00     0.041 A 
ENDROOT
BRANCH   8  11
HETATM   11  N4  UNL     1      21.968   2.032  47.891  1.00  0.00    -0.380 N 
HETATM   12  H7  UNL     1      22.401   1.305  47.243  1.00  0.00     0.160 HD
BRANCH  11  13
HETATM   13  C10 UNL     1      21.729   3.362  47.418  1.00  0.00     0.214 C 
BRANCH  13  14
HETATM   14  C11 UNL     1      22.207   4.302  48.442  1.00  0.00    -0.085 C 
HETATM   15  C12 UNL     1      22.575   5.071  49.277  1.00  0.00    -0.067 C 
BRANCH  15  16
HETATM   16  C13 UNL     1      23.007   6.026  50.299  1.00  0.00     0.322 C 
HETATM   17  C14 UNL     1      24.369   5.685  50.853  1.00  0.00     0.216 C 
HETATM   18  O2  UNL     1      24.308   4.427  51.444  1.00  0.00    -0.386 OA
HETATM   19  C15 UNL     1      23.490   4.507  52.549  1.00  0.00     0.197 C 
HETATM   20  C16 UNL     1      22.102   4.983  52.265  1.00  0.00     0.297 C 
HETATM   21  N5  UNL     1      22.041   6.119  51.369  1.00  0.00     0.103 N 
HETATM   22  H17 UNL     1      22.280   6.977  51.925  1.00  0.00     0.317 HD
ENDBRANCH  15  16
ENDBRANCH  13  14
ENDBRANCH  11  13
ENDBRANCH   8  11
BRANCH   1  23
HETATM   23  N1  UNL     1      24.786   1.219  52.055  1.00  0.00    -0.340 N 
HETATM   24  H3  UNL     1      24.998   2.014  51.425  1.00  0.00     0.167 HD
BRANCH  23  25
HETATM   25  C3  UNL     1      25.983   0.595  52.480  1.00  0.00     0.036 A 
HETATM   26  C2  UNL     1      26.171  -0.764  52.478  1.00  0.00     0.069 A 
HETATM   27  C1  UNL     1      27.323  -1.398  52.875  1.00  0.00     0.106 A 
HETATM   28  C21 UNL     1      28.396  -0.649  53.315  1.00  0.00     0.149 A 
HETATM   29  C20 UNL     1      28.273   0.723  53.342  1.00  0.00     0.047 A 
HETATM   30  F1  UNL     1      29.582  -1.151  53.731  1.00  0.00    -0.203 F 
HETATM   31  C19 UNL     1      27.089   1.287  52.929  1.00  0.00     0.032 A 
BRANCH  27  32
HETATM   32  O1  UNL     1      27.512  -2.757  52.874  1.00  0.00    -0.358 OA
HETATM   33  H1  UNL     1      26.781  -3.440  53.030  1.00  0.00     0.217 HD
ENDBRANCH  27  32
ENDBRANCH  23  25
ENDBRANCH   1  23
TORSDOF 7
ENDMDL
MODEL 9
REMARK VINA RESULT:      -8.1      3.466      6.596
REMARK  7 active torsions:
REMARK  status: ('A' for Active; 'I' for Inactive)
REMARK    1  A    between atoms: O1_1  and  C1_2 
REMARK    2  A    between atoms: C3_4  and  N1_5 
REMARK    3  A    between atoms: N1_5  and  C4_6 
REMARK    4  A    between atoms: C9_13  and  N4_14 
REMARK    5  A    between atoms: N4_14  and  C10_15 
REMARK    6  A    between atoms: C10_15  and  C11_16 
REMARK    7  A    between atoms: C12_17  and  C13_18 
ROOT
HETATM    1  C4  UNL     1      24.725   0.723  52.321  1.00  0.00     0.142 A 
HETATM    2  N2  UNL     1      26.053   0.613  52.398  1.00  0.00    -0.224 NA
HETATM    3  C5  UNL     1      26.718  -0.048  53.349  1.00  0.00     0.236 A 
HETATM    4  N3  UNL     1      26.037  -0.670  54.331  1.00  0.00    -0.241 NA
HETATM    5  C6  UNL     1      24.691  -0.607  54.330  1.00  0.00     0.072 A 
HETATM    6  C7  UNL     1      24.065  -1.258  55.354  1.00  0.00     0.035 A 
HETATM    7  C8  UNL     1      22.705  -1.237  55.419  1.00  0.00     0.031 A 
HETATM    8  C9  UNL     1      21.947  -0.562  54.454  1.00  0.00     0.029 A 
HETATM    9  C17 UNL     1      22.670   0.063  53.460  1.00  0.00     0.046 A 
HETATM   10  C18 UNL     1      24.042   0.085  53.331  1.00  0.00     0.041 A 
ENDROOT
BRANCH   8  11
HETATM   11  N4  UNL     1      20.518  -0.520  54.496  1.00  0.00    -0.380 N 
HETATM   12  H7  UNL     1      20.117   0.086  55.275  1.00  0.00     0.160 HD
BRANCH  11  13
HETATM   13  C10 UNL     1      19.637  -1.209  53.601  1.00  0.00     0.214 C 
BRANCH  13  14
HETATM   14  C11 UNL     1      19.294  -0.290  52.505  1.00  0.00    -0.085 C 
HETATM   15  C12 UNL     1      19.036   0.459  51.612  1.00  0.00    -0.067 C 
BRANCH  15  16
HETATM   16  C13 UNL     1      18.740   1.384  50.518  1.00  0.00     0.322 C 
HETATM   17  C14 UNL     1      18.061   2.641  51.006  1.00  0.00     0.216 C 
HETATM   18  O2  UNL     1      16.855   2.292  51.605  1.00  0.00    -0.386 OA
HETATM   19  C15 UNL     1      16.017   1.794  50.634  1.00  0.00     0.197 C 
HETATM   20  C16 UNL     1      16.552   0.615  49.889  1.00  0.00     0.297 C 
HETATM   21  N5  UNL     1      17.941   0.747  49.496  1.00  0.00     0.103 N 
HETATM   22  H17 UNL     1      17.974   1.367  48.649  1.00  0.00     0.317 HD
ENDBRANCH  15  16
ENDBRANCH  13  14
ENDBRANCH  11  13
ENDBRANCH   8  11
BRANCH   1  23
HETATM   23  N1  UNL     1      24.000   1.416  51.325  1.00  0.00    -0.340 N 
HETATM   24  H3  UNL     1      23.835   1.023  50.382  1.00  0.00     0.167 HD
BRANCH  23  25
HETATM   25  C3  UNL     1      23.405   2.697  51.436  1.00  0.00     0.036 A 
HETATM   26  C2  UNL     1      24.040   3.782  51.983  1.00  0.00     0.069 A 
HETATM   27  C1  UNL     1      23.494   5.038  52.095  1.00  0.00     0.106 A 
HETATM   28  C21 UNL     1      22.213   5.267  51.636  1.00  0.00     0.149 A 
HETATM   29  C20 UNL     1      21.519   4.217  51.075  1.00  0.00     0.047 A 
HETATM   30  F1  UNL     1      21.563   6.453  51.688  1.00  0.00    -0.203 F 
HETATM   31  C19 UNL     1      22.131   2.988  50.996  1.00  0.00     0.032 A 
BRANCH  27  32
HETATM   32  O1  UNL     1      24.128   6.124  52.642  1.00  0.00    -0.358 OA
HETATM   33  H1  UNL     1      25.098   6.366  52.482  1.00  0.00     0.217 HD
ENDBRANCH  27  32
ENDBRANCH  23  25
ENDBRANCH   1  23
TORSDOF 7
ENDMDL
