MODEL 1
REMARK VINA RESULT:      -8.5      0.000      0.000
REMARK  5 active torsions:
REMARK  status: ('A' for Active; 'I' for Inactive)
REMARK    1  A    between atoms: O1_2  and  C2_3 
REMARK    2  A    between atoms: C2_3  and  C14_20 
REMARK    3  A    between atoms: C3_4  and  C4_5 
REMARK    4  A    between atoms: C6_7  and  N1_8 
REMARK    5  A    between atoms: N1_8  and  C7_9 
ROOT
HETATM    1  C4  UNL     1      24.780   3.647  49.902  1.00  0.00     0.064 A 
HETATM    2  C5  UNL     1      25.109   2.837  50.963  1.00  0.00     0.082 A 
HETATM    3  C6  UNL     1      24.330   1.815  51.425  1.00  0.00     0.131 A 
HETATM    4  N2  UNL     1      23.196   1.682  50.726  1.00  0.00    -0.224 NA
HETATM    5  C13 UNL     1      22.809   2.423  49.690  1.00  0.00     0.235 A 
HETATM    6  N3  UNL     1      23.616   3.413  49.282  1.00  0.00    -0.242 NA
ENDROOT
BRANCH   1   7
HETATM    7  C3  UNL     1      25.628   4.730  49.423  1.00  0.00     0.071 C 
HETATM    8  C2  UNL     1      25.569   5.976  49.870  1.00  0.00     0.103 C 
BRANCH   8   9
HETATM    9  O1  UNL     1      24.693   6.372  50.835  1.00  0.00    -0.353 OA
HETATM   10  C1  UNL     1      23.466   7.009  50.688  1.00  0.00     0.210 C 
ENDBRANCH   8   9
BRANCH   8  11
HETATM   11  C14 UNL     1      26.453   6.975  49.331  1.00  0.00     0.098 C 
HETATM   12  C15 UNL     1      26.913   6.764  48.118  1.00  0.00     0.019 C 
HETATM   13  C16 UNL     1      27.725   7.465  47.080  1.00  0.00     0.041 C 
HETATM   14  C17 UNL     1      29.174   7.135  47.370  1.00  0.00     0.040 C 
HETATM   15  C21 UNL     1      27.701   8.952  47.370  1.00  0.00     0.281 C 
HETATM   16  C18 UNL     1      29.447   7.986  48.579  1.00  0.00     0.273 C 
HETATM   17  N4  UNL     1      28.700   9.202  48.357  1.00  0.00     0.091 N 
HETATM   18  C19 UNL     1      28.261   9.834  49.561  1.00  0.00     0.299 C 
HETATM   19  C20 UNL     1      26.931   9.441  50.080  1.00  0.00     0.206 C 
HETATM   20  O2  UNL     1      26.716   8.053  50.162  1.00  0.00    -0.347 OA
ENDBRANCH   8  11
ENDBRANCH   1   7
BRANCH   3  21
HETATM   21  N1  UNL     1      24.732   1.026  52.517  1.00  0.00    -0.341 N 
HETATM   22  H6  UNL     1      23.964   0.720  53.181  1.00  0.00     0.167 HD
BRANCH  21  23
HETATM   23  C7  UNL     1      26.019   0.583  52.852  1.00  0.00     0.035 A 
HETATM   24  C8  UNL     1      26.434  -0.729  52.604  1.00  0.00     0.032 A 
HETATM   25  C9  UNL     1      27.678  -1.209  52.915  1.00  0.00     0.046 A 
HETATM   26  C10 UNL     1      28.610  -0.390  53.507  1.00  0.00     0.138 A 
HETATM   27  F1  UNL     1      29.833  -0.887  53.805  1.00  0.00    -0.204 F 
HETATM   28  C11 UNL     1      28.263   0.906  53.776  1.00  0.00     0.074 A 
HETATM   29 CL1  UNL     1      29.450   1.948  54.530  1.00  0.00    -0.081 Cl
HETATM   30  C12 UNL     1      26.996   1.340  53.443  1.00  0.00     0.056 A 
ENDBRANCH  21  23
ENDBRANCH   3  21
TORSDOF 5
ENDMDL
MODEL 2
REMARK VINA RESULT:      -8.4      0.996      1.319
REMARK  5 active torsions:
REMARK  status: ('A' for Active; 'I' for Inactive)
REMARK    1  A    between atoms: O1_2  and  C2_3 
REMARK    2  A    between atoms: C2_3  and  C14_20 
REMARK    3  A    between atoms: C3_4  and  C4_5 
REMARK    4  A    between atoms: C6_7  and  N1_8 
REMARK    5  A    between atoms: N1_8  and  C7_9 
ROOT
HETATM    1  C4  UNL     1      24.844   3.695  49.893  1.00  0.00     0.064 A 
HETATM    2  C5  UNL     1      25.103   2.941  51.012  1.00  0.00     0.082 A 
HETATM    3  C6  UNL     1      24.297   1.938  51.471  1.00  0.00     0.131 A 
HETATM    4  N2  UNL     1      23.213   1.764  50.705  1.00  0.00    -0.224 NA
HETATM    5  C13 UNL     1      22.894   2.451  49.611  1.00  0.00     0.235 A 
HETATM    6  N3  UNL     1      23.725   3.424  49.209  1.00  0.00    -0.242 NA
ENDROOT
BRANCH   1   7
HETATM    7  C3  UNL     1      25.719   4.758  49.418  1.00  0.00     0.071 C 
HETATM    8  C2  UNL     1      25.657   6.015  49.831  1.00  0.00     0.103 C 
BRANCH   8   9
HETATM    9  O1  UNL     1      24.752   6.443  50.755  1.00  0.00    -0.353 OA
HETATM   10  C1  UNL     1      23.529   7.073  50.548  1.00  0.00     0.210 C 
ENDBRANCH   8   9
BRANCH   8  11
HETATM   11  C14 UNL     1      26.570   6.992  49.300  1.00  0.00     0.098 C 
HETATM   12  C15 UNL     1      27.071   6.747  48.110  1.00  0.00     0.019 C 
HETATM   13  C16 UNL     1      27.927   7.414  47.086  1.00  0.00     0.041 C 
HETATM   14  C17 UNL     1      29.361   7.079  47.437  1.00  0.00     0.040 C 
HETATM   15  C21 UNL     1      27.907   8.908  47.337  1.00  0.00     0.281 C 
HETATM   16  C18 UNL     1      29.598   7.957  48.633  1.00  0.00     0.273 C 
HETATM   17  N4  UNL     1      28.872   9.174  48.354  1.00  0.00     0.091 N 
HETATM   18  C19 UNL     1      28.396   9.839  49.525  1.00  0.00     0.299 C 
HETATM   19  C20 UNL     1      27.045   9.472  50.005  1.00  0.00     0.206 C 
HETATM   20  O2  UNL     1      26.813   8.088  50.114  1.00  0.00    -0.347 OA
ENDBRANCH   8  11
ENDBRANCH   1   7
BRANCH   3  21
HETATM   21  N1  UNL     1      24.627   1.207  52.625  1.00  0.00    -0.341 N 
HETATM   22  H6  UNL     1      23.836   1.027  53.308  1.00  0.00     0.167 HD
BRANCH  21  23
HETATM   23  C7  UNL     1      25.869   0.675  53.002  1.00  0.00     0.035 A 
HETATM   24  C8  UNL     1      26.805   1.425  53.720  1.00  0.00     0.032 A 
HETATM   25  C9  UNL     1      28.029   0.951  54.108  1.00  0.00     0.046 A 
HETATM   26  C10 UNL     1      28.406  -0.335  53.796  1.00  0.00     0.138 A 
HETATM   27  F1  UNL     1      29.621  -0.780  54.191  1.00  0.00    -0.204 F 
HETATM   28  C11 UNL     1      27.532  -1.119  53.094  1.00  0.00     0.074 A 
HETATM   29 CL1  UNL     1      28.013  -2.755  52.699  1.00  0.00    -0.081 Cl
HETATM   30  C12 UNL     1      26.310  -0.593  52.727  1.00  0.00     0.056 A 
ENDBRANCH  21  23
ENDBRANCH   3  21
TORSDOF 5
ENDMDL
MODEL 3
REMARK VINA RESULT:      -8.2      4.488      6.556
REMARK  5 active torsions:
REMARK  status: ('A' for Active; 'I' for Inactive)
REMARK    1  A    between atoms: O1_2  and  C2_3 
REMARK    2  A    between atoms: C2_3  and  C14_20 
REMARK    3  A    between atoms: C3_4  and  C4_5 
REMARK    4  A    between atoms: C6_7  and  N1_8 
REMARK    5  A    between atoms: N1_8  and  C7_9 
ROOT
HETATM    1  C4  UNL     1      28.032   6.056  48.263  1.00  0.00     0.064 A 
HETATM    2  C5  UNL     1      27.144   5.546  49.180  1.00  0.00     0.082 A 
HETATM    3  C6  UNL     1      25.944   6.118  49.493  1.00  0.00     0.131 A 
HETATM    4  N2  UNL     1      25.719   7.242  48.803  1.00  0.00    -0.224 NA
HETATM    5  C13 UNL     1      26.527   7.797  47.901  1.00  0.00     0.235 A 
HETATM    6  N3  UNL     1      27.692   7.190  47.636  1.00  0.00    -0.242 NA
ENDROOT
BRANCH   1   7
HETATM    7  C3  UNL     1      29.307   5.428  47.941  1.00  0.00     0.071 C 
HETATM    8  C2  UNL     1      30.483   5.876  48.353  1.00  0.00     0.103 C 
BRANCH   8   9
HETATM    9  O1  UNL     1      30.618   6.986  49.130  1.00  0.00    -0.353 OA
HETATM   10  C1  UNL     1      30.949   8.282  48.747  1.00  0.00     0.210 C 
ENDBRANCH   8   9
BRANCH   8  11
HETATM   11  C14 UNL     1      31.687   5.181  47.980  1.00  0.00     0.098 C 
HETATM   12  C15 UNL     1      31.589   4.316  46.996  1.00  0.00     0.019 C 
HETATM   13  C16 UNL     1      32.471   3.443  46.167  1.00  0.00     0.041 C 
HETATM   14  C17 UNL     1      32.608   2.134  46.914  1.00  0.00     0.040 C 
HETATM   15  C21 UNL     1      33.888   3.974  46.246  1.00  0.00     0.281 C 
HETATM   16  C18 UNL     1      33.539   2.514  48.032  1.00  0.00     0.273 C 
HETATM   17  N4  UNL     1      34.461   3.457  47.446  1.00  0.00     0.091 N 
HETATM   18  C19 UNL     1      34.966   4.418  48.376  1.00  0.00     0.299 C 
HETATM   19  C20 UNL     1      34.204   5.679  48.520  1.00  0.00     0.206 C 
HETATM   20  O2  UNL     1      32.819   5.512  48.709  1.00  0.00    -0.347 OA
ENDBRANCH   8  11
ENDBRANCH   1   7
BRANCH   3  21
HETATM   21  N1  UNL     1      25.085   5.538  50.443  1.00  0.00    -0.341 N 
HETATM   22  H6  UNL     1      24.982   6.058  51.361  1.00  0.00     0.167 HD
BRANCH  21  23
HETATM   23  C7  UNL     1      24.336   4.357  50.343  1.00  0.00     0.035 A 
HETATM   24  C8  UNL     1      24.051   3.567  51.461  1.00  0.00     0.032 A 
HETATM   25  C9  UNL     1      23.326   2.407  51.414  1.00  0.00     0.046 A 
HETATM   26  C10 UNL     1      22.827   1.950  50.217  1.00  0.00     0.138 A 
HETATM   27  F1  UNL     1      22.113   0.800  50.196  1.00  0.00    -0.204 F 
HETATM   28  C11 UNL     1      23.072   2.679  49.086  1.00  0.00     0.074 A 
HETATM   29 CL1  UNL     1      22.436   2.095  47.564  1.00  0.00    -0.081 Cl
HETATM   30  C12 UNL     1      23.809   3.841  49.188  1.00  0.00     0.056 A 
ENDBRANCH  21  23
ENDBRANCH   3  21
TORSDOF 5
ENDMDL
MODEL 4
REMARK VINA RESULT:      -8.2      6.262      9.341
REMARK  5 active torsions:
REMARK  status: ('A' for Active; 'I' for Inactive)
REMARK    1  A    between atoms: O1_2  and  C2_3 
REMARK    2  A    between atoms: C2_3  and  C14_20 
REMARK    3  A    between atoms: C3_4  and  C4_5 
REMARK    4  A    between atoms: C6_7  and  N1_8 
REMARK    5  A    between atoms: N1_8  and  C7_9 
ROOT
HETATM    1  C4  UNL     1      21.659  -0.967  53.778  1.00  0.00     0.064 A 
HETATM    2  C5  UNL     1      22.761  -0.533  53.080  1.00  0.00     0.082 A 
HETATM    3  C6  UNL     1      24.032  -0.509  53.580  1.00  0.00     0.131 A 
HETATM    4  N2  UNL     1      24.093  -0.960  54.839  1.00  0.00    -0.224 NA
HETATM    5  C13 UNL     1      23.076  -1.396  55.578  1.00  0.00     0.235 A 
HETATM    6  N3  UNL     1      21.851  -1.395  55.032  1.00  0.00    -0.242 NA
ENDROOT
BRANCH   1   7
HETATM    7  C3  UNL     1      20.312  -0.987  53.224  1.00  0.00     0.071 C 
HETATM    8  C2  UNL     1      19.794  -0.015  52.489  1.00  0.00     0.103 C 
BRANCH   8   9
HETATM    9  O1  UNL     1      20.482   1.118  52.175  1.00  0.00    -0.353 OA
HETATM   10  C1  UNL     1      20.393   2.379  52.754  1.00  0.00     0.210 C 
ENDBRANCH   8   9
BRANCH   8  11
HETATM   11  C14 UNL     1      18.451  -0.131  51.987  1.00  0.00     0.098 C 
HETATM   12  C15 UNL     1      18.221   0.365  50.792  1.00  0.00     0.019 C 
HETATM   13  C16 UNL     1      17.118   0.430  49.789  1.00  0.00     0.041 C 
HETATM   14  C17 UNL     1      16.292   1.651  50.133  1.00  0.00     0.040 C 
HETATM   15  C21 UNL     1      16.132  -0.682  50.082  1.00  0.00     0.281 C 
HETATM   16  C18 UNL     1      15.550   1.185  51.355  1.00  0.00     0.273 C 
HETATM   17  N4  UNL     1      15.261  -0.208  51.107  1.00  0.00     0.091 N 
HETATM   18  C19 UNL     1      15.188  -0.998  52.296  1.00  0.00     0.299 C 
HETATM   19  C20 UNL     1      16.443  -1.629  52.762  1.00  0.00     0.206 C 
HETATM   20  O2  UNL     1      17.549  -0.761  52.832  1.00  0.00    -0.347 OA
ENDBRANCH   8  11
ENDBRANCH   1   7
BRANCH   3  21
HETATM   21  N1  UNL     1      25.112  -0.052  52.805  1.00  0.00    -0.341 N 
HETATM   22  H6  UNL     1      24.864   0.437  51.898  1.00  0.00     0.167 HD
BRANCH  21  23
HETATM   23  C7  UNL     1      26.486  -0.151  53.070  1.00  0.00     0.035 A 
HETATM   24  C8  UNL     1      27.199  -1.331  52.837  1.00  0.00     0.032 A 
HETATM   25  C9  UNL     1      28.537  -1.477  53.082  1.00  0.00     0.046 A 
HETATM   26  C10 UNL     1      29.269  -0.427  53.586  1.00  0.00     0.138 A 
HETATM   27  F1  UNL     1      30.591  -0.596  53.819  1.00  0.00    -0.204 F 
HETATM   28  C11 UNL     1      28.627   0.755  53.835  1.00  0.00     0.074 A 
HETATM   29 CL1  UNL     1      29.560   2.090  54.478  1.00  0.00    -0.081 Cl
HETATM   30  C12 UNL     1      27.276   0.850  53.572  1.00  0.00     0.056 A 
ENDBRANCH  21  23
ENDBRANCH   3  21
TORSDOF 5
ENDMDL
MODEL 5
REMARK VINA RESULT:      -8.1      3.384      7.952
REMARK  5 active torsions:
REMARK  status: ('A' for Active; 'I' for Inactive)
REMARK    1  A    between atoms: O1_2  and  C2_3 
REMARK    2  A    between atoms: C2_3  and  C14_20 
REMARK    3  A    between atoms: C3_4  and  C4_5 
REMARK    4  A    between atoms: C6_7  and  N1_8 
REMARK    5  A    between atoms: N1_8  and  C7_9 
ROOT
HETATM    1  C4  UNL     1      24.789   3.978  49.494  1.00  0.00     0.064 A 
HETATM    2  C5  UNL     1      25.196   5.267  49.244  1.00  0.00     0.082 A 
HETATM    3  C6  UNL     1      24.504   6.160  48.477  1.00  0.00     0.131 A 
HETATM    4  N2  UNL     1      23.372   5.641  47.987  1.00  0.00    -0.224 NA
HETATM    5  C13 UNL     1      22.911   4.408  48.183  1.00  0.00     0.235 A 
HETATM    6  N3  UNL     1      23.635   3.576  48.946  1.00  0.00    -0.242 NA
ENDROOT
BRANCH   1   7
HETATM    7  C3  UNL     1      25.541   3.042  50.319  1.00  0.00     0.071 C 
HETATM    8  C2  UNL     1      25.309   2.830  51.606  1.00  0.00     0.103 C 
BRANCH   8   9
HETATM    9  O1  UNL     1      24.330   3.479  52.294  1.00  0.00    -0.353 OA
HETATM   10  C1  UNL     1      23.014   3.087  52.514  1.00  0.00     0.210 C 
ENDBRANCH   8   9
BRANCH   8  11
HETATM   11  C14 UNL     1      26.111   1.882  52.334  1.00  0.00     0.098 C 
HETATM   12  C15 UNL     1      25.717   0.629  52.302  1.00  0.00     0.019 C 
HETATM   13  C16 UNL     1      26.186  -0.714  52.753  1.00  0.00     0.041 C 
HETATM   14  C17 UNL     1      25.677  -0.897  54.168  1.00  0.00     0.040 C 
HETATM   15  C21 UNL     1      27.681  -0.651  52.987  1.00  0.00     0.281 C 
HETATM   16  C18 UNL     1      26.593   0.009  54.943  1.00  0.00     0.273 C 
HETATM   17  N4  UNL     1      27.877  -0.115  54.295  1.00  0.00     0.091 N 
HETATM   18  C19 UNL     1      28.682   1.063  54.386  1.00  0.00     0.299 C 
HETATM   19  C20 UNL     1      28.541   2.059  53.299  1.00  0.00     0.206 C 
HETATM   20  O2  UNL     1      27.214   2.408  52.987  1.00  0.00    -0.347 OA
ENDBRANCH   8  11
ENDBRANCH   1   7
BRANCH   3  21
HETATM   21  N1  UNL     1      24.982   7.465  48.266  1.00  0.00    -0.341 N 
HETATM   22  H6  UNL     1      24.319   8.133  47.779  1.00  0.00     0.167 HD
BRANCH  21  23
HETATM   23  C7  UNL     1      26.225   8.012  48.617  1.00  0.00     0.035 A 
HETATM   24  C8  UNL     1      26.387   8.803  49.759  1.00  0.00     0.032 A 
HETATM   25  C9  UNL     1      27.577   9.360  50.141  1.00  0.00     0.046 A 
HETATM   26  C10 UNL     1      28.711   9.158  49.388  1.00  0.00     0.138 A 
HETATM   27  F1  UNL     1      29.876   9.719  49.787  1.00  0.00    -0.204 F 
HETATM   28  C11 UNL     1      28.616   8.392  48.258  1.00  0.00     0.074 A 
HETATM   29 CL1  UNL     1      30.060   8.137  47.303  1.00  0.00    -0.081 Cl
HETATM   30  C12 UNL     1      27.392   7.854  47.917  1.00  0.00     0.056 A 
ENDBRANCH  21  23
ENDBRANCH   3  21
TORSDOF 5
ENDMDL
MODEL 6
REMARK VINA RESULT:      -8.0      3.748      5.416
REMARK  5 active torsions:
REMARK  status: ('A' for Active; 'I' for Inactive)
REMARK    1  A    between atoms: O1_2  and  C2_3 
REMARK    2  A    between atoms: C2_3  and  C14_20 
REMARK    3  A    between atoms: C3_4  and  C4_5 
REMARK    4  A    between atoms: C6_7  and  N1_8 
REMARK    5  A    between atoms: N1_8  and  C7_9 
ROOT
HETATM    1  C4  UNL     1      28.012   5.430  48.454  1.00  0.00     0.064 A 
HETATM    2  C5  UNL     1      27.170   4.482  48.986  1.00  0.00     0.082 A 
HETATM    3  C6  UNL     1      25.864   4.707  49.314  1.00  0.00     0.131 A 
HETATM    4  N2  UNL     1      25.483   5.965  49.059  1.00  0.00    -0.224 NA
HETATM    5  C13 UNL     1      26.236   6.935  48.546  1.00  0.00     0.235 A 
HETATM    6  N3  UNL     1      27.512   6.654  48.244  1.00  0.00    -0.242 NA
ENDROOT
BRANCH   1   7
HETATM    7  C3  UNL     1      29.402   5.168  48.108  1.00  0.00     0.071 C 
HETATM    8  C2  UNL     1      30.400   6.008  48.341  1.00  0.00     0.103 C 
BRANCH   8   9
HETATM    9  O1  UNL     1      30.219   7.219  48.937  1.00  0.00    -0.353 OA
HETATM   10  C1  UNL     1      30.452   8.488  48.418  1.00  0.00     0.210 C 
ENDBRANCH   8   9
BRANCH   8  11
HETATM   11  C14 UNL     1      31.741   5.654  47.960  1.00  0.00     0.098 C 
HETATM   12  C15 UNL     1      31.874   4.927  46.873  1.00  0.00     0.019 C 
HETATM   13  C16 UNL     1      32.958   4.390  45.999  1.00  0.00     0.041 C 
HETATM   14  C17 UNL     1      33.366   3.056  46.588  1.00  0.00     0.040 C 
HETATM   15  C21 UNL     1      34.214   5.206  46.229  1.00  0.00     0.281 C 
HETATM   16  C18 UNL     1      34.150   3.481  47.798  1.00  0.00     0.273 C 
HETATM   17  N4  UNL     1      34.851   4.675  47.390  1.00  0.00     0.091 N 
HETATM   18  C19 UNL     1      35.094   5.592  48.458  1.00  0.00     0.299 C 
HETATM   19  C20 UNL     1      34.060   6.621  48.710  1.00  0.00     0.206 C 
HETATM   20  O2  UNL     1      32.744   6.127  48.792  1.00  0.00    -0.347 OA
ENDBRANCH   8  11
ENDBRANCH   1   7
BRANCH   3  21
HETATM   21  N1  UNL     1      25.061   3.687  49.855  1.00  0.00    -0.341 N 
HETATM   22  H6  UNL     1      24.192   3.434  49.302  1.00  0.00     0.167 HD
BRANCH  21  23
HETATM   23  C7  UNL     1      25.252   2.950  51.032  1.00  0.00     0.035 A 
HETATM   24  C8  UNL     1      24.629   3.304  52.233  1.00  0.00     0.032 A 
HETATM   25  C9  UNL     1      24.786   2.619  53.407  1.00  0.00     0.046 A 
HETATM   26  C10 UNL     1      25.596   1.508  53.458  1.00  0.00     0.138 A 
HETATM   27  F1  UNL     1      25.735   0.847  54.631  1.00  0.00    -0.204 F 
HETATM   28  C11 UNL     1      26.233   1.111  52.315  1.00  0.00     0.074 A 
HETATM   29 CL1  UNL     1      27.263  -0.303  52.383  1.00  0.00    -0.081 Cl
HETATM   30  C12 UNL     1      26.041   1.838  51.158  1.00  0.00     0.056 A 
ENDBRANCH  21  23
ENDBRANCH   3  21
TORSDOF 5
ENDMDL
MODEL 7
REMARK VINA RESULT:      -7.9      6.564      9.167
REMARK  5 active torsions:
REMARK  status: ('A' for Active; 'I' for Inactive)
REMARK    1  A    between atoms: O1_2  and  C2_3 
REMARK    2  A    between atoms: C2_3  and  C14_20 
REMARK    3  A    between atoms: C3_4  and  C4_5 
REMARK    4  A    between atoms: C6_7  and  N1_8 
REMARK    5  A    between atoms: N1_8  and  C7_9 
ROOT
HETATM    1  C4  UNL     1      20.449   0.617  51.064  1.00  0.00     0.064 A 
HETATM    2  C5  UNL     1      19.469   0.131  51.897  1.00  0.00     0.082 A 
HETATM    3  C6  UNL     1      18.129   0.232  51.653  1.00  0.00     0.131 A 
HETATM    4  N2  UNL     1      17.866   0.863  50.502  1.00  0.00    -0.224 NA
HETATM    5  C13 UNL     1      18.756   1.359  49.645  1.00  0.00     0.235 A 
HETATM    6  N3  UNL     1      20.058   1.229  49.939  1.00  0.00    -0.242 NA
ENDROOT
BRANCH   1   7
HETATM    7  C3  UNL     1      21.874   0.494  51.341  1.00  0.00     0.071 C 
HETATM    8  C2  UNL     1      22.581   1.388  52.016  1.00  0.00     0.103 C 
BRANCH   8   9
HETATM    9  O1  UNL     1      22.036   2.529  52.523  1.00  0.00    -0.353 OA
HETATM   10  C1  UNL     1      21.888   3.769  51.913  1.00  0.00     0.210 C 
ENDBRANCH   8   9
BRANCH   8  11
HETATM   11  C14 UNL     1      23.987   1.174  52.237  1.00  0.00     0.098 C 
HETATM   12  C15 UNL     1      24.330   0.033  52.793  1.00  0.00     0.019 C 
HETATM   13  C16 UNL     1      25.566  -0.728  53.139  1.00  0.00     0.041 C 
HETATM   14  C17 UNL     1      25.985  -0.267  54.519  1.00  0.00     0.040 C 
HETATM   15  C21 UNL     1      26.710  -0.201  52.296  1.00  0.00     0.281 C 
HETATM   16  C18 UNL     1      26.551   1.095  54.229  1.00  0.00     0.273 C 
HETATM   17  N4  UNL     1      27.211   0.962  52.952  1.00  0.00     0.091 N 
HETATM   18  C19 UNL     1      27.227   2.168  52.186  1.00  0.00     0.299 C 
HETATM   19  C20 UNL     1      26.093   2.392  51.262  1.00  0.00     0.206 C 
HETATM   20  O2  UNL     1      24.820   2.205  51.834  1.00  0.00    -0.347 OA
ENDBRANCH   8  11
ENDBRANCH   1   7
BRANCH   3  21
HETATM   21  N1  UNL     1      17.182  -0.290  52.551  1.00  0.00    -0.341 N 
HETATM   22  H6  UNL     1      16.677   0.414  53.161  1.00  0.00     0.167 HD
BRANCH  21  23
HETATM   23  C7  UNL     1      16.807  -1.626  52.752  1.00  0.00     0.035 A 
HETATM   24  C8  UNL     1      17.607  -2.516  53.475  1.00  0.00     0.032 A 
HETATM   25  C9  UNL     1      17.285  -3.828  53.696  1.00  0.00     0.046 A 
HETATM   26  C10 UNL     1      16.114  -4.348  53.196  1.00  0.00     0.138 A 
HETATM   27  F1  UNL     1      15.818  -5.648  53.428  1.00  0.00    -0.204 F 
HETATM   28  C11 UNL     1      15.288  -3.527  52.479  1.00  0.00     0.074 A 
HETATM   29 CL1  UNL     1      13.799  -4.191  51.844  1.00  0.00    -0.081 Cl
HETATM   30  C12 UNL     1      15.660  -2.212  52.285  1.00  0.00     0.056 A 
ENDBRANCH  21  23
ENDBRANCH   3  21
TORSDOF 5
ENDMDL
MODEL 8
REMARK VINA RESULT:      -7.6      3.256      4.035
REMARK  5 active torsions:
REMARK  status: ('A' for Active; 'I' for Inactive)
REMARK    1  A    between atoms: O1_2  and  C2_3 
REMARK    2  A    between atoms: C2_3  and  C14_20 
REMARK    3  A    between atoms: C3_4  and  C4_5 
REMARK    4  A    between atoms: C6_7  and  N1_8 
REMARK    5  A    between atoms: N1_8  and  C7_9 
ROOT
HETATM    1  C4  UNL     1      25.479   4.661  49.415  1.00  0.00     0.064 A 
HETATM    2  C5  UNL     1      25.315   4.037  50.630  1.00  0.00     0.082 A 
HETATM    3  C6  UNL     1      24.110   3.655  51.145  1.00  0.00     0.131 A 
HETATM    4  N2  UNL     1      23.089   3.953  50.331  1.00  0.00    -0.224 NA
HETATM    5  C13 UNL     1      23.167   4.552  49.145  1.00  0.00     0.235 A 
HETATM    6  N3  UNL     1      24.379   4.905  48.692  1.00  0.00    -0.242 NA
ENDROOT
BRANCH   1   7
HETATM    7  C3  UNL     1      26.775   5.057  48.883  1.00  0.00     0.071 C 
HETATM    8  C2  UNL     1      27.150   6.314  48.693  1.00  0.00     0.103 C 
BRANCH   8   9
HETATM    9  O1  UNL     1      26.345   7.374  48.980  1.00  0.00    -0.353 OA
HETATM   10  C1  UNL     1      26.353   8.194  50.104  1.00  0.00     0.210 C 
ENDBRANCH   8   9
BRANCH   8  11
HETATM   11  C14 UNL     1      28.455   6.601  48.160  1.00  0.00     0.098 C 
HETATM   12  C15 UNL     1      29.402   5.724  48.410  1.00  0.00     0.019 C 
HETATM   13  C16 UNL     1      30.825   5.463  48.044  1.00  0.00     0.041 C 
HETATM   14  C17 UNL     1      31.673   6.223  49.042  1.00  0.00     0.040 C 
HETATM   15  C21 UNL     1      31.140   6.210  46.764  1.00  0.00     0.281 C 
HETATM   16  C18 UNL     1      31.505   7.641  48.571  1.00  0.00     0.273 C 
HETATM   17  N4  UNL     1      31.453   7.553  47.131  1.00  0.00     0.091 N 
HETATM   18  C19 UNL     1      30.667   8.579  46.521  1.00  0.00     0.299 C 
HETATM   19  C20 UNL     1      29.231   8.291  46.312  1.00  0.00     0.206 C 
HETATM   20  O2  UNL     1      28.561   7.781  47.440  1.00  0.00    -0.347 OA
ENDBRANCH   8  11
ENDBRANCH   1   7
BRANCH   3  21
HETATM   21  N1  UNL     1      24.019   3.020  52.396  1.00  0.00    -0.341 N 
HETATM   22  H6  UNL     1      24.425   3.549  53.220  1.00  0.00     0.167 HD
BRANCH  21  23
HETATM   23  C7  UNL     1      23.458   1.774  52.709  1.00  0.00     0.035 A 
HETATM   24  C8  UNL     1      24.248   0.684  53.088  1.00  0.00     0.032 A 
HETATM   25  C9  UNL     1      23.748  -0.551  53.400  1.00  0.00     0.046 A 
HETATM   26  C10 UNL     1      22.393  -0.783  53.354  1.00  0.00     0.138 A 
HETATM   27  F1  UNL     1      21.923  -2.013  53.667  1.00  0.00    -0.204 F 
HETATM   28  C11 UNL     1      21.567   0.244  52.990  1.00  0.00     0.074 A 
HETATM   29 CL1  UNL     1      19.843  -0.053  52.931  1.00  0.00    -0.081 Cl
HETATM   30  C12 UNL     1      22.122   1.470  52.684  1.00  0.00     0.056 A 
ENDBRANCH  21  23
ENDBRANCH   3  21
TORSDOF 5
ENDMDL
MODEL 9
REMARK VINA RESULT:      -7.6      5.275      7.120
REMARK  5 active torsions:
REMARK  status: ('A' for Active; 'I' for Inactive)
REMARK    1  A    between atoms: O1_2  and  C2_3 
REMARK    2  A    between atoms: C2_3  and  C14_20 
REMARK    3  A    between atoms: C3_4  and  C4_5 
REMARK    4  A    between atoms: C6_7  and  N1_8 
REMARK    5  A    between atoms: N1_8  and  C7_9 
ROOT
HETATM    1  C4  UNL     1      22.842   1.250  53.057  1.00  0.00     0.064 A 
HETATM    2  C5  UNL     1      21.595   0.733  53.321  1.00  0.00     0.082 A 
HETATM    3  C6  UNL     1      21.371  -0.488  53.891  1.00  0.00     0.131 A 
HETATM    4  N2  UNL     1      22.508  -1.137  54.171  1.00  0.00    -0.224 NA
HETATM    5  C13 UNL     1      23.747  -0.704  53.947  1.00  0.00     0.235 A 
HETATM    6  N3  UNL     1      23.904   0.503  53.384  1.00  0.00    -0.242 NA
ENDROOT
BRANCH   1   7
HETATM    7  C3  UNL     1      23.059   2.557  52.451  1.00  0.00     0.071 C 
HETATM    8  C2  UNL     1      23.055   2.782  51.146  1.00  0.00     0.103 C 
BRANCH   8   9
HETATM    9  O1  UNL     1      22.846   1.798  50.228  1.00  0.00    -0.353 OA
HETATM   10  C1  UNL     1      21.671   1.463  49.563  1.00  0.00     0.210 C 
ENDBRANCH   8   9
BRANCH   8  11
HETATM   11  C14 UNL     1      23.280   4.113  50.646  1.00  0.00     0.098 C 
HETATM   12  C15 UNL     1      24.192   4.246  49.710  1.00  0.00     0.019 C 
HETATM   13  C16 UNL     1      24.736   5.301  48.805  1.00  0.00     0.041 C 
HETATM   14  C17 UNL     1      25.841   5.999  49.570  1.00  0.00     0.040 C 
HETATM   15  C21 UNL     1      23.714   6.412  48.688  1.00  0.00     0.281 C 
HETATM   16  C18 UNL     1      25.058   6.829  50.549  1.00  0.00     0.273 C 
HETATM   17  N4  UNL     1      23.887   7.260  49.822  1.00  0.00     0.091 N 
HETATM   18  C19 UNL     1      22.739   7.459  50.649  1.00  0.00     0.299 C 
HETATM   19  C20 UNL     1      21.845   6.297  50.849  1.00  0.00     0.206 C 
HETATM   20  O2  UNL     1      22.498   5.106  51.216  1.00  0.00    -0.347 OA
ENDBRANCH   8  11
ENDBRANCH   1   7
BRANCH   3  21
HETATM   21  N1  UNL     1      20.066  -0.952  54.133  1.00  0.00    -0.341 N 
HETATM   22  H6  UNL     1      19.888  -1.371  55.090  1.00  0.00     0.167 HD
BRANCH  21  23
HETATM   23  C7  UNL     1      18.956  -0.935  53.276  1.00  0.00     0.035 A 
HETATM   24  C8  UNL     1      17.827  -1.724  53.517  1.00  0.00     0.032 A 
HETATM   25  C9  UNL     1      16.722  -1.744  52.710  1.00  0.00     0.046 A 
HETATM   26  C10 UNL     1      16.671  -0.956  51.584  1.00  0.00     0.138 A 
HETATM   27  F1  UNL     1      15.566  -0.992  50.802  1.00  0.00    -0.204 F 
HETATM   28  C11 UNL     1      17.745  -0.160  51.295  1.00  0.00     0.074 A 
HETATM   29 CL1  UNL     1      17.678   0.842  49.861  1.00  0.00    -0.081 Cl
HETATM   30  C12 UNL     1      18.836  -0.178  52.141  1.00  0.00     0.056 A 
ENDBRANCH  21  23
ENDBRANCH   3  21
TORSDOF 5
ENDMDL
