MODEL 1
REMARK VINA RESULT:      -8.8      0.000      0.000
REMARK  7 active torsions:
REMARK  status: ('A' for Active; 'I' for Inactive)
REMARK    1  A    between atoms: C1_2  and  N1_3 
REMARK    2  A    between atoms: N2_6  and  C4_7 
REMARK       I    between atoms: N3_10  and  C7_11 
REMARK    3  A    between atoms: C7_11  and  C8_13 
REMARK    4  A    between atoms: C9_14  and  N4_15 
REMARK    5  A    between atoms: N4_15  and  C10_16 
REMARK    6  A    between atoms: C10_16  and  C11_17 
REMARK    7  A    between atoms: C11_17  and  C12_18 
ROOT
HETATM    1  C8  UNL     1      20.240   4.613  50.761  1.00  0.00     0.053 A 
HETATM    2  C9  UNL     1      21.092   5.623  50.883  1.00  0.00     0.042 A 
HETATM    3  C18 UNL     1      20.865   6.804  50.050  1.00  0.00     0.046 A 
HETATM    4  C19 UNL     1      19.869   6.930  49.189  1.00  0.00     0.085 A 
HETATM    5  N5  UNL     1      18.989   5.822  49.103  1.00  0.00    -0.394 N 
HETATM    6  C20 UNL     1      19.078   4.580  49.850  1.00  0.00     0.165 A 
HETATM    7  H20 UNL     1      18.154   5.780  48.469  1.00  0.00     0.159 HD
ENDROOT
BRANCH   1   8
HETATM    8  C7  UNL     1      20.554   3.491  51.634  1.00  0.00     0.254 C 
HETATM    9  N3  UNL     1      21.377   2.346  51.532  1.00  0.00    -0.344 N 
HETATM   10  C6  UNL     1      21.382   1.476  52.690  1.00  0.00     0.155 C 
HETATM   11  C21 UNL     1      22.252   1.807  50.506  1.00  0.00     0.132 C 
HETATM   12  C5  UNL     1      22.741   0.946  52.974  1.00  0.00     0.018 C 
HETATM   13  C4  UNL     1      23.817   1.141  52.227  1.00  0.00     0.006 C 
HETATM   14  C22 UNL     1      23.676   1.956  50.994  1.00  0.00     0.076 C 
HETATM   15  O2  UNL     1      20.059   3.374  52.770  1.00  0.00    -0.268 OA
BRANCH  13  16
HETATM   16  N2  UNL     1      25.089   0.599  52.567  1.00  0.00    -0.381 N 
HETATM   17  C3  UNL     1      26.281   1.220  52.077  1.00  0.00     0.142 C 
HETATM   18  C2  UNL     1      27.542   0.729  52.677  1.00  0.00     0.145 C 
HETATM   19  N1  UNL     1      27.623  -0.665  52.944  1.00  0.00    -0.356 N 
HETATM   20  C24 UNL     1      26.411  -1.377  52.716  1.00  0.00     0.145 C 
HETATM   21  C23 UNL     1      25.302  -0.564  53.396  1.00  0.00     0.142 C 
BRANCH  19  22
HETATM   22  C1  UNL     1      28.907  -1.129  53.398  1.00  0.00     0.350 C 
HETATM   23  O1  UNL     1      29.128  -0.637  54.549  1.00  0.00    -0.284 OA
ENDBRANCH  19  22
ENDBRANCH  13  16
ENDBRANCH   1   8
BRANCH   2  24
HETATM   24  N4  UNL     1      22.204   5.622  51.766  1.00  0.00    -0.389 N 
HETATM   25  H9  UNL     1      21.806   5.577  52.750  1.00  0.00     0.159 HD
BRANCH  24  26
HETATM   26  C10 UNL     1      23.573   5.675  51.289  1.00  0.00     0.124 C 
BRANCH  26  27
HETATM   27  C11 UNL     1      23.740   5.336  49.846  1.00  0.00     0.058 C 
BRANCH  27  28
HETATM   28  C12 UNL     1      25.152   5.380  49.376  1.00  0.00    -0.057 A 
HETATM   29  C13 UNL     1      25.711   6.539  48.835  1.00  0.00     0.009 A 
HETATM   30  C14 UNL     1      27.032   6.593  48.394  1.00  0.00     0.024 A 
HETATM   31  C15 UNL     1      27.826   5.455  48.495  1.00  0.00     0.034 A 
HETATM   32 CL1  UNL     1      29.499   5.448  47.962  1.00  0.00    -0.084 Cl
HETATM   33  C16 UNL     1      27.303   4.282  49.029  1.00  0.00     0.024 A 
HETATM   34  C17 UNL     1      25.976   4.275  49.456  1.00  0.00     0.009 A 
ENDBRANCH  27  28
ENDBRANCH  26  27
ENDBRANCH  24  26
ENDBRANCH   2  24
TORSDOF 7
ENDMDL
MODEL 2
REMARK VINA RESULT:      -8.5      3.567      7.456
REMARK  7 active torsions:
REMARK  status: ('A' for Active; 'I' for Inactive)
REMARK    1  A    between atoms: C1_2  and  N1_3 
REMARK    2  A    between atoms: N2_6  and  C4_7 
REMARK       I    between atoms: N3_10  and  C7_11 
REMARK    3  A    between atoms: C7_11  and  C8_13 
REMARK    4  A    between atoms: C9_14  and  N4_15 
REMARK    5  A    between atoms: N4_15  and  C10_16 
REMARK    6  A    between atoms: C10_16  and  C11_17 
REMARK    7  A    between atoms: C11_17  and  C12_18 
ROOT
HETATM    1  C8  UNL     1      24.042   3.657  51.383  1.00  0.00     0.053 A 
HETATM    2  C9  UNL     1      24.515   2.641  52.093  1.00  0.00     0.042 A 
HETATM    3  C18 UNL     1      25.930   2.305  51.934  1.00  0.00     0.046 A 
HETATM    4  C19 UNL     1      26.764   2.945  51.132  1.00  0.00     0.085 A 
HETATM    5  N5  UNL     1      26.205   4.022  50.400  1.00  0.00    -0.394 N 
HETATM    6  C20 UNL     1      24.826   4.478  50.438  1.00  0.00     0.165 A 
HETATM    7  H20 UNL     1      26.745   4.623  49.730  1.00  0.00     0.159 HD
ENDROOT
BRANCH   1   8
HETATM    8  C7  UNL     1      22.628   3.909  51.616  1.00  0.00     0.254 C 
HETATM    9  N3  UNL     1      21.420   3.378  51.106  1.00  0.00    -0.344 N 
HETATM   10  C6  UNL     1      20.207   3.951  51.651  1.00  0.00     0.155 C 
HETATM   11  C21 UNL     1      21.088   2.358  50.128  1.00  0.00     0.132 C 
HETATM   12  C5  UNL     1      19.163   2.918  51.873  1.00  0.00     0.018 C 
HETATM   13  C4  UNL     1      19.255   1.641  51.535  1.00  0.00     0.006 C 
HETATM   14  C22 UNL     1      20.502   1.180  50.874  1.00  0.00     0.076 C 
HETATM   15  O2  UNL     1      22.230   4.764  52.429  1.00  0.00    -0.268 OA
BRANCH  13  16
HETATM   16  N2  UNL     1      18.208   0.708  51.782  1.00  0.00    -0.381 N 
HETATM   17  C3  UNL     1      18.489  -0.511  52.475  1.00  0.00     0.142 C 
HETATM   18  C2  UNL     1      17.302  -1.292  52.889  1.00  0.00     0.145 C 
HETATM   19  N1  UNL     1      16.208  -1.322  51.981  1.00  0.00    -0.356 N 
HETATM   20  C24 UNL     1      16.363  -0.474  50.848  1.00  0.00     0.145 C 
HETATM   21  C23 UNL     1      16.829   0.884  51.388  1.00  0.00     0.142 C 
BRANCH  19  22
HETATM   22  C1  UNL     1      15.129  -2.197  52.351  1.00  0.00     0.350 C 
HETATM   23  O1  UNL     1      15.524  -3.399  52.228  1.00  0.00    -0.284 OA
ENDBRANCH  19  22
ENDBRANCH  13  16
ENDBRANCH   1   8
BRANCH   2  24
HETATM   24  N4  UNL     1      23.733   1.867  52.991  1.00  0.00    -0.389 N 
HETATM   25  H9  UNL     1      23.362   2.540  53.723  1.00  0.00     0.159 HD
BRANCH  24  26
HETATM   26  C10 UNL     1      23.554   0.436  52.828  1.00  0.00     0.124 C 
BRANCH  26  27
HETATM   27  C11 UNL     1      24.153  -0.391  53.914  1.00  0.00     0.058 C 
BRANCH  27  28
HETATM   28  C12 UNL     1      25.640  -0.463  53.867  1.00  0.00    -0.057 A 
HETATM   29  C13 UNL     1      26.438   0.189  54.807  1.00  0.00     0.009 A 
HETATM   30  C14 UNL     1      27.830   0.125  54.775  1.00  0.00     0.024 A 
HETATM   31  C15 UNL     1      28.450  -0.613  53.772  1.00  0.00     0.034 A 
HETATM   32 CL1  UNL     1      30.199  -0.740  53.668  1.00  0.00    -0.084 Cl
HETATM   33  C16 UNL     1      27.688  -1.277  52.818  1.00  0.00     0.024 A 
HETATM   34  C17 UNL     1      26.298  -1.185  52.890  1.00  0.00     0.009 A 
ENDBRANCH  27  28
ENDBRANCH  26  27
ENDBRANCH  24  26
ENDBRANCH   2  24
TORSDOF 7
ENDMDL
MODEL 3
REMARK VINA RESULT:      -8.4      3.135      6.879
REMARK  7 active torsions:
REMARK  status: ('A' for Active; 'I' for Inactive)
REMARK    1  A    between atoms: C1_2  and  N1_3 
REMARK    2  A    between atoms: N2_6  and  C4_7 
REMARK       I    between atoms: N3_10  and  C7_11 
REMARK    3  A    between atoms: C7_11  and  C8_13 
REMARK    4  A    between atoms: C9_14  and  N4_15 
REMARK    5  A    between atoms: N4_15  and  C10_16 
REMARK    6  A    between atoms: C10_16  and  C11_17 
REMARK    7  A    between atoms: C11_17  and  C12_18 
ROOT
HETATM    1  C8  UNL     1      20.902   0.464  52.389  1.00  0.00     0.053 A 
HETATM    2  C9  UNL     1      22.123   0.219  52.848  1.00  0.00     0.042 A 
HETATM    3  C18 UNL     1      22.249  -0.703  53.976  1.00  0.00     0.046 A 
HETATM    4  C19 UNL     1      21.230  -1.307  54.564  1.00  0.00     0.085 A 
HETATM    5  N5  UNL     1      19.951  -1.011  54.031  1.00  0.00    -0.394 N 
HETATM    6  C20 UNL     1      19.655  -0.117  52.926  1.00  0.00     0.165 A 
HETATM    7  H20 UNL     1      19.053  -1.417  54.392  1.00  0.00     0.159 HD
ENDROOT
BRANCH   1   8
HETATM    8  C7  UNL     1      20.888   1.391  51.267  1.00  0.00     0.254 C 
HETATM    9  N3  UNL     1      20.907   2.799  51.133  1.00  0.00    -0.344 N 
HETATM   10  C6  UNL     1      20.884   3.296  49.773  1.00  0.00     0.155 C 
HETATM   11  C21 UNL     1      20.945   3.911  52.066  1.00  0.00     0.132 C 
HETATM   12  C5  UNL     1      21.775   4.473  49.604  1.00  0.00     0.018 C 
HETATM   13  C4  UNL     1      22.445   5.081  50.571  1.00  0.00     0.006 C 
HETATM   14  C22 UNL     1      22.307   4.558  51.954  1.00  0.00     0.076 C 
HETATM   15  O2  UNL     1      20.852   1.003  50.085  1.00  0.00    -0.268 OA
BRANCH  13  16
HETATM   16  N2  UNL     1      23.282   6.207  50.328  1.00  0.00    -0.381 N 
HETATM   17  C3  UNL     1      22.891   7.192  49.368  1.00  0.00     0.142 C 
HETATM   18  C2  UNL     1      23.703   8.430  49.365  1.00  0.00     0.145 C 
HETATM   19  N1  UNL     1      25.100   8.278  49.577  1.00  0.00    -0.356 N 
HETATM   20  C24 UNL     1      25.504   6.951  49.900  1.00  0.00     0.145 C 
HETATM   21  C23 UNL     1      24.541   6.463  50.989  1.00  0.00     0.142 C 
BRANCH  19  22
HETATM   22  C1  UNL     1      25.876   9.480  49.432  1.00  0.00     0.350 C 
HETATM   23  O1  UNL     1      26.617   9.608  50.458  1.00  0.00    -0.284 OA
ENDBRANCH  19  22
ENDBRANCH  13  16
ENDBRANCH   1   8
BRANCH   2  24
HETATM   24  N4  UNL     1      23.304   0.798  52.312  1.00  0.00    -0.389 N 
HETATM   25  H9  UNL     1      23.389   0.440  51.317  1.00  0.00     0.159 HD
BRANCH  24  26
HETATM   26  C10 UNL     1      24.147   1.693  53.083  1.00  0.00     0.124 C 
BRANCH  26  27
HETATM   27  C11 UNL     1      25.407   2.101  52.397  1.00  0.00     0.058 C 
BRANCH  27  28
HETATM   28  C12 UNL     1      26.587   1.268  52.759  1.00  0.00    -0.057 A 
HETATM   29  C13 UNL     1      27.743   1.828  53.305  1.00  0.00     0.009 A 
HETATM   30  C14 UNL     1      28.852   1.057  53.651  1.00  0.00     0.024 A 
HETATM   31  C15 UNL     1      28.811  -0.318  53.446  1.00  0.00     0.034 A 
HETATM   32 CL1  UNL     1      30.169  -1.352  53.858  1.00  0.00    -0.084 Cl
HETATM   33  C16 UNL     1      27.676  -0.912  52.904  1.00  0.00     0.024 A 
HETATM   34  C17 UNL     1      26.591  -0.101  52.573  1.00  0.00     0.009 A 
ENDBRANCH  27  28
ENDBRANCH  26  27
ENDBRANCH  24  26
ENDBRANCH   2  24
TORSDOF 7
ENDMDL
MODEL 4
REMARK VINA RESULT:      -8.4      3.121      5.310
REMARK  7 active torsions:
REMARK  status: ('A' for Active; 'I' for Inactive)
REMARK    1  A    between atoms: C1_2  and  N1_3 
REMARK    2  A    between atoms: N2_6  and  C4_7 
REMARK       I    between atoms: N3_10  and  C7_11 
REMARK    3  A    between atoms: C7_11  and  C8_13 
REMARK    4  A    between atoms: C9_14  and  N4_15 
REMARK    5  A    between atoms: N4_15  and  C10_16 
REMARK    6  A    between atoms: C10_16  and  C11_17 
REMARK    7  A    between atoms: C11_17  and  C12_18 
ROOT
HETATM    1  C8  UNL     1      20.017   4.293  49.224  1.00  0.00     0.053 A 
HETATM    2  C9  UNL     1      19.366   3.138  49.186  1.00  0.00     0.042 A 
HETATM    3  C18 UNL     1      17.916   3.172  49.382  1.00  0.00     0.046 A 
HETATM    4  C19 UNL     1      17.217   4.275  49.594  1.00  0.00     0.085 A 
HETATM    5  N5  UNL     1      17.964   5.479  49.623  1.00  0.00    -0.394 N 
HETATM    6  C20 UNL     1      19.400   5.616  49.454  1.00  0.00     0.165 A 
HETATM    7  H20 UNL     1      17.546   6.429  49.776  1.00  0.00     0.159 HD
ENDROOT
BRANCH   1   8
HETATM    8  C7  UNL     1      21.450   4.150  49.016  1.00  0.00     0.254 C 
HETATM    9  N3  UNL     1      22.599   4.312  49.825  1.00  0.00    -0.344 N 
HETATM   10  C6  UNL     1      23.864   4.046  49.171  1.00  0.00     0.155 C 
HETATM   11  C21 UNL     1      22.828   4.696  51.206  1.00  0.00     0.132 C 
HETATM   12  C5  UNL     1      24.809   3.334  50.071  1.00  0.00     0.018 C 
HETATM   13  C4  UNL     1      24.594   3.048  51.346  1.00  0.00     0.006 C 
HETATM   14  C22 UNL     1      23.305   3.469  51.951  1.00  0.00     0.076 C 
HETATM   15  O2  UNL     1      21.932   3.808  47.920  1.00  0.00    -0.268 OA
BRANCH  13  16
HETATM   16  N2  UNL     1      25.551   2.359  52.144  1.00  0.00    -0.381 N 
HETATM   17  C3  UNL     1      25.252   2.054  53.509  1.00  0.00     0.142 C 
HETATM   18  C2  UNL     1      26.202   1.136  54.176  1.00  0.00     0.145 C 
HETATM   19  N1  UNL     1      27.577   1.295  53.854  1.00  0.00    -0.356 N 
HETATM   20  C24 UNL     1      27.832   2.241  52.820  1.00  0.00     0.145 C 
HETATM   21  C23 UNL     1      26.848   1.917  51.689  1.00  0.00     0.142 C 
BRANCH  19  22
HETATM   22  C1  UNL     1      28.484   0.481  54.618  1.00  0.00     0.350 C 
HETATM   23  O1  UNL     1      27.810  -0.401  55.237  1.00  0.00    -0.284 OA
ENDBRANCH  19  22
ENDBRANCH  13  16
ENDBRANCH   1   8
BRANCH   2  24
HETATM   24  N4  UNL     1      19.989   1.881  48.967  1.00  0.00    -0.389 N 
HETATM   25  H9  UNL     1      20.258   1.853  47.940  1.00  0.00     0.159 HD
BRANCH  24  26
HETATM   26  C10 UNL     1      20.166   0.909  50.029  1.00  0.00     0.124 C 
BRANCH  26  27
HETATM   27  C11 UNL     1      20.066   1.471  51.407  1.00  0.00     0.058 C 
BRANCH  27  28
HETATM   28  C12 UNL     1      20.872   0.734  52.419  1.00  0.00    -0.057 A 
HETATM   29  C13 UNL     1      22.073   0.106  52.087  1.00  0.00     0.009 A 
HETATM   30  C14 UNL     1      22.838  -0.584  53.027  1.00  0.00     0.024 A 
HETATM   31  C15 UNL     1      22.392  -0.651  54.343  1.00  0.00     0.034 A 
HETATM   32 CL1  UNL     1      23.302  -1.502  55.581  1.00  0.00    -0.084 Cl
HETATM   33  C16 UNL     1      21.200  -0.038  54.711  1.00  0.00     0.024 A 
HETATM   34  C17 UNL     1      20.469   0.640  53.737  1.00  0.00     0.009 A 
ENDBRANCH  27  28
ENDBRANCH  26  27
ENDBRANCH  24  26
ENDBRANCH   2  24
TORSDOF 7
ENDMDL
MODEL 5
REMARK VINA RESULT:      -8.4      3.474      6.641
REMARK  7 active torsions:
REMARK  status: ('A' for Active; 'I' for Inactive)
REMARK    1  A    between atoms: C1_2  and  N1_3 
REMARK    2  A    between atoms: N2_6  and  C4_7 
REMARK       I    between atoms: N3_10  and  C7_11 
REMARK    3  A    between atoms: C7_11  and  C8_13 
REMARK    4  A    between atoms: C9_14  and  N4_15 
REMARK    5  A    between atoms: N4_15  and  C10_16 
REMARK    6  A    between atoms: C10_16  and  C11_17 
REMARK    7  A    between atoms: C11_17  and  C12_18 
ROOT
HETATM    1  C8  UNL     1      19.487   1.561  51.109  1.00  0.00     0.053 A 
HETATM    2  C9  UNL     1      19.091   0.547  51.867  1.00  0.00     0.042 A 
HETATM    3  C18 UNL     1      17.991  -0.280  51.370  1.00  0.00     0.046 A 
HETATM    4  C19 UNL     1      17.370  -0.083  50.220  1.00  0.00     0.085 A 
HETATM    5  N5  UNL     1      17.836   1.012  49.450  1.00  0.00    -0.394 N 
HETATM    6  C20 UNL     1      18.906   1.929  49.801  1.00  0.00     0.165 A 
HETATM    7  H20 UNL     1      17.444   1.287  48.517  1.00  0.00     0.159 HD
ENDROOT
BRANCH   1   8
HETATM    8  C7  UNL     1      20.586   2.317  51.692  1.00  0.00     0.254 C 
HETATM    9  N3  UNL     1      21.979   2.393  51.462  1.00  0.00    -0.344 N 
HETATM   10  C6  UNL     1      22.701   3.319  52.310  1.00  0.00     0.155 C 
HETATM   11  C21 UNL     1      22.899   1.742  50.546  1.00  0.00     0.132 C 
HETATM   12  C5  UNL     1      23.755   4.047  51.556  1.00  0.00     0.018 C 
HETATM   13  C4  UNL     1      24.089   3.833  50.293  1.00  0.00     0.006 C 
HETATM   14  C22 UNL     1      23.360   2.777  49.545  1.00  0.00     0.076 C 
HETATM   15  O2  UNL     1      20.416   3.129  52.620  1.00  0.00    -0.268 OA
BRANCH  13  16
HETATM   16  N2  UNL     1      25.112   4.576  49.638  1.00  0.00    -0.381 N 
HETATM   17  C3  UNL     1      26.453   4.078  49.621  1.00  0.00     0.142 C 
HETATM   18  C2  UNL     1      27.382   4.795  48.719  1.00  0.00     0.145 C 
HETATM   19  N1  UNL     1      27.234   6.206  48.639  1.00  0.00    -0.356 N 
HETATM   20  C24 UNL     1      26.109   6.719  49.345  1.00  0.00     0.145 C 
HETATM   21  C23 UNL     1      24.918   5.834  48.956  1.00  0.00     0.142 C 
BRANCH  19  22
HETATM   22  C1  UNL     1      28.236   6.885  47.862  1.00  0.00     0.350 C 
HETATM   23  O1  UNL     1      27.730   7.954  47.397  1.00  0.00    -0.284 OA
ENDBRANCH  19  22
ENDBRANCH  13  16
ENDBRANCH   1   8
BRANCH   2  24
HETATM   24  N4  UNL     1      19.668   0.221  53.123  1.00  0.00    -0.389 N 
HETATM   25  H9  UNL     1      19.409   1.008  53.787  1.00  0.00     0.159 HD
BRANCH  24  26
HETATM   26  C10 UNL     1      20.442  -0.989  53.330  1.00  0.00     0.124 C 
BRANCH  26  27
HETATM   27  C11 UNL     1      21.155  -1.052  54.638  1.00  0.00     0.058 C 
BRANCH  27  28
HETATM   28  C12 UNL     1      22.628  -0.864  54.532  1.00  0.00    -0.057 A 
HETATM   29  C13 UNL     1      23.217  -0.284  53.407  1.00  0.00     0.009 A 
HETATM   30  C14 UNL     1      24.594  -0.099  53.298  1.00  0.00     0.024 A 
HETATM   31  C15 UNL     1      25.415  -0.506  54.345  1.00  0.00     0.034 A 
HETATM   32 CL1  UNL     1      27.158  -0.305  54.280  1.00  0.00    -0.084 Cl
HETATM   33  C16 UNL     1      24.865  -1.087  55.482  1.00  0.00     0.024 A 
HETATM   34  C17 UNL     1      23.482  -1.252  55.546  1.00  0.00     0.009 A 
ENDBRANCH  27  28
ENDBRANCH  26  27
ENDBRANCH  24  26
ENDBRANCH   2  24
TORSDOF 7
ENDMDL
MODEL 6
REMARK VINA RESULT:      -8.1      2.640      7.103
REMARK  7 active torsions:
REMARK  status: ('A' for Active; 'I' for Inactive)
REMARK    1  A    between atoms: C1_2  and  N1_3 
REMARK    2  A    between atoms: N2_6  and  C4_7 
REMARK       I    between atoms: N3_10  and  C7_11 
REMARK    3  A    between atoms: C7_11  and  C8_13 
REMARK    4  A    between atoms: C9_14  and  N4_15 
REMARK    5  A    between atoms: N4_15  and  C10_16 
REMARK    6  A    between atoms: C10_16  and  C11_17 
REMARK    7  A    between atoms: C11_17  and  C12_18 
ROOT
HETATM    1  C8  UNL     1      25.511   1.369  53.145  1.00  0.00     0.053 A 
HETATM    2  C9  UNL     1      26.623   1.733  52.520  1.00  0.00     0.042 A 
HETATM    3  C18 UNL     1      27.810   0.901  52.712  1.00  0.00     0.046 A 
HETATM    4  C19 UNL     1      27.846  -0.186  53.465  1.00  0.00     0.085 A 
HETATM    5  N5  UNL     1      26.630  -0.528  54.107  1.00  0.00    -0.394 N 
HETATM    6  C20 UNL     1      25.371   0.192  54.026  1.00  0.00     0.165 A 
HETATM    7  H20 UNL     1      26.506  -1.363  54.729  1.00  0.00     0.159 HD
ENDROOT
BRANCH   1   8
HETATM    8  C7  UNL     1      24.390   2.261  52.885  1.00  0.00     0.254 C 
HETATM    9  N3  UNL     1      23.274   2.238  52.017  1.00  0.00    -0.344 N 
HETATM   10  C6  UNL     1      22.387   3.379  52.110  1.00  0.00     0.155 C 
HETATM   11  C21 UNL     1      22.783   1.310  51.013  1.00  0.00     0.132 C 
HETATM   12  C5  UNL     1      20.961   2.977  51.999  1.00  0.00     0.018 C 
HETATM   13  C4  UNL     1      20.520   1.754  51.747  1.00  0.00     0.006 C 
HETATM   14  C22 UNL     1      21.522   0.674  51.554  1.00  0.00     0.076 C 
HETATM   15  O2  UNL     1      24.241   3.337  53.495  1.00  0.00    -0.268 OA
BRANCH  13  16
HETATM   16  N2  UNL     1      19.133   1.446  51.658  1.00  0.00    -0.381 N 
HETATM   17  C3  UNL     1      18.684   0.107  51.887  1.00  0.00     0.142 C 
HETATM   18  C2  UNL     1      17.218  -0.057  52.006  1.00  0.00     0.145 C 
HETATM   19  N1  UNL     1      16.414   0.737  51.143  1.00  0.00    -0.356 N 
HETATM   20  C24 UNL     1      17.142   1.687  50.372  1.00  0.00     0.145 C 
HETATM   21  C23 UNL     1      18.090   2.396  51.348  1.00  0.00     0.142 C 
BRANCH  19  22
HETATM   22  C1  UNL     1      15.004   0.455  51.188  1.00  0.00     0.350 C 
HETATM   23  O1  UNL     1      14.370   1.538  50.985  1.00  0.00    -0.284 OA
ENDBRANCH  19  22
ENDBRANCH  13  16
ENDBRANCH   1   8
BRANCH   2  24
HETATM   24  N4  UNL     1      26.726   2.875  51.682  1.00  0.00    -0.389 N 
HETATM   25  H9  UNL     1      26.980   3.690  52.313  1.00  0.00     0.159 HD
BRANCH  24  26
HETATM   26  C10 UNL     1      26.503   2.808  50.249  1.00  0.00     0.124 C 
BRANCH  26  27
HETATM   27  C11 UNL     1      25.696   3.933  49.695  1.00  0.00     0.058 C 
BRANCH  27  28
HETATM   28  C12 UNL     1      26.512   5.011  49.071  1.00  0.00    -0.057 A 
HETATM   29  C13 UNL     1      27.835   4.800  48.681  1.00  0.00     0.009 A 
HETATM   30  C14 UNL     1      28.607   5.801  48.092  1.00  0.00     0.024 A 
HETATM   31  C15 UNL     1      28.043   7.056  47.886  1.00  0.00     0.034 A 
HETATM   32 CL1  UNL     1      28.954   8.365  47.151  1.00  0.00    -0.084 Cl
HETATM   33  C16 UNL     1      26.728   7.304  48.263  1.00  0.00     0.024 A 
HETATM   34  C17 UNL     1      25.994   6.272  48.848  1.00  0.00     0.009 A 
ENDBRANCH  27  28
ENDBRANCH  26  27
ENDBRANCH  24  26
ENDBRANCH   2  24
TORSDOF 7
ENDMDL
MODEL 7
REMARK VINA RESULT:      -8.0      4.772      8.167
REMARK  7 active torsions:
REMARK  status: ('A' for Active; 'I' for Inactive)
REMARK    1  A    between atoms: C1_2  and  N1_3 
REMARK    2  A    between atoms: N2_6  and  C4_7 
REMARK       I    between atoms: N3_10  and  C7_11 
REMARK    3  A    between atoms: C7_11  and  C8_13 
REMARK    4  A    between atoms: C9_14  and  N4_15 
REMARK    5  A    between atoms: N4_15  and  C10_16 
REMARK    6  A    between atoms: C10_16  and  C11_17 
REMARK    7  A    between atoms: C11_17  and  C12_18 
ROOT
HETATM    1  C8  UNL     1      24.380   4.973  50.735  1.00  0.00     0.053 A 
HETATM    2  C9  UNL     1      23.725   3.856  51.023  1.00  0.00     0.042 A 
HETATM    3  C18 UNL     1      22.437   3.984  51.704  1.00  0.00     0.046 A 
HETATM    4  C19 UNL     1      21.886   5.136  52.049  1.00  0.00     0.085 A 
HETATM    5  N5  UNL     1      22.630   6.296  51.715  1.00  0.00    -0.394 N 
HETATM    6  C20 UNL     1      23.919   6.341  51.049  1.00  0.00     0.165 A 
HETATM    7  H20 UNL     1      22.318   7.276  51.922  1.00  0.00     0.159 HD
ENDROOT
BRANCH   1   8
HETATM    8  C7  UNL     1      25.646   4.735  50.057  1.00  0.00     0.254 C 
HETATM    9  N3  UNL     1      26.351   5.365  49.005  1.00  0.00    -0.344 N 
HETATM   10  C6  UNL     1      27.620   4.762  48.655  1.00  0.00     0.155 C 
HETATM   11  C21 UNL     1      26.100   6.516  48.156  1.00  0.00     0.132 C 
HETATM   12  C5  UNL     1      28.650   5.788  48.347  1.00  0.00     0.018 C 
HETATM   13  C4  UNL     1      28.445   7.095  48.291  1.00  0.00     0.006 C 
HETATM   14  C22 UNL     1      27.075   7.602  48.555  1.00  0.00     0.076 C 
HETATM   15  O2  UNL     1      26.399   3.792  50.366  1.00  0.00    -0.268 OA
BRANCH  13  16
HETATM   16  N2  UNL     1      29.487   8.018  47.989  1.00  0.00    -0.381 N 
HETATM   17  C3  UNL     1      30.458   8.348  48.986  1.00  0.00     0.142 C 
HETATM   18  C2  UNL     1      31.623   9.122  48.503  1.00  0.00     0.145 C 
HETATM   19  N1  UNL     1      31.367  10.117  47.521  1.00  0.00    -0.356 N 
HETATM   20  C24 UNL     1      30.027  10.135  47.039  1.00  0.00     0.145 C 
HETATM   21  C23 UNL     1      29.668   8.679  46.717  1.00  0.00     0.142 C 
BRANCH  19  22
HETATM   22  C1  UNL     1      32.494  10.941  47.174  1.00  0.00     0.350 C 
HETATM   23  O1  UNL     1      32.246  11.520  46.070  1.00  0.00    -0.284 OA
ENDBRANCH  19  22
ENDBRANCH  13  16
ENDBRANCH   1   8
BRANCH   2  24
HETATM   24  N4  UNL     1      24.198   2.554  50.710  1.00  0.00    -0.389 N 
HETATM   25  H9  UNL     1      24.748   2.642  49.807  1.00  0.00     0.159 HD
BRANCH  24  26
HETATM   26  C10 UNL     1      23.915   1.405  51.549  1.00  0.00     0.124 C 
BRANCH  26  27
HETATM   27  C11 UNL     1      24.476   1.491  52.928  1.00  0.00     0.058 C 
BRANCH  27  28
HETATM   28  C12 UNL     1      25.846   0.919  53.058  1.00  0.00    -0.057 A 
HETATM   29  C13 UNL     1      26.093  -0.444  52.890  1.00  0.00     0.009 A 
HETATM   30  C14 UNL     1      27.371  -0.989  53.005  1.00  0.00     0.024 A 
HETATM   31  C15 UNL     1      28.440  -0.149  53.300  1.00  0.00     0.034 A 
HETATM   32 CL1  UNL     1      30.077  -0.763  53.461  1.00  0.00    -0.084 Cl
HETATM   33  C16 UNL     1      28.232   1.215  53.475  1.00  0.00     0.024 A 
HETATM   34  C17 UNL     1      26.937   1.715  53.349  1.00  0.00     0.009 A 
ENDBRANCH  27  28
ENDBRANCH  26  27
ENDBRANCH  24  26
ENDBRANCH   2  24
TORSDOF 7
ENDMDL
MODEL 8
REMARK VINA RESULT:      -7.9      3.459      6.879
REMARK  7 active torsions:
REMARK  status: ('A' for Active; 'I' for Inactive)
REMARK    1  A    between atoms: C1_2  and  N1_3 
REMARK    2  A    between atoms: N2_6  and  C4_7 
REMARK       I    between atoms: N3_10  and  C7_11 
REMARK    3  A    between atoms: C7_11  and  C8_13 
REMARK    4  A    between atoms: C9_14  and  N4_15 
REMARK    5  A    between atoms: N4_15  and  C10_16 
REMARK    6  A    between atoms: C10_16  and  C11_17 
REMARK    7  A    between atoms: C11_17  and  C12_18 
ROOT
HETATM    1  C8  UNL     1      25.422   6.741  49.168  1.00  0.00     0.053 A 
HETATM    2  C9  UNL     1      26.275   5.751  49.399  1.00  0.00     0.042 A 
HETATM    3  C18 UNL     1      27.515   5.732  48.623  1.00  0.00     0.046 A 
HETATM    4  C19 UNL     1      27.838   6.633  47.711  1.00  0.00     0.085 A 
HETATM    5  N5  UNL     1      26.891   7.668  47.507  1.00  0.00    -0.394 N 
HETATM    6  C20 UNL     1      25.617   7.827  48.186  1.00  0.00     0.165 A 
HETATM    7  H20 UNL     1      27.013   8.453  46.822  1.00  0.00     0.159 HD
ENDROOT
BRANCH   1   8
HETATM    8  C7  UNL     1      24.224   6.668  49.993  1.00  0.00     0.254 C 
HETATM    9  N3  UNL     1      22.923   6.143  49.820  1.00  0.00    -0.344 N 
HETATM   10  C6  UNL     1      22.032   6.300  50.952  1.00  0.00     0.155 C 
HETATM   11  C21 UNL     1      22.234   5.458  48.741  1.00  0.00     0.132 C 
HETATM   12  C5  UNL     1      21.188   5.095  51.158  1.00  0.00     0.018 C 
HETATM   13  C4  UNL     1      21.153   4.032  50.369  1.00  0.00     0.006 C 
HETATM   14  C22 UNL     1      22.025   4.023  49.168  1.00  0.00     0.076 C 
HETATM   15  O2  UNL     1      24.183   7.133  51.147  1.00  0.00    -0.268 OA
BRANCH  13  16
HETATM   16  N2  UNL     1      20.315   2.912  50.635  1.00  0.00    -0.381 N 
HETATM   17  C3  UNL     1      19.228   3.038  51.556  1.00  0.00     0.142 C 
HETATM   18  C2  UNL     1      18.283   1.899  51.579  1.00  0.00     0.145 C 
HETATM   19  N1  UNL     1      18.844   0.600  51.443  1.00  0.00    -0.356 N 
HETATM   20  C24 UNL     1      20.241   0.591  51.165  1.00  0.00     0.145 C 
HETATM   21  C23 UNL     1      20.461   1.605  50.036  1.00  0.00     0.142 C 
BRANCH  19  22
HETATM   22  C1  UNL     1      17.918  -0.488  51.606  1.00  0.00     0.350 C 
HETATM   23  O1  UNL     1      16.902  -0.061  52.241  1.00  0.00    -0.284 OA
ENDBRANCH  19  22
ENDBRANCH  13  16
ENDBRANCH   1   8
BRANCH   2  24
HETATM   24  N4  UNL     1      26.056   4.718  50.348  1.00  0.00    -0.389 N 
HETATM   25  H9  UNL     1      26.102   5.174  51.306  1.00  0.00     0.159 HD
BRANCH  24  26
HETATM   26  C10 UNL     1      25.823   3.341  49.955  1.00  0.00     0.124 C 
BRANCH  26  27
HETATM   27  C11 UNL     1      26.514   2.329  50.805  1.00  0.00     0.058 C 
BRANCH  27  28
HETATM   28  C12 UNL     1      25.598   1.561  51.694  1.00  0.00    -0.057 A 
HETATM   29  C13 UNL     1      24.282   1.964  51.918  1.00  0.00     0.009 A 
HETATM   30  C14 UNL     1      23.415   1.251  52.745  1.00  0.00     0.024 A 
HETATM   31  C15 UNL     1      23.874   0.097  53.370  1.00  0.00     0.034 A 
HETATM   32 CL1  UNL     1      22.840  -0.853  54.425  1.00  0.00    -0.084 Cl
HETATM   33  C16 UNL     1      25.180  -0.337  53.170  1.00  0.00     0.024 A 
HETATM   34  C17 UNL     1      26.011   0.409  52.335  1.00  0.00     0.009 A 
ENDBRANCH  27  28
ENDBRANCH  26  27
ENDBRANCH  24  26
ENDBRANCH   2  24
TORSDOF 7
ENDMDL
MODEL 9
REMARK VINA RESULT:      -7.8      4.375      7.830
REMARK  7 active torsions:
REMARK  status: ('A' for Active; 'I' for Inactive)
REMARK    1  A    between atoms: C1_2  and  N1_3 
REMARK    2  A    between atoms: N2_6  and  C4_7 
REMARK       I    between atoms: N3_10  and  C7_11 
REMARK    3  A    between atoms: C7_11  and  C8_13 
REMARK    4  A    between atoms: C9_14  and  N4_15 
REMARK    5  A    between atoms: N4_15  and  C10_16 
REMARK    6  A    between atoms: C10_16  and  C11_17 
REMARK    7  A    between atoms: C11_17  and  C12_18 
ROOT
HETATM    1  C8  UNL     1      23.330   4.087  50.341  1.00  0.00     0.053 A 
HETATM    2  C9  UNL     1      23.285   3.953  51.661  1.00  0.00     0.042 A 
HETATM    3  C18 UNL     1      21.974   3.751  52.276  1.00  0.00     0.046 A 
HETATM    4  C19 UNL     1      20.835   3.693  51.605  1.00  0.00     0.085 A 
HETATM    5  N5  UNL     1      20.943   3.840  50.200  1.00  0.00    -0.394 N 
HETATM    6  C20 UNL     1      22.162   4.053  49.438  1.00  0.00     0.165 A 
HETATM    7  H20 UNL     1      20.129   3.812  49.539  1.00  0.00     0.159 HD
ENDROOT
BRANCH   1   8
HETATM    8  C7  UNL     1      24.679   4.280  49.831  1.00  0.00     0.254 C 
HETATM    9  N3  UNL     1      25.301   5.222  48.979  1.00  0.00    -0.344 N 
HETATM   10  C6  UNL     1      26.715   5.015  48.746  1.00  0.00     0.155 C 
HETATM   11  C21 UNL     1      24.846   6.392  48.250  1.00  0.00     0.132 C 
HETATM   12  C5  UNL     1      27.461   6.300  48.719  1.00  0.00     0.018 C 
HETATM   13  C4  UNL     1      26.923   7.507  48.795  1.00  0.00     0.006 C 
HETATM   14  C22 UNL     1      25.447   7.610  48.917  1.00  0.00     0.076 C 
HETATM   15  O2  UNL     1      25.618   3.517  50.128  1.00  0.00    -0.268 OA
BRANCH  13  16
HETATM   16  N2  UNL     1      27.708   8.695  48.764  1.00  0.00    -0.381 N 
HETATM   17  C3  UNL     1      27.082   9.955  48.506  1.00  0.00     0.142 C 
HETATM   18  C2  UNL     1      27.935  11.144  48.731  1.00  0.00     0.145 C 
HETATM   19  N1  UNL     1      29.301  11.030  48.353  1.00  0.00    -0.356 N 
HETATM   20  C24 UNL     1      29.687   9.727  47.930  1.00  0.00     0.145 C 
HETATM   21  C23 UNL     1      29.134   8.754  48.980  1.00  0.00     0.142 C 
BRANCH  19  22
HETATM   22  C1  UNL     1      30.068  12.242  48.457  1.00  0.00     0.350 C 
HETATM   23  O1  UNL     1      30.750  12.197  49.530  1.00  0.00    -0.284 OA
ENDBRANCH  19  22
ENDBRANCH  13  16
ENDBRANCH   1   8
BRANCH   2  24
HETATM   24  N4  UNL     1      24.428   3.994  52.503  1.00  0.00    -0.389 N 
HETATM   25  H9  UNL     1      24.941   4.893  52.269  1.00  0.00     0.159 HD
BRANCH  24  26
HETATM   26  C10 UNL     1      24.724   2.944  53.460  1.00  0.00     0.124 C 
BRANCH  26  27
HETATM   27  C11 UNL     1      24.824   1.578  52.870  1.00  0.00     0.058 C 
BRANCH  27  28
HETATM   28  C12 UNL     1      26.143   0.922  53.088  1.00  0.00    -0.057 A 
HETATM   29  C13 UNL     1      27.235   1.620  53.604  1.00  0.00     0.009 A 
HETATM   30  C14 UNL     1      28.473   1.015  53.817  1.00  0.00     0.024 A 
HETATM   31  C15 UNL     1      28.630  -0.332  53.504  1.00  0.00     0.034 A 
HETATM   32 CL1  UNL     1      30.158  -1.162  53.745  1.00  0.00    -0.084 Cl
HETATM   33  C16 UNL     1      27.563  -1.060  52.988  1.00  0.00     0.024 A 
HETATM   34  C17 UNL     1      26.344  -0.412  52.793  1.00  0.00     0.009 A 
ENDBRANCH  27  28
ENDBRANCH  26  27
ENDBRANCH  24  26
ENDBRANCH   2  24
TORSDOF 7
ENDMDL
