MODEL 1
REMARK VINA RESULT:      -8.6      0.000      0.000
REMARK  5 active torsions:
REMARK  status: ('A' for Active; 'I' for Inactive)
REMARK    1  A    between atoms: C3_4  and  C4_5 
REMARK    2  A    between atoms: C15_18  and  C16_19 
REMARK    3  A    between atoms: C16_19  and  C17_20 
REMARK    4  A    between atoms: C17_20  and  C18_21 
REMARK    5  A    between atoms: C18_21  and  O3_23 
ROOT
HETATM    1  C1  UNL     1      22.373   1.917  50.710  1.00  0.00     0.037 C 
HETATM    2  C2  UNL     1      21.981   1.974  52.148  1.00  0.00     0.110 C 
HETATM    3  N1  UNL     1      23.216   1.875  52.947  1.00  0.00    -0.382 N 
HETATM    4  C3  UNL     1      23.577   0.485  52.837  1.00  0.00     0.030 C 
HETATM    5  C13 UNL     1      22.419  -0.190  52.644  1.00  0.00     0.038 C 
HETATM    6  C14 UNL     1      21.308   0.708  52.620  1.00  0.00    -0.037 C 
HETATM    7  C15 UNL     1      20.063   0.412  52.945  1.00  0.00    -0.017 C 
HETATM    8  H5  UNL     1      23.628   2.677  53.439  1.00  0.00     0.160 HD
ENDROOT
BRANCH   4   9
HETATM    9  C4  UNL     1      24.892  -0.094  52.928  1.00  0.00     0.047 C 
HETATM   10  C5  UNL     1      26.079   0.268  53.345  1.00  0.00     0.046 A 
HETATM   11  C6  UNL     1      26.598   1.492  53.929  1.00  0.00     0.257 A 
HETATM   12  C12 UNL     1      27.250  -0.620  53.301  1.00  0.00     0.006 A 
HETATM   13  O1  UNL     1      26.020   2.555  54.183  1.00  0.00    -0.267 OA
HETATM   14  N2  UNL     1      27.980   1.403  54.236  1.00  0.00    -0.322 N 
HETATM   15  C7  UNL     1      28.303   0.085  53.823  1.00  0.00     0.046 A 
HETATM   16  H7  UNL     1      28.636   2.094  54.655  1.00  0.00     0.169 HD
HETATM   17  C8  UNL     1      29.524  -0.592  53.870  1.00  0.00     0.030 A 
HETATM   18  C9  UNL     1      29.746  -1.883  53.443  1.00  0.00     0.002 A 
HETATM   19  C10 UNL     1      28.681  -2.581  52.920  1.00  0.00     0.001 A 
HETATM   20  C11 UNL     1      27.470  -1.931  52.866  1.00  0.00     0.015 A 
ENDBRANCH   4   9
BRANCH   7  21
HETATM   21  C16 UNL     1      19.251  -0.743  53.416  1.00  0.00     0.038 C 
BRANCH  21  22
HETATM   22  C17 UNL     1      18.015  -0.836  52.553  1.00  0.00     0.113 C 
BRANCH  22  23
HETATM   23  C18 UNL     1      17.122  -1.940  52.987  1.00  0.00     0.139 C 
HETATM   24  O2  UNL     1      17.797  -2.751  53.698  1.00  0.00    -0.650 OA
BRANCH  23  25
HETATM   25  O3  UNL     1      16.278  -2.956  53.380  1.00  0.00    -0.776 OA
HETATM   26  H18 UNL     1      16.198  -3.788  52.776  1.00  0.00     0.167 HD
ENDBRANCH  23  25
ENDBRANCH  22  23
ENDBRANCH  21  22
ENDBRANCH   7  21
TORSDOF 5
ENDMDL
MODEL 2
REMARK VINA RESULT:      -8.6      2.615      3.185
REMARK  5 active torsions:
REMARK  status: ('A' for Active; 'I' for Inactive)
REMARK    1  A    between atoms: C3_4  and  C4_5 
REMARK    2  A    between atoms: C15_18  and  C16_19 
REMARK    3  A    between atoms: C16_19  and  C17_20 
REMARK    4  A    between atoms: C17_20  and  C18_21 
REMARK    5  A    between atoms: C18_21  and  O3_23 
ROOT
HETATM    1  C1  UNL     1      21.181   0.211  54.801  1.00  0.00     0.037 C 
HETATM    2  C2  UNL     1      21.034  -0.676  53.612  1.00  0.00     0.110 C 
HETATM    3  N1  UNL     1      22.299  -1.416  53.453  1.00  0.00    -0.382 N 
HETATM    4  C3  UNL     1      23.202  -0.427  52.921  1.00  0.00     0.030 C 
HETATM    5  C13 UNL     1      22.433   0.457  52.241  1.00  0.00     0.038 C 
HETATM    6  C14 UNL     1      21.055   0.085  52.309  1.00  0.00    -0.037 C 
HETATM    7  C15 UNL     1      20.127   0.377  51.417  1.00  0.00    -0.017 C 
HETATM    8  H5  UNL     1      22.398  -2.411  53.686  1.00  0.00     0.160 HD
ENDROOT
BRANCH   4   9
HETATM    9  C4  UNL     1      24.634  -0.377  53.057  1.00  0.00     0.047 C 
HETATM   10  C5  UNL     1      25.550   0.526  53.298  1.00  0.00     0.046 A 
HETATM   11  C6  UNL     1      25.497   1.956  53.545  1.00  0.00     0.257 A 
HETATM   12  C12 UNL     1      26.984   0.211  53.386  1.00  0.00     0.006 A 
HETATM   13  O1  UNL     1      24.523   2.717  53.581  1.00  0.00    -0.267 OA
HETATM   14  N2  UNL     1      26.780   2.516  53.772  1.00  0.00    -0.322 N 
HETATM   15  C7  UNL     1      27.633   1.388  53.658  1.00  0.00     0.046 A 
HETATM   16  H7  UNL     1      27.078   3.492  53.974  1.00  0.00     0.169 HD
HETATM   17  C8  UNL     1      29.022   1.301  53.781  1.00  0.00     0.030 A 
HETATM   18  C9  UNL     1      29.771   0.152  53.653  1.00  0.00     0.002 A 
HETATM   19  C10 UNL     1      29.109  -1.023  53.379  1.00  0.00     0.001 A 
HETATM   20  C11 UNL     1      27.741  -0.958  53.255  1.00  0.00     0.015 A 
ENDBRANCH   4   9
BRANCH   7  21
HETATM   21  C16 UNL     1      19.976   1.092  50.120  1.00  0.00     0.038 C 
BRANCH  21  22
HETATM   22  C17 UNL     1      20.172   2.569  50.369  1.00  0.00     0.113 C 
BRANCH  22  23
HETATM   23  C18 UNL     1      19.098   3.129  51.228  1.00  0.00     0.139 C 
HETATM   24  O2  UNL     1      19.631   3.627  52.270  1.00  0.00    -0.650 OA
BRANCH  23  25
HETATM   25  O3  UNL     1      18.087   3.642  52.012  1.00  0.00    -0.776 OA
HETATM   26  H18 UNL     1      18.112   4.645  52.249  1.00  0.00     0.167 HD
ENDBRANCH  23  25
ENDBRANCH  22  23
ENDBRANCH  21  22
ENDBRANCH   7  21
TORSDOF 5
ENDMDL
MODEL 3
REMARK VINA RESULT:      -8.5      2.956      8.355
REMARK  5 active torsions:
REMARK  status: ('A' for Active; 'I' for Inactive)
REMARK    1  A    between atoms: C3_4  and  C4_5 
REMARK    2  A    between atoms: C15_18  and  C16_19 
REMARK    3  A    between atoms: C16_19  and  C17_20 
REMARK    4  A    between atoms: C17_20  and  C18_21 
REMARK    5  A    between atoms: C18_21  and  O3_23 
ROOT
HETATM    1  C1  UNL     1      23.823   3.482  52.512  1.00  0.00     0.037 C 
HETATM    2  C2  UNL     1      24.402   2.449  51.606  1.00  0.00     0.110 C 
HETATM    3  N1  UNL     1      23.279   1.765  50.940  1.00  0.00    -0.382 N 
HETATM    4  C3  UNL     1      22.739   0.920  51.976  1.00  0.00     0.030 C 
HETATM    5  C13 UNL     1      23.771   0.637  52.806  1.00  0.00     0.038 C 
HETATM    6  C14 UNL     1      24.970   1.268  52.354  1.00  0.00    -0.037 C 
HETATM    7  C15 UNL     1      26.201   0.849  52.583  1.00  0.00    -0.017 C 
HETATM    8  H5  UNL     1      23.034   1.919  49.955  1.00  0.00     0.160 HD
ENDROOT
BRANCH   4   9
HETATM    9  C4  UNL     1      21.386   0.446  52.111  1.00  0.00     0.047 C 
HETATM   10  C5  UNL     1      20.280   0.473  51.412  1.00  0.00     0.046 A 
HETATM   11  C6  UNL     1      19.934   1.032  50.116  1.00  0.00     0.257 A 
HETATM   12  C12 UNL     1      19.029  -0.151  51.866  1.00  0.00     0.006 A 
HETATM   13  O1  UNL     1      20.634   1.663  49.315  1.00  0.00    -0.267 OA
HETATM   14  N2  UNL     1      18.582   0.791  49.765  1.00  0.00    -0.322 N 
HETATM   15  C7  UNL     1      18.097   0.065  50.883  1.00  0.00     0.046 A 
HETATM   16  H7  UNL     1      18.034   1.056  48.920  1.00  0.00     0.169 HD
HETATM   17  C8  UNL     1      16.825  -0.456  51.127  1.00  0.00     0.030 A 
HETATM   18  C9  UNL     1      16.442  -1.154  52.251  1.00  0.00     0.002 A 
HETATM   19  C10 UNL     1      17.385  -1.364  53.232  1.00  0.00     0.001 A 
HETATM   20  C11 UNL     1      18.645  -0.859  53.009  1.00  0.00     0.015 A 
ENDBRANCH   4   9
BRANCH   7  21
HETATM   21  C16 UNL     1      26.921  -0.255  53.275  1.00  0.00     0.038 C 
BRANCH  21  22
HETATM   22  C17 UNL     1      26.775  -1.508  52.445  1.00  0.00     0.113 C 
BRANCH  22  23
HETATM   23  C18 UNL     1      27.729  -2.563  52.870  1.00  0.00     0.139 C 
HETATM   24  O2  UNL     1      28.697  -2.011  53.484  1.00  0.00    -0.650 OA
BRANCH  23  25
HETATM   25  O3  UNL     1      28.603  -3.558  53.256  1.00  0.00    -0.776 OA
HETATM   26  H18 UNL     1      28.364  -4.126  54.082  1.00  0.00     0.167 HD
ENDBRANCH  23  25
ENDBRANCH  22  23
ENDBRANCH  21  22
ENDBRANCH   7  21
TORSDOF 5
ENDMDL
MODEL 4
REMARK VINA RESULT:      -8.4      2.513      8.362
REMARK  5 active torsions:
REMARK  status: ('A' for Active; 'I' for Inactive)
REMARK    1  A    between atoms: C3_4  and  C4_5 
REMARK    2  A    between atoms: C15_18  and  C16_19 
REMARK    3  A    between atoms: C16_19  and  C17_20 
REMARK    4  A    between atoms: C17_20  and  C18_21 
REMARK    5  A    between atoms: C18_21  and  O3_23 
ROOT
HETATM    1  C1  UNL     1      24.146   3.534  52.989  1.00  0.00     0.037 C 
HETATM    2  C2  UNL     1      24.677   2.819  51.794  1.00  0.00     0.110 C 
HETATM    3  N1  UNL     1      23.522   2.391  50.984  1.00  0.00    -0.382 N 
HETATM    4  C3  UNL     1      22.985   1.279  51.727  1.00  0.00     0.030 C 
HETATM    5  C13 UNL     1      24.029   0.737  52.400  1.00  0.00     0.038 C 
HETATM    6  C14 UNL     1      25.233   1.456  52.128  1.00  0.00    -0.037 C 
HETATM    7  C15 UNL     1      26.458   0.966  52.181  1.00  0.00    -0.017 C 
HETATM    8  H5  UNL     1      23.259   2.844  50.101  1.00  0.00     0.160 HD
ENDROOT
BRANCH   4   9
HETATM    9  C4  UNL     1      21.624   0.810  51.751  1.00  0.00     0.047 C 
HETATM   10  C5  UNL     1      20.861   0.100  52.542  1.00  0.00     0.046 A 
HETATM   11  C6  UNL     1      21.089  -0.559  53.817  1.00  0.00     0.257 A 
HETATM   12  C12 UNL     1      19.449  -0.186  52.251  1.00  0.00     0.006 A 
HETATM   13  O1  UNL     1      22.117  -0.623  54.501  1.00  0.00    -0.267 OA
HETATM   14  N2  UNL     1      19.929  -1.211  54.305  1.00  0.00    -0.322 N 
HETATM   15  C7  UNL     1      18.972  -0.938  53.293  1.00  0.00     0.046 A 
HETATM   16  H7  UNL     1      19.765  -1.762  55.173  1.00  0.00     0.169 HD
HETATM   17  C8  UNL     1      17.631  -1.318  53.205  1.00  0.00     0.030 A 
HETATM   18  C9  UNL     1      16.771  -1.004  52.176  1.00  0.00     0.002 A 
HETATM   19  C10 UNL     1      17.261  -0.249  51.134  1.00  0.00     0.001 A 
HETATM   20  C11 UNL     1      18.579   0.135  51.204  1.00  0.00     0.015 A 
ENDBRANCH   4   9
BRANCH   7  21
HETATM   21  C16 UNL     1      27.164  -0.309  52.481  1.00  0.00     0.038 C 
BRANCH  21  22
HETATM   22  C17 UNL     1      28.206  -0.035  53.540  1.00  0.00     0.113 C 
BRANCH  22  23
HETATM   23  C18 UNL     1      28.725   1.353  53.454  1.00  0.00     0.139 C 
HETATM   24  O2  UNL     1      29.004   1.755  54.628  1.00  0.00    -0.650 OA
BRANCH  23  25
HETATM   25  O3  UNL     1      29.205   2.642  53.353  1.00  0.00    -0.776 OA
HETATM   26  H18 UNL     1      28.569   3.375  53.005  1.00  0.00     0.167 HD
ENDBRANCH  23  25
ENDBRANCH  22  23
ENDBRANCH  21  22
ENDBRANCH   7  21
TORSDOF 5
ENDMDL
MODEL 5
REMARK VINA RESULT:      -8.4      5.371      7.868
REMARK  5 active torsions:
REMARK  status: ('A' for Active; 'I' for Inactive)
REMARK    1  A    between atoms: C3_4  and  C4_5 
REMARK    2  A    between atoms: C15_18  and  C16_19 
REMARK    3  A    between atoms: C16_19  and  C17_20 
REMARK    4  A    between atoms: C17_20  and  C18_21 
REMARK    5  A    between atoms: C18_21  and  O3_23 
ROOT
HETATM    1  C1  UNL     1      23.342   1.908  50.488  1.00  0.00     0.037 C 
HETATM    2  C2  UNL     1      23.938   2.254  51.810  1.00  0.00     0.110 C 
HETATM    3  N1  UNL     1      24.585   3.571  51.673  1.00  0.00    -0.382 N 
HETATM    4  C3  UNL     1      25.781   3.281  50.924  1.00  0.00     0.030 C 
HETATM    5  C13 UNL     1      26.107   2.000  51.217  1.00  0.00     0.038 C 
HETATM    6  C14 UNL     1      25.165   1.435  52.130  1.00  0.00    -0.037 C 
HETATM    7  C15 UNL     1      25.404   0.460  52.987  1.00  0.00    -0.017 C 
HETATM    8  H5  UNL     1      24.192   4.432  52.073  1.00  0.00     0.160 HD
ENDROOT
BRANCH   4   9
HETATM    9  C4  UNL     1      26.509   4.164  50.050  1.00  0.00     0.047 C 
HETATM   10  C5  UNL     1      26.264   5.234  49.338  1.00  0.00     0.046 A 
HETATM   11  C6  UNL     1      25.070   6.031  49.116  1.00  0.00     0.257 A 
HETATM   12  C12 UNL     1      27.291   5.918  48.538  1.00  0.00     0.006 A 
HETATM   13  O1  UNL     1      23.927   5.883  49.562  1.00  0.00    -0.267 OA
HETATM   14  N2  UNL     1      25.304   7.131  48.252  1.00  0.00    -0.322 N 
HETATM   15  C7  UNL     1      26.682   6.991  47.942  1.00  0.00     0.046 A 
HETATM   16  H7  UNL     1      24.668   7.876  47.901  1.00  0.00     0.169 HD
HETATM   17  C8  UNL     1      27.499   7.780  47.128  1.00  0.00     0.030 A 
HETATM   18  C9  UNL     1      28.838   7.567  46.885  1.00  0.00     0.002 A 
HETATM   19  C10 UNL     1      29.439   6.485  47.487  1.00  0.00     0.001 A 
HETATM   20  C11 UNL     1      28.650   5.697  48.292  1.00  0.00     0.015 A 
ENDBRANCH   4   9
BRANCH   7  21
HETATM   21  C16 UNL     1      26.515  -0.430  53.422  1.00  0.00     0.038 C 
BRANCH  21  22
HETATM   22  C17 UNL     1      26.665  -1.533  52.401  1.00  0.00     0.113 C 
BRANCH  22  23
HETATM   23  C18 UNL     1      27.654  -2.553  52.834  1.00  0.00     0.139 C 
HETATM   24  O2  UNL     1      28.550  -1.978  53.529  1.00  0.00    -0.650 OA
BRANCH  23  25
HETATM   25  O3  UNL     1      28.561  -3.514  53.226  1.00  0.00    -0.776 OA
HETATM   26  H18 UNL     1      28.597  -3.777  54.222  1.00  0.00     0.167 HD
ENDBRANCH  23  25
ENDBRANCH  22  23
ENDBRANCH  21  22
ENDBRANCH   7  21
TORSDOF 5
ENDMDL
MODEL 6
REMARK VINA RESULT:      -8.2      3.232      3.961
REMARK  5 active torsions:
REMARK  status: ('A' for Active; 'I' for Inactive)
REMARK    1  A    between atoms: C3_4  and  C4_5 
REMARK    2  A    between atoms: C15_18  and  C16_19 
REMARK    3  A    between atoms: C16_19  and  C17_20 
REMARK    4  A    between atoms: C17_20  and  C18_21 
REMARK    5  A    between atoms: C18_21  and  O3_23 
ROOT
HETATM    1  C1  UNL     1      21.196   0.249  54.581  1.00  0.00     0.037 C 
HETATM    2  C2  UNL     1      21.081  -0.560  53.335  1.00  0.00     0.110 C 
HETATM    3  N1  UNL     1      22.333  -1.322  53.184  1.00  0.00    -0.382 N 
HETATM    4  C3  UNL     1      23.283  -0.327  52.754  1.00  0.00     0.030 C 
HETATM    5  C13 UNL     1      22.566   0.616  52.097  1.00  0.00     0.038 C 
HETATM    6  C14 UNL     1      21.179   0.278  52.083  1.00  0.00    -0.037 C 
HETATM    7  C15 UNL     1      20.299   0.649  51.171  1.00  0.00    -0.017 C 
HETATM    8  H5  UNL     1      22.398  -2.332  53.359  1.00  0.00     0.160 HD
ENDROOT
BRANCH   4   9
HETATM    9  C4  UNL     1      24.708  -0.325  52.955  1.00  0.00     0.047 C 
HETATM   10  C5  UNL     1      25.639   0.543  53.257  1.00  0.00     0.046 A 
HETATM   11  C6  UNL     1      25.618   1.969  53.534  1.00  0.00     0.257 A 
HETATM   12  C12 UNL     1      27.057   0.183  53.401  1.00  0.00     0.006 A 
HETATM   13  O1  UNL     1      24.667   2.759  53.545  1.00  0.00    -0.267 OA
HETATM   14  N2  UNL     1      26.906   2.483  53.831  1.00  0.00    -0.322 N 
HETATM   15  C7  UNL     1      27.729   1.332  53.729  1.00  0.00     0.046 A 
HETATM   16  H7  UNL     1      27.223   3.446  54.069  1.00  0.00     0.169 HD
HETATM   17  C8  UNL     1      29.107   1.200  53.911  1.00  0.00     0.030 A 
HETATM   18  C9  UNL     1      29.827   0.032  53.790  1.00  0.00     0.002 A 
HETATM   19  C10 UNL     1      29.142  -1.116  53.460  1.00  0.00     0.001 A 
HETATM   20  C11 UNL     1      27.784  -1.005  53.277  1.00  0.00     0.015 A 
ENDBRANCH   4   9
BRANCH   7  21
HETATM   21  C16 UNL     1      20.224   1.446  49.916  1.00  0.00     0.038 C 
BRANCH  21  22
HETATM   22  C17 UNL     1      21.329   0.984  48.996  1.00  0.00     0.113 C 
BRANCH  22  23
HETATM   23  C18 UNL     1      21.823   2.087  48.133  1.00  0.00     0.139 C 
HETATM   24  O2  UNL     1      22.986   2.419  48.525  1.00  0.00    -0.650 OA
BRANCH  23  25
HETATM   25  O3  UNL     1      22.262   3.111  47.321  1.00  0.00    -0.776 OA
HETATM   26  H18 UNL     1      23.044   2.922  46.675  1.00  0.00     0.167 HD
ENDBRANCH  23  25
ENDBRANCH  22  23
ENDBRANCH  21  22
ENDBRANCH   7  21
TORSDOF 5
ENDMDL
MODEL 7
REMARK VINA RESULT:      -8.0      5.245      6.614
REMARK  5 active torsions:
REMARK  status: ('A' for Active; 'I' for Inactive)
REMARK    1  A    between atoms: C3_4  and  C4_5 
REMARK    2  A    between atoms: C15_18  and  C16_19 
REMARK    3  A    between atoms: C16_19  and  C17_20 
REMARK    4  A    between atoms: C17_20  and  C18_21 
REMARK    5  A    between atoms: C18_21  and  O3_23 
ROOT
HETATM    1  C1  UNL     1      22.205   2.179  48.587  1.00  0.00     0.037 C 
HETATM    2  C2  UNL     1      22.109   2.760  49.956  1.00  0.00     0.110 C 
HETATM    3  N1  UNL     1      22.895   4.007  49.964  1.00  0.00    -0.382 N 
HETATM    4  C3  UNL     1      24.260   3.543  49.981  1.00  0.00     0.030 C 
HETATM    5  C13 UNL     1      24.239   2.335  50.593  1.00  0.00     0.038 C 
HETATM    6  C14 UNL     1      22.908   1.986  50.977  1.00  0.00    -0.037 C 
HETATM    7  C15 UNL     1      22.572   1.191  51.976  1.00  0.00    -0.017 C 
HETATM    8  H5  UNL     1      22.465   4.940  49.970  1.00  0.00     0.160 HD
ENDROOT
BRANCH   4   9
HETATM    9  C4  UNL     1      25.425   4.218  49.472  1.00  0.00     0.047 C 
HETATM   10  C5  UNL     1      25.724   5.395  48.986  1.00  0.00     0.046 A 
HETATM   11  C6  UNL     1      24.946   6.597  48.739  1.00  0.00     0.257 A 
HETATM   12  C12 UNL     1      27.080   5.766  48.557  1.00  0.00     0.006 A 
HETATM   13  O1  UNL     1      23.743   6.813  48.928  1.00  0.00    -0.267 OA
HETATM   14  N2  UNL     1      25.728   7.649  48.200  1.00  0.00    -0.322 N 
HETATM   15  C7  UNL     1      27.018   7.063  48.118  1.00  0.00     0.046 A 
HETATM   16  H7  UNL     1      25.475   8.618  47.918  1.00  0.00     0.169 HD
HETATM   17  C8  UNL     1      28.220   7.609  47.662  1.00  0.00     0.030 A 
HETATM   18  C9  UNL     1      29.434   6.960  47.620  1.00  0.00     0.002 A 
HETATM   19  C10 UNL     1      29.485   5.657  48.062  1.00  0.00     0.001 A 
HETATM   20  C11 UNL     1      28.311   5.103  48.515  1.00  0.00     0.015 A 
ENDBRANCH   4   9
BRANCH   7  21
HETATM   21  C16 UNL     1      23.205   0.374  53.046  1.00  0.00     0.038 C 
BRANCH  21  22
HETATM   22  C17 UNL     1      22.109  -0.219  53.900  1.00  0.00     0.113 C 
BRANCH  22  23
HETATM   23  C18 UNL     1      22.657  -1.098  54.964  1.00  0.00     0.139 C 
HETATM   24  O2  UNL     1      21.800  -2.002  55.224  1.00  0.00    -0.650 OA
BRANCH  23  25
HETATM   25  O3  UNL     1      23.182  -1.902  55.953  1.00  0.00    -0.776 OA
HETATM   26  H18 UNL     1      22.723  -2.805  56.146  1.00  0.00     0.167 HD
ENDBRANCH  23  25
ENDBRANCH  22  23
ENDBRANCH  21  22
ENDBRANCH   7  21
TORSDOF 5
ENDMDL
MODEL 8
REMARK VINA RESULT:      -7.9      3.039      7.987
REMARK  5 active torsions:
REMARK  status: ('A' for Active; 'I' for Inactive)
REMARK    1  A    between atoms: C3_4  and  C4_5 
REMARK    2  A    between atoms: C15_18  and  C16_19 
REMARK    3  A    between atoms: C16_19  and  C17_20 
REMARK    4  A    between atoms: C17_20  and  C18_21 
REMARK    5  A    between atoms: C18_21  and  O3_23 
ROOT
HETATM    1  C1  UNL     1      25.752   0.417  52.223  1.00  0.00     0.037 C 
HETATM    2  C2  UNL     1      25.447   1.847  52.515  1.00  0.00     0.110 C 
HETATM    3  N1  UNL     1      24.108   1.897  53.130  1.00  0.00    -0.382 N 
HETATM    4  C3  UNL     1      23.219   1.670  52.018  1.00  0.00     0.030 C 
HETATM    5  C13 UNL     1      23.866   2.128  50.920  1.00  0.00     0.038 C 
HETATM    6  C14 UNL     1      25.151   2.647  51.270  1.00  0.00    -0.037 C 
HETATM    7  C15 UNL     1      25.816   3.579  50.614  1.00  0.00    -0.017 C 
HETATM    8  H5  UNL     1      23.958   2.074  54.130  1.00  0.00     0.160 HD
ENDROOT
BRANCH   4   9
HETATM    9  C4  UNL     1      21.902   1.091  52.048  1.00  0.00     0.047 C 
HETATM   10  C5  UNL     1      21.243   0.227  52.777  1.00  0.00     0.046 A 
HETATM   11  C6  UNL     1      21.595  -0.565  53.943  1.00  0.00     0.257 A 
HETATM   12  C12 UNL     1      19.842  -0.137  52.521  1.00  0.00     0.006 A 
HETATM   13  O1  UNL     1      22.663  -0.628  54.562  1.00  0.00    -0.267 OA
HETATM   14  N2  UNL     1      20.519  -1.367  54.400  1.00  0.00    -0.322 N 
HETATM   15  C7  UNL     1      19.486  -1.050  53.480  1.00  0.00     0.046 A 
HETATM   16  H7  UNL     1      20.449  -2.033  55.196  1.00  0.00     0.169 HD
HETATM   17  C8  UNL     1      18.175  -1.526  53.410  1.00  0.00     0.030 A 
HETATM   18  C9  UNL     1      17.234  -1.158  52.473  1.00  0.00     0.002 A 
HETATM   19  C10 UNL     1      17.603  -0.242  51.514  1.00  0.00     0.001 A 
HETATM   20  C11 UNL     1      18.890   0.239  51.568  1.00  0.00     0.015 A 
ENDBRANCH   4   9
BRANCH   7  21
HETATM   21  C16 UNL     1      25.679   4.446  49.412  1.00  0.00     0.038 C 
BRANCH  21  22
HETATM   22  C17 UNL     1      24.431   5.281  49.570  1.00  0.00     0.113 C 
BRANCH  22  23
HETATM   23  C18 UNL     1      24.484   6.123  50.792  1.00  0.00     0.139 C 
HETATM   24  O2  UNL     1      23.468   5.858  51.511  1.00  0.00    -0.650 OA
BRANCH  23  25
HETATM   25  O3  UNL     1      24.551   6.914  51.919  1.00  0.00    -0.776 OA
HETATM   26  H18 UNL     1      25.480   7.192  52.267  1.00  0.00     0.167 HD
ENDBRANCH  23  25
ENDBRANCH  22  23
ENDBRANCH  21  22
ENDBRANCH   7  21
TORSDOF 5
ENDMDL
MODEL 9
REMARK VINA RESULT:      -7.9      5.046      9.034
REMARK  5 active torsions:
REMARK  status: ('A' for Active; 'I' for Inactive)
REMARK    1  A    between atoms: C3_4  and  C4_5 
REMARK    2  A    between atoms: C15_18  and  C16_19 
REMARK    3  A    between atoms: C16_19  and  C17_20 
REMARK    4  A    between atoms: C17_20  and  C18_21 
REMARK    5  A    between atoms: C18_21  and  O3_23 
ROOT
HETATM    1  C1  UNL     1      25.053   6.958  50.197  1.00  0.00     0.037 C 
HETATM    2  C2  UNL     1      25.335   6.280  48.900  1.00  0.00     0.110 C 
HETATM    3  N1  UNL     1      24.504   5.063  48.848  1.00  0.00    -0.382 N 
HETATM    4  C3  UNL     1      25.169   4.163  49.755  1.00  0.00     0.030 C 
HETATM    5  C13 UNL     1      26.475   4.518  49.747  1.00  0.00     0.038 C 
HETATM    6  C14 UNL     1      26.693   5.622  48.868  1.00  0.00    -0.037 C 
HETATM    7  C15 UNL     1      27.821   5.905  48.242  1.00  0.00    -0.017 C 
HETATM    8  H5  UNL     1      23.670   4.981  48.254  1.00  0.00     0.160 HD
ENDROOT
BRANCH   4   9
HETATM    9  C4  UNL     1      24.585   3.087  50.513  1.00  0.00     0.047 C 
HETATM   10  C5  UNL     1      24.978   2.202  51.394  1.00  0.00     0.046 A 
HETATM   11  C6  UNL     1      26.260   1.919  52.016  1.00  0.00     0.257 A 
HETATM   12  C12 UNL     1      24.073   1.216  52.000  1.00  0.00     0.006 A 
HETATM   13  O1  UNL     1      27.357   2.465  51.851  1.00  0.00    -0.267 OA
HETATM   14  N2  UNL     1      26.189   0.846  52.940  1.00  0.00    -0.322 N 
HETATM   15  C7  UNL     1      24.823   0.471  52.873  1.00  0.00     0.046 A 
HETATM   16  H7  UNL     1      26.918   0.406  53.539  1.00  0.00     0.169 HD
HETATM   17  C8  UNL     1      24.137  -0.534  53.559  1.00  0.00     0.030 A 
HETATM   18  C9  UNL     1      22.797  -0.828  53.429  1.00  0.00     0.002 A 
HETATM   19  C10 UNL     1      22.054  -0.074  52.549  1.00  0.00     0.001 A 
HETATM   20  C11 UNL     1      22.712   0.921  51.865  1.00  0.00     0.015 A 
ENDBRANCH   4   9
BRANCH   7  21
HETATM   21  C16 UNL     1      29.208   5.384  48.099  1.00  0.00     0.038 C 
BRANCH  21  22
HETATM   22  C17 UNL     1      30.169   6.504  48.422  1.00  0.00     0.113 C 
BRANCH  22  23
HETATM   23  C18 UNL     1      31.411   5.996  49.058  1.00  0.00     0.139 C 
HETATM   24  O2  UNL     1      31.650   4.831  48.607  1.00  0.00    -0.650 OA
BRANCH  23  25
HETATM   25  O3  UNL     1      32.565   5.542  49.660  1.00  0.00    -0.776 OA
HETATM   26  H18 UNL     1      32.497   5.132  50.603  1.00  0.00     0.167 HD
ENDBRANCH  23  25
ENDBRANCH  22  23
ENDBRANCH  21  22
ENDBRANCH   7  21
TORSDOF 5
ENDMDL
