MODEL 1
REMARK VINA RESULT:      -8.2      0.000      0.000
REMARK  2 active torsions:
REMARK  status: ('A' for Active; 'I' for Inactive)
REMARK    1  A    between atoms: C10_13  and  N3_14 
REMARK    2  A    between atoms: N3_14  and  C11_15 
ROOT
HETATM    1  C1  UNL     1      22.730   0.153  53.463  1.00  0.00     0.047 C 
HETATM    2  C2  UNL     1      24.005   0.319  53.067  1.00  0.00    -0.010 C 
HETATM    3  C3  UNL     1      24.799  -0.743  53.682  1.00  0.00     0.035 C 
HETATM    4  C4  UNL     1      26.091  -0.920  53.549  1.00  0.00     0.136 C 
HETATM    5  O1  UNL     1      27.435  -0.986  53.324  1.00  0.00    -0.358 OA
HETATM    6  C5  UNL     1      28.430  -0.274  54.059  1.00  0.00     0.130 C 
HETATM    7  C6  UNL     1      29.764  -0.966  53.811  1.00  0.00     0.040 C 
HETATM    8  C7  UNL     1      28.563   1.122  53.716  1.00  0.00     0.050 C 
HETATM    9  C8  UNL     1      28.346   2.309  53.249  1.00  0.00     0.141 C 
HETATM   10  N1  UNL     1      27.059   2.220  52.595  1.00  0.00    -0.275 NA
HETATM   11  C9  UNL     1      26.804   1.247  51.751  1.00  0.00     0.229 C 
HETATM   12  N2  UNL     1      25.539   1.816  51.597  1.00  0.00    -0.224 NA
HETATM   13  C10 UNL     1      24.452   1.390  52.157  1.00  0.00     0.135 C 
ENDROOT
BRANCH  13  14
HETATM   14  N3  UNL     1      23.391   2.266  51.718  1.00  0.00    -0.341 N 
HETATM   15  H12 UNL     1      22.909   2.866  52.464  1.00  0.00     0.167 HD
BRANCH  14  16
HETATM   16  C11 UNL     1      22.890   2.422  50.372  1.00  0.00     0.035 A 
HETATM   17  C12 UNL     1      22.187   1.447  49.704  1.00  0.00     0.032 A 
HETATM   18  C13 UNL     1      21.752   1.676  48.425  1.00  0.00     0.046 A 
HETATM   19  C14 UNL     1      21.964   2.841  47.723  1.00  0.00     0.138 A 
HETATM   20  F1  UNL     1      21.547   3.088  46.472  1.00  0.00    -0.204 F 
HETATM   21  C15 UNL     1      22.676   3.797  48.430  1.00  0.00     0.074 A 
HETATM   22 CL1  UNL     1      23.015   5.331  47.651  1.00  0.00    -0.081 Cl
HETATM   23  C16 UNL     1      23.129   3.605  49.715  1.00  0.00     0.056 A 
ENDBRANCH  14  16
ENDBRANCH  13  14
TORSDOF 2
ENDMDL
MODEL 2
REMARK VINA RESULT:      -8.0      1.645      1.939
REMARK  2 active torsions:
REMARK  status: ('A' for Active; 'I' for Inactive)
REMARK    1  A    between atoms: C10_13  and  N3_14 
REMARK    2  A    between atoms: N3_14  and  C11_15 
ROOT
HETATM    1  C1  UNL     1      23.013   0.281  53.438  1.00  0.00     0.047 C 
HETATM    2  C2  UNL     1      24.296   0.500  53.095  1.00  0.00    -0.010 C 
HETATM    3  C3  UNL     1      25.064  -0.680  53.486  1.00  0.00     0.035 C 
HETATM    4  C4  UNL     1      26.354  -0.851  53.332  1.00  0.00     0.136 C 
HETATM    5  O1  UNL     1      27.700  -0.894  53.111  1.00  0.00    -0.358 OA
HETATM    6  C5  UNL     1      28.697  -0.367  53.986  1.00  0.00     0.130 C 
HETATM    7  C6  UNL     1      30.023  -1.019  53.613  1.00  0.00     0.040 C 
HETATM    8  C7  UNL     1      28.857   1.066  53.939  1.00  0.00     0.050 C 
HETATM    9  C8  UNL     1      28.667   2.328  53.725  1.00  0.00     0.141 C 
HETATM   10  N1  UNL     1      27.386   2.400  53.055  1.00  0.00    -0.275 NA
HETATM   11  C9  UNL     1      27.126   1.627  52.026  1.00  0.00     0.229 C 
HETATM   12  N2  UNL     1      25.873   2.239  51.981  1.00  0.00    -0.224 NA
HETATM   13  C10 UNL     1      24.772   1.728  52.430  1.00  0.00     0.135 C 
ENDROOT
BRANCH  13  14
HETATM   14  N3  UNL     1      23.731   2.695  52.172  1.00  0.00    -0.341 N 
HETATM   15  H12 UNL     1      22.899   2.713  52.846  1.00  0.00     0.167 HD
BRANCH  14  16
HETATM   16  C11 UNL     1      23.678   3.649  51.089  1.00  0.00     0.035 A 
HETATM   17  C12 UNL     1      23.544   3.293  49.767  1.00  0.00     0.032 A 
HETATM   18  C13 UNL     1      23.507   4.264  48.800  1.00  0.00     0.046 A 
HETATM   19  C14 UNL     1      23.595   5.615  49.045  1.00  0.00     0.138 A 
HETATM   20  F1  UNL     1      23.560   6.582  48.116  1.00  0.00    -0.204 F 
HETATM   21  C15 UNL     1      23.730   5.932  50.387  1.00  0.00     0.074 A 
HETATM   22 CL1  UNL     1      23.851   7.623  50.838  1.00  0.00    -0.081 Cl
HETATM   23  C16 UNL     1      23.771   4.988  51.387  1.00  0.00     0.056 A 
ENDBRANCH  14  16
ENDBRANCH  13  14
TORSDOF 2
ENDMDL
MODEL 3
REMARK VINA RESULT:      -7.8      3.909      6.792
REMARK  2 active torsions:
REMARK  status: ('A' for Active; 'I' for Inactive)
REMARK    1  A    between atoms: C10_13  and  N3_14 
REMARK    2  A    between atoms: N3_14  and  C11_15 
ROOT
HETATM    1  C1  UNL     1      22.338  -1.034  53.116  1.00  0.00     0.047 C 
HETATM    2  C2  UNL     1      22.462   0.168  52.525  1.00  0.00    -0.010 C 
HETATM    3  C3  UNL     1      21.362   0.307  51.574  1.00  0.00     0.035 C 
HETATM    4  C4  UNL     1      21.138   1.335  50.792  1.00  0.00     0.136 C 
HETATM    5  O1  UNL     1      21.026   2.466  50.038  1.00  0.00    -0.358 OA
HETATM    6  C5  UNL     1      21.688   2.697  48.794  1.00  0.00     0.130 C 
HETATM    7  C6  UNL     1      20.950   3.827  48.086  1.00  0.00     0.040 C 
HETATM    8  C7  UNL     1      23.082   3.051  48.900  1.00  0.00     0.050 C 
HETATM    9  C8  UNL     1      24.285   3.232  49.342  1.00  0.00     0.141 C 
HETATM   10  N1  UNL     1      24.255   2.742  50.703  1.00  0.00    -0.275 NA
HETATM   11  C9  UNL     1      23.307   3.120  51.529  1.00  0.00     0.229 C 
HETATM   12  N2  UNL     1      23.926   2.315  52.486  1.00  0.00    -0.224 NA
HETATM   13  C10 UNL     1      23.532   1.134  52.840  1.00  0.00     0.135 C 
ENDROOT
BRANCH  13  14
HETATM   14  N3  UNL     1      24.454   0.676  53.852  1.00  0.00    -0.341 N 
HETATM   15  H12 UNL     1      24.110   0.676  54.867  1.00  0.00     0.167 HD
BRANCH  14  16
HETATM   16  C11 UNL     1      25.810   0.219  53.653  1.00  0.00     0.035 A 
HETATM   17  C12 UNL     1      26.131  -0.958  53.018  1.00  0.00     0.032 A 
HETATM   18  C13 UNL     1      27.445  -1.319  52.874  1.00  0.00     0.046 A 
HETATM   19  C14 UNL     1      28.513  -0.578  53.327  1.00  0.00     0.138 A 
HETATM   20  F1  UNL     1      29.806  -0.910  53.196  1.00  0.00    -0.204 F 
HETATM   21  C15 UNL     1      28.148   0.600  53.959  1.00  0.00     0.074 A 
HETATM   22 CL1  UNL     1      29.416   1.640  54.583  1.00  0.00    -0.081 Cl
HETATM   23  C16 UNL     1      26.842   0.997  54.123  1.00  0.00     0.056 A 
ENDBRANCH  14  16
ENDBRANCH  13  14
TORSDOF 2
ENDMDL
MODEL 4
REMARK VINA RESULT:      -7.7      4.011      7.357
REMARK  2 active torsions:
REMARK  status: ('A' for Active; 'I' for Inactive)
REMARK    1  A    between atoms: C10_13  and  N3_14 
REMARK    2  A    between atoms: N3_14  and  C11_15 
ROOT
HETATM    1  C1  UNL     1      26.380   3.709  49.919  1.00  0.00     0.047 C 
HETATM    2  C2  UNL     1      25.188   3.215  50.300  1.00  0.00    -0.010 C 
HETATM    3  C3  UNL     1      24.310   3.234  49.133  1.00  0.00     0.035 C 
HETATM    4  C4  UNL     1      23.059   2.843  49.098  1.00  0.00     0.136 C 
HETATM    5  O1  UNL     1      21.772   2.403  49.205  1.00  0.00    -0.358 OA
HETATM    6  C5  UNL     1      20.664   3.193  49.636  1.00  0.00     0.130 C 
HETATM    7  C6  UNL     1      19.394   2.489  49.174  1.00  0.00     0.040 C 
HETATM    8  C7  UNL     1      20.582   3.406  51.061  1.00  0.00     0.050 C 
HETATM    9  C8  UNL     1      20.866   3.481  52.321  1.00  0.00     0.141 C 
HETATM   10  N1  UNL     1      22.245   3.054  52.415  1.00  0.00    -0.275 NA
HETATM   11  C9  UNL     1      22.644   1.948  51.830  1.00  0.00     0.229 C 
HETATM   12  N2  UNL     1      23.913   2.228  52.338  1.00  0.00    -0.224 NA
HETATM   13  C10 UNL     1      24.894   2.739  51.665  1.00  0.00     0.135 C 
ENDROOT
BRANCH  13  14
HETATM   14  N3  UNL     1      26.008   2.849  52.577  1.00  0.00    -0.341 N 
HETATM   15  H12 UNL     1      26.153   3.793  53.064  1.00  0.00     0.167 HD
BRANCH  14  16
HETATM   16  C11 UNL     1      26.969   1.822  52.907  1.00  0.00     0.035 A 
HETATM   17  C12 UNL     1      28.187   2.079  53.491  1.00  0.00     0.032 A 
HETATM   18  C13 UNL     1      29.042   1.044  53.767  1.00  0.00     0.046 A 
HETATM   19  C14 UNL     1      28.778  -0.280  53.502  1.00  0.00     0.138 A 
HETATM   20  F1  UNL     1      29.599  -1.309  53.764  1.00  0.00    -0.204 F 
HETATM   21  C15 UNL     1      27.542  -0.497  52.914  1.00  0.00     0.074 A 
HETATM   22 CL1  UNL     1      27.080  -2.144  52.525  1.00  0.00    -0.081 Cl
HETATM   23  C16 UNL     1      26.657   0.514  52.621  1.00  0.00     0.056 A 
ENDBRANCH  14  16
ENDBRANCH  13  14
TORSDOF 2
ENDMDL
MODEL 5
REMARK VINA RESULT:      -7.7      4.343      7.070
REMARK  2 active torsions:
REMARK  status: ('A' for Active; 'I' for Inactive)
REMARK    1  A    between atoms: C10_13  and  N3_14 
REMARK    2  A    between atoms: N3_14  and  C11_15 
ROOT
HETATM    1  C1  UNL     1      24.002   3.981  52.299  1.00  0.00     0.047 C 
HETATM    2  C2  UNL     1      23.624   2.699  52.463  1.00  0.00    -0.010 C 
HETATM    3  C3  UNL     1      22.164   2.661  52.418  1.00  0.00     0.035 C 
HETATM    4  C4  UNL     1      21.412   1.596  52.550  1.00  0.00     0.136 C 
HETATM    5  O1  UNL     1      20.755   0.410  52.704  1.00  0.00    -0.358 OA
HETATM    6  C5  UNL     1      20.399  -0.179  53.954  1.00  0.00     0.130 C 
HETATM    7  C6  UNL     1      19.310  -1.209  53.680  1.00  0.00     0.040 C 
HETATM    8  C7  UNL     1      21.481  -0.827  54.656  1.00  0.00     0.050 C 
HETATM    9  C8  UNL     1      22.656  -1.206  55.042  1.00  0.00     0.141 C 
HETATM   10  N1  UNL     1      23.575  -0.497  54.178  1.00  0.00    -0.275 NA
HETATM   11  C9  UNL     1      23.402  -0.494  52.877  1.00  0.00     0.229 C 
HETATM   12  N2  UNL     1      24.550   0.296  52.803  1.00  0.00    -0.224 NA
HETATM   13  C10 UNL     1      24.568   1.579  52.634  1.00  0.00     0.135 C 
ENDROOT
BRANCH  13  14
HETATM   14  N3  UNL     1      25.956   1.975  52.614  1.00  0.00    -0.341 N 
HETATM   15  H12 UNL     1      26.184   2.950  52.233  1.00  0.00     0.167 HD
BRANCH  14  16
HETATM   16  C11 UNL     1      27.092   1.192  53.046  1.00  0.00     0.035 A 
HETATM   17  C12 UNL     1      28.163   1.719  53.727  1.00  0.00     0.032 A 
HETATM   18  C13 UNL     1      29.203   0.906  54.097  1.00  0.00     0.046 A 
HETATM   19  C14 UNL     1      29.270  -0.444  53.835  1.00  0.00     0.138 A 
HETATM   20  F1  UNL     1      30.276  -1.259  54.188  1.00  0.00    -0.204 F 
HETATM   21  C15 UNL     1      28.173  -0.935  53.148  1.00  0.00     0.074 A 
HETATM   22 CL1  UNL     1      28.132  -2.644  52.752  1.00  0.00    -0.081 Cl
HETATM   23  C16 UNL     1      27.110  -0.152  52.760  1.00  0.00     0.056 A 
ENDBRANCH  14  16
ENDBRANCH  13  14
TORSDOF 2
ENDMDL
MODEL 6
REMARK VINA RESULT:      -7.4      4.004      6.845
REMARK  2 active torsions:
REMARK  status: ('A' for Active; 'I' for Inactive)
REMARK    1  A    between atoms: C10_13  and  N3_14 
REMARK    2  A    between atoms: N3_14  and  C11_15 
ROOT
HETATM    1  C1  UNL     1      21.988   0.355  51.798  1.00  0.00     0.047 C 
HETATM    2  C2  UNL     1      22.404   1.606  51.528  1.00  0.00    -0.010 C 
HETATM    3  C3  UNL     1      21.622   2.095  50.394  1.00  0.00     0.035 C 
HETATM    4  C4  UNL     1      21.736   3.269  49.823  1.00  0.00     0.136 C 
HETATM    5  O1  UNL     1      21.962   4.519  49.326  1.00  0.00    -0.358 OA
HETATM    6  C5  UNL     1      22.955   4.856  48.358  1.00  0.00     0.130 C 
HETATM    7  C6  UNL     1      22.569   6.201  47.756  1.00  0.00     0.040 C 
HETATM    8  C7  UNL     1      24.301   4.948  48.869  1.00  0.00     0.050 C 
HETATM    9  C8  UNL     1      25.353   4.844  49.615  1.00  0.00     0.141 C 
HETATM   10  N1  UNL     1      24.903   4.130  50.791  1.00  0.00    -0.275 NA
HETATM   11  C9  UNL     1      23.818   4.507  51.427  1.00  0.00     0.229 C 
HETATM   12  N2  UNL     1      24.060   3.451  52.306  1.00  0.00    -0.224 NA
HETATM   13  C10 UNL     1      23.453   2.308  52.292  1.00  0.00     0.135 C 
ENDROOT
BRANCH  13  14
HETATM   14  N3  UNL     1      24.010   1.529  53.372  1.00  0.00    -0.341 N 
HETATM   15  H12 UNL     1      23.384   1.349  54.223  1.00  0.00     0.167 HD
BRANCH  14  16
HETATM   16  C11 UNL     1      25.338   0.963  53.443  1.00  0.00     0.035 A 
HETATM   17  C12 UNL     1      26.413   1.613  54.003  1.00  0.00     0.032 A 
HETATM   18  C13 UNL     1      27.641   1.005  54.025  1.00  0.00     0.046 A 
HETATM   19  C14 UNL     1      27.902  -0.247  53.517  1.00  0.00     0.138 A 
HETATM   20  F1  UNL     1      29.095  -0.862  53.529  1.00  0.00    -0.204 F 
HETATM   21  C15 UNL     1      26.795  -0.868  52.963  1.00  0.00     0.074 A 
HETATM   22 CL1  UNL     1      26.991  -2.471  52.280  1.00  0.00    -0.081 Cl
HETATM   23  C16 UNL     1      25.547  -0.291  52.922  1.00  0.00     0.056 A 
ENDBRANCH  14  16
ENDBRANCH  13  14
TORSDOF 2
ENDMDL
MODEL 7
REMARK VINA RESULT:      -7.3      4.383      7.530
REMARK  2 active torsions:
REMARK  status: ('A' for Active; 'I' for Inactive)
REMARK    1  A    between atoms: C10_13  and  N3_14 
REMARK    2  A    between atoms: N3_14  and  C11_15 
ROOT
HETATM    1  C1  UNL     1      27.345   4.751  48.940  1.00  0.00     0.047 C 
HETATM    2  C2  UNL     1      26.047   4.604  49.261  1.00  0.00    -0.010 C 
HETATM    3  C3  UNL     1      25.334   5.778  48.764  1.00  0.00     0.035 C 
HETATM    4  C4  UNL     1      24.051   6.016  48.888  1.00  0.00     0.136 C 
HETATM    5  O1  UNL     1      22.707   6.135  49.089  1.00  0.00    -0.358 OA
HETATM    6  C5  UNL     1      22.093   6.672  50.260  1.00  0.00     0.130 C 
HETATM    7  C6  UNL     1      20.661   7.047  49.894  1.00  0.00     0.040 C 
HETATM    8  C7  UNL     1      22.062   5.783  51.397  1.00  0.00     0.050 C 
HETATM    9  C8  UNL     1      22.293   4.806  52.211  1.00  0.00     0.141 C 
HETATM   10  N1  UNL     1      23.296   4.001  51.548  1.00  0.00    -0.275 NA
HETATM   11  C9  UNL     1      23.143   3.643  50.294  1.00  0.00     0.229 C 
HETATM   12  N2  UNL     1      24.370   2.987  50.413  1.00  0.00    -0.224 NA
HETATM   13  C10 UNL     1      25.503   3.432  49.973  1.00  0.00     0.135 C 
ENDROOT
BRANCH  13  14
HETATM   14  N3  UNL     1      26.495   2.437  50.305  1.00  0.00    -0.341 N 
HETATM   15  H12 UNL     1      27.175   2.142  49.531  1.00  0.00     0.167 HD
BRANCH  14  16
HETATM   16  C11 UNL     1      26.674   1.777  51.578  1.00  0.00     0.035 A 
HETATM   17  C12 UNL     1      26.797   2.447  52.772  1.00  0.00     0.032 A 
HETATM   18  C13 UNL     1      26.969   1.743  53.935  1.00  0.00     0.046 A 
HETATM   19  C14 UNL     1      27.031   0.371  54.016  1.00  0.00     0.138 A 
HETATM   20  F1  UNL     1      27.197  -0.340  55.142  1.00  0.00    -0.204 F 
HETATM   21  C15 UNL     1      26.902  -0.267  52.793  1.00  0.00     0.074 A 
HETATM   22 CL1  UNL     1      26.962  -2.020  52.755  1.00  0.00    -0.081 Cl
HETATM   23  C16 UNL     1      26.729   0.403  51.604  1.00  0.00     0.056 A 
ENDBRANCH  14  16
ENDBRANCH  13  14
TORSDOF 2
ENDMDL
MODEL 8
REMARK VINA RESULT:      -7.2      3.092      4.079
REMARK  2 active torsions:
REMARK  status: ('A' for Active; 'I' for Inactive)
REMARK    1  A    between atoms: C10_13  and  N3_14 
REMARK    2  A    between atoms: N3_14  and  C11_15 
ROOT
HETATM    1  C1  UNL     1      24.031   3.488  49.275  1.00  0.00     0.047 C 
HETATM    2  C2  UNL     1      24.545   3.145  50.470  1.00  0.00    -0.010 C 
HETATM    3  C3  UNL     1      25.984   2.960  50.293  1.00  0.00     0.035 C 
HETATM    4  C4  UNL     1      26.840   2.611  51.222  1.00  0.00     0.136 C 
HETATM    5  O1  UNL     1      27.617   2.244  52.282  1.00  0.00    -0.358 OA
HETATM    6  C5  UNL     1      27.836   0.903  52.718  1.00  0.00     0.130 C 
HETATM    7  C6  UNL     1      29.085   0.904  53.592  1.00  0.00     0.040 C 
HETATM    8  C7  UNL     1      26.750   0.317  53.467  1.00  0.00     0.050 C 
HETATM    9  C8  UNL     1      25.589   0.083  53.987  1.00  0.00     0.141 C 
HETATM   10  N1  UNL     1      24.739   1.142  53.488  1.00  0.00    -0.275 NA
HETATM   11  C9  UNL     1      25.125   2.396  53.556  1.00  0.00     0.229 C 
HETATM   12  N2  UNL     1      23.909   2.722  52.953  1.00  0.00    -0.224 NA
HETATM   13  C10 UNL     1      23.747   3.014  51.703  1.00  0.00     0.135 C 
ENDROOT
BRANCH  13  14
HETATM   14  N3  UNL     1      22.341   3.287  51.521  1.00  0.00    -0.341 N 
HETATM   15  H12 UNL     1      22.034   4.314  51.529  1.00  0.00     0.167 HD
BRANCH  14  16
HETATM   16  C11 UNL     1      21.282   2.321  51.334  1.00  0.00     0.035 A 
HETATM   17  C12 UNL     1      20.534   2.226  50.184  1.00  0.00     0.032 A 
HETATM   18  C13 UNL     1      19.545   1.282  50.092  1.00  0.00     0.046 A 
HETATM   19  C14 UNL     1      19.222   0.387  51.086  1.00  0.00     0.138 A 
HETATM   20  F1  UNL     1      18.260  -0.545  51.018  1.00  0.00    -0.204 F 
HETATM   21  C15 UNL     1      19.998   0.516  52.227  1.00  0.00     0.074 A 
HETATM   22 CL1  UNL     1      19.691  -0.567  53.572  1.00  0.00    -0.081 Cl
HETATM   23  C16 UNL     1      21.000   1.450  52.358  1.00  0.00     0.056 A 
ENDBRANCH  14  16
ENDBRANCH  13  14
TORSDOF 2
ENDMDL
MODEL 9
REMARK VINA RESULT:      -7.1      2.066      3.489
REMARK  2 active torsions:
REMARK  status: ('A' for Active; 'I' for Inactive)
REMARK    1  A    between atoms: C10_13  and  N3_14 
REMARK    2  A    between atoms: N3_14  and  C11_15 
ROOT
HETATM    1  C1  UNL     1      26.659   3.606  49.648  1.00  0.00     0.047 C 
HETATM    2  C2  UNL     1      25.923   3.146  50.677  1.00  0.00    -0.010 C 
HETATM    3  C3  UNL     1      26.768   2.242  51.453  1.00  0.00     0.035 C 
HETATM    4  C4  UNL     1      26.414   1.582  52.529  1.00  0.00     0.136 C 
HETATM    5  O1  UNL     1      25.912   0.958  53.633  1.00  0.00    -0.358 OA
HETATM    6  C5  UNL     1      25.182  -0.268  53.626  1.00  0.00     0.130 C 
HETATM    7  C6  UNL     1      25.221  -0.832  55.042  1.00  0.00     0.040 C 
HETATM    8  C7  UNL     1      23.804  -0.158  53.212  1.00  0.00     0.050 C 
HETATM    9  C8  UNL     1      22.691   0.273  52.711  1.00  0.00     0.141 C 
HETATM   10  N1  UNL     1      23.012   1.573  52.164  1.00  0.00    -0.275 NA
HETATM   11  C9  UNL     1      23.667   2.458  52.880  1.00  0.00     0.229 C 
HETATM   12  N2  UNL     1      23.574   3.307  51.777  1.00  0.00    -0.224 NA
HETATM   13  C10 UNL     1      24.524   3.539  50.928  1.00  0.00     0.135 C 
ENDROOT
BRANCH  13  14
HETATM   14  N3  UNL     1      23.996   4.474  49.963  1.00  0.00    -0.341 N 
HETATM   15  H12 UNL     1      24.153   5.517  50.151  1.00  0.00     0.167 HD
BRANCH  14  16
HETATM   16  C11 UNL     1      23.263   4.161  48.758  1.00  0.00     0.035 A 
HETATM   17  C12 UNL     1      22.871   2.888  48.415  1.00  0.00     0.032 A 
HETATM   18  C13 UNL     1      22.181   2.677  47.250  1.00  0.00     0.046 A 
HETATM   19  C14 UNL     1      21.833   3.666  46.358  1.00  0.00     0.138 A 
HETATM   20  F1  UNL     1      21.158   3.484  45.213  1.00  0.00    -0.204 F 
HETATM   21  C15 UNL     1      22.245   4.933  46.739  1.00  0.00     0.074 A 
HETATM   22 CL1  UNL     1      21.863   6.286  45.691  1.00  0.00    -0.081 Cl
HETATM   23  C16 UNL     1      22.939   5.185  47.900  1.00  0.00     0.056 A 
ENDBRANCH  14  16
ENDBRANCH  13  14
TORSDOF 2
ENDMDL
