MODEL 1
REMARK VINA RESULT:      -9.2      0.000      0.000
REMARK  3 active torsions:
REMARK  status: ('A' for Active; 'I' for Inactive)
REMARK    1  A    between atoms: N1_2  and  C2_3 
REMARK    2  A    between atoms: C12_13  and  C13_14 
REMARK    3  A    between atoms: C23_27  and  O3_28 
ROOT
HETATM    1  C2  UNL     1      24.551   3.857  51.579  1.00  0.00     0.112 C 
HETATM    2  C3  UNL     1      25.954   3.204  51.489  1.00  0.00     0.063 C 
HETATM    3  C4  UNL     1      25.752   1.782  51.991  1.00  0.00     0.146 C 
HETATM    4  C5  UNL     1      27.021   1.212  52.443  1.00  0.00    -0.011 C 
HETATM    5  C6  UNL     1      27.475   0.468  53.684  1.00  0.00    -0.005 A 
HETATM    6  C7  UNL     1      28.736   0.309  53.354  1.00  0.00    -0.004 A 
HETATM    7  C8  UNL     1      28.476   0.402  54.771  1.00  0.00     0.021 A 
HETATM    8  C9  UNL     1      26.970   0.585  55.233  1.00  0.00     0.021 A 
HETATM    9  C10 UNL     1      26.006   0.647  54.164  1.00  0.00     0.001 A 
HETATM   10  C11 UNL     1      27.339   0.482  53.784  1.00  0.00    -0.004 A 
HETATM   11  C12 UNL     1      26.385  -0.524  53.382  1.00  0.00     0.027 A 
HETATM   12  C14 UNL     1      25.140  -1.240  53.144  1.00  0.00    -0.012 C 
HETATM   13  C15 UNL     1      23.935  -0.763  53.445  1.00  0.00     0.010 C 
HETATM   14  C16 UNL     1      22.494  -0.649  53.599  1.00  0.00    -0.010 A 
HETATM   15  C17 UNL     1      21.774  -1.568  54.311  1.00  0.00     0.013 A 
HETATM   16  C18 UNL     1      20.441  -1.329  54.308  1.00  0.00     0.001 A 
HETATM   17  C19 UNL     1      19.885  -0.271  53.657  1.00  0.00     0.002 A 
HETATM   18  C20 UNL     1      20.596   0.638  52.964  1.00  0.00     0.030 A 
HETATM   19  C21 UNL     1      21.976   0.482  52.892  1.00  0.00     0.040 A 
HETATM   20  N2  UNL     1      22.920   1.348  52.196  1.00  0.00    -0.361 N 
HETATM   21  C22 UNL     1      23.704   1.598  51.040  1.00  0.00     0.253 C 
HETATM   22  O2  UNL     1      25.021   1.071  51.076  1.00  0.00    -0.355 OA
HETATM   23  C23 UNL     1      23.680   3.066  50.661  1.00  0.00     0.191 C 
HETATM   24  H19 UNL     1      23.075   2.166  52.867  1.00  0.00     0.162 HD
ENDROOT
BRANCH   1  25
HETATM   25  N1  UNL     1      24.672   5.235  51.304  1.00  0.00    -0.419 N 
HETATM   26  C1  UNL     1      25.269   5.593  50.058  1.00  0.00     0.140 C 
HETATM   27  H4  UNL     1      24.758   5.885  52.084  1.00  0.00     0.153 HD
ENDBRANCH   1  25
BRANCH  23  28
HETATM   28  O3  UNL     1      22.328   3.459  50.831  1.00  0.00    -0.384 OA
HETATM   29  C24 UNL     1      21.725   3.826  49.644  1.00  0.00     0.202 C 
ENDBRANCH  23  28
BRANCH  11  30
HETATM   30  C13 UNL     1      27.107  -1.582  52.597  1.00  0.00     0.406 C 
HETATM   31  O1  UNL     1      27.388  -2.770  52.327  1.00  0.00    -0.429 OA
ENDBRANCH  11  30
TORSDOF 3
ENDMDL
MODEL 2
REMARK VINA RESULT:      -8.8      1.760      4.938
REMARK  3 active torsions:
REMARK  status: ('A' for Active; 'I' for Inactive)
REMARK    1  A    between atoms: N1_2  and  C2_3 
REMARK    2  A    between atoms: C12_13  and  C13_14 
REMARK    3  A    between atoms: C23_27  and  O3_28 
ROOT
HETATM    1  C2  UNL     1      21.817   0.906  52.024  1.00  0.00     0.112 C 
HETATM    2  C3  UNL     1      22.678   0.213  53.112  1.00  0.00     0.063 C 
HETATM    3  C4  UNL     1      24.064   0.821  52.952  1.00  0.00     0.146 C 
HETATM    4  C5  UNL     1      25.080  -0.059  53.530  1.00  0.00    -0.011 C 
HETATM    5  C6  UNL     1      26.412  -0.606  53.056  1.00  0.00    -0.005 A 
HETATM    6  C7  UNL     1      26.707  -1.321  54.117  1.00  0.00    -0.004 A 
HETATM    7  C8  UNL     1      27.237  -1.820  52.871  1.00  0.00     0.021 A 
HETATM    8  C9  UNL     1      26.923  -0.994  51.553  1.00  0.00     0.021 A 
HETATM    9  C10 UNL     1      26.119   0.185  51.749  1.00  0.00     0.001 A 
HETATM   10  C11 UNL     1      26.413  -0.558  52.893  1.00  0.00    -0.004 A 
HETATM   11  C12 UNL     1      26.828   0.824  52.851  1.00  0.00     0.027 A 
HETATM   12  C14 UNL     1      27.004   2.208  52.437  1.00  0.00    -0.012 C 
HETATM   13  C15 UNL     1      26.441   2.741  51.355  1.00  0.00     0.010 C 
HETATM   14  C16 UNL     1      26.055   3.693  50.326  1.00  0.00    -0.010 A 
HETATM   15  C17 UNL     1      26.986   4.349  49.569  1.00  0.00     0.013 A 
HETATM   16  C18 UNL     1      26.447   5.230  48.694  1.00  0.00     0.001 A 
HETATM   17  C19 UNL     1      25.105   5.433  48.587  1.00  0.00     0.002 A 
HETATM   18  C20 UNL     1      24.189   4.781  49.327  1.00  0.00     0.030 A 
HETATM   19  C21 UNL     1      24.635   3.858  50.267  1.00  0.00     0.040 A 
HETATM   20  N2  UNL     1      23.812   3.052  51.162  1.00  0.00    -0.361 N 
HETATM   21  C22 UNL     1      23.249   2.875  52.451  1.00  0.00     0.253 C 
HETATM   22  O2  UNL     1      24.042   2.128  53.362  1.00  0.00    -0.355 OA
HETATM   23  C23 UNL     1      21.826   2.357  52.369  1.00  0.00     0.191 C 
HETATM   24  H19 UNL     1      23.482   2.236  50.556  1.00  0.00     0.162 HD
ENDROOT
BRANCH   1  25
HETATM   25  N1  UNL     1      20.555   0.276  51.974  1.00  0.00    -0.419 N 
HETATM   26  C1  UNL     1      20.036  -0.225  53.205  1.00  0.00     0.140 C 
HETATM   27  H4  UNL     1      20.269  -0.179  51.109  1.00  0.00     0.153 HD
ENDBRANCH   1  25
BRANCH  23  28
HETATM   28  O3  UNL     1      21.234   3.100  51.315  1.00  0.00    -0.384 OA
HETATM   29  C24 UNL     1      20.070   3.737  51.699  1.00  0.00     0.202 C 
ENDBRANCH  23  28
BRANCH  11  30
HETATM   30  C13 UNL     1      27.528   1.154  54.139  1.00  0.00     0.406 C 
HETATM   31  O1  UNL     1      28.544   1.424  54.815  1.00  0.00    -0.429 OA
ENDBRANCH  11  30
TORSDOF 3
ENDMDL
MODEL 3
REMARK VINA RESULT:      -8.6      1.879      5.516
REMARK  3 active torsions:
REMARK  status: ('A' for Active; 'I' for Inactive)
REMARK    1  A    between atoms: N1_2  and  C2_3 
REMARK    2  A    between atoms: C12_13  and  C13_14 
REMARK    3  A    between atoms: C23_27  and  O3_28 
ROOT
HETATM    1  C2  UNL     1      25.843   0.129  52.370  1.00  0.00     0.112 C 
HETATM    2  C3  UNL     1      25.871   1.530  51.707  1.00  0.00     0.063 C 
HETATM    3  C4  UNL     1      24.409   1.948  51.626  1.00  0.00     0.146 C 
HETATM    4  C5  UNL     1      24.225   2.974  50.599  1.00  0.00    -0.011 C 
HETATM    5  C6  UNL     1      23.257   3.169  49.449  1.00  0.00    -0.005 A 
HETATM    6  C7  UNL     1      23.739   4.302  48.992  1.00  0.00    -0.004 A 
HETATM    7  C8  UNL     1      23.119   3.452  48.003  1.00  0.00     0.021 A 
HETATM    8  C9  UNL     1      22.509   2.074  48.496  1.00  0.00     0.021 A 
HETATM    9  C10 UNL     1      22.650   1.812  49.905  1.00  0.00     0.001 A 
HETATM   10  C11 UNL     1      23.175   3.021  49.447  1.00  0.00    -0.004 A 
HETATM   11  C12 UNL     1      22.158   3.063  50.470  1.00  0.00     0.027 A 
HETATM   12  C14 UNL     1      21.200   2.667  51.492  1.00  0.00    -0.012 C 
HETATM   13  C15 UNL     1      21.013   1.413  51.894  1.00  0.00     0.010 C 
HETATM   14  C16 UNL     1      20.501   0.253  52.604  1.00  0.00    -0.010 A 
HETATM   15  C17 UNL     1      19.171  -0.068  52.589  1.00  0.00     0.013 A 
HETATM   16  C18 UNL     1      18.868  -1.152  53.342  1.00  0.00     0.001 A 
HETATM   17  C19 UNL     1      19.807  -1.849  54.039  1.00  0.00     0.002 A 
HETATM   18  C20 UNL     1      21.117  -1.538  54.046  1.00  0.00     0.030 A 
HETATM   19  C21 UNL     1      21.537  -0.433  53.313  1.00  0.00     0.040 A 
HETATM   20  N2  UNL     1      22.901   0.069  53.190  1.00  0.00    -0.361 N 
HETATM   21  C22 UNL     1      23.890   0.993  53.614  1.00  0.00     0.253 C 
HETATM   22  O2  UNL     1      23.936   2.210  52.885  1.00  0.00    -0.355 OA
HETATM   23  C23 UNL     1      25.252   0.335  53.724  1.00  0.00     0.191 C 
HETATM   24  H19 UNL     1      23.349  -0.558  52.450  1.00  0.00     0.162 HD
ENDROOT
BRANCH   1  25
HETATM   25  N1  UNL     1      27.141  -0.421  52.324  1.00  0.00    -0.419 N 
HETATM   26  C1  UNL     1      28.088   0.085  53.264  1.00  0.00     0.140 C 
HETATM   27  H4  UNL     1      27.489  -0.784  51.438  1.00  0.00     0.153 HD
ENDBRANCH   1  25
BRANCH  23  28
HETATM   28  O3  UNL     1      24.996  -0.922  54.329  1.00  0.00    -0.384 OA
HETATM   29  C24 UNL     1      25.226  -0.915  55.691  1.00  0.00     0.202 C 
ENDBRANCH  23  28
BRANCH  11  30
HETATM   30  C13 UNL     1      21.889   4.499  50.818  1.00  0.00     0.406 C 
HETATM   31  O1  UNL     1      21.706   5.431  51.631  1.00  0.00    -0.429 OA
ENDBRANCH  11  30
TORSDOF 3
ENDMDL
MODEL 4
REMARK VINA RESULT:      -7.9      2.992      5.260
REMARK  3 active torsions:
REMARK  status: ('A' for Active; 'I' for Inactive)
REMARK    1  A    between atoms: N1_2  and  C2_3 
REMARK    2  A    between atoms: C12_13  and  C13_14 
REMARK    3  A    between atoms: C23_27  and  O3_28 
ROOT
HETATM    1  C2  UNL     1      18.810   2.937  50.675  1.00  0.00     0.112 C 
HETATM    2  C3  UNL     1      19.857   3.761  49.883  1.00  0.00     0.063 C 
HETATM    3  C4  UNL     1      21.203   3.232  50.355  1.00  0.00     0.146 C 
HETATM    4  C5  UNL     1      22.258   4.215  50.105  1.00  0.00    -0.011 C 
HETATM    5  C6  UNL     1      23.381   4.808  50.933  1.00  0.00    -0.005 A 
HETATM    6  C7  UNL     1      23.874   5.617  50.023  1.00  0.00    -0.004 A 
HETATM    7  C8  UNL     1      24.035   6.054  51.390  1.00  0.00     0.021 A 
HETATM    8  C9  UNL     1      23.469   5.115  52.535  1.00  0.00     0.021 A 
HETATM    9  C10 UNL     1      22.835   3.905  52.076  1.00  0.00     0.001 A 
HETATM   10  C11 UNL     1      23.346   4.747  51.087  1.00  0.00    -0.004 A 
HETATM   11  C12 UNL     1      23.846   3.395  51.157  1.00  0.00     0.027 A 
HETATM   12  C14 UNL     1      24.022   1.998  51.524  1.00  0.00    -0.012 C 
HETATM   13  C15 UNL     1      23.252   1.352  52.396  1.00  0.00     0.010 C 
HETATM   14  C16 UNL     1      22.698   0.304  53.237  1.00  0.00    -0.010 A 
HETATM   15  C17 UNL     1      23.460  -0.346  54.168  1.00  0.00     0.013 A 
HETATM   16  C18 UNL     1      22.791  -1.322  54.827  1.00  0.00     0.001 A 
HETATM   17  C19 UNL     1      21.486  -1.617  54.577  1.00  0.00     0.002 A 
HETATM   18  C20 UNL     1      20.734  -0.971  53.666  1.00  0.00     0.030 A 
HETATM   19  C21 UNL     1      21.326   0.046  52.924  1.00  0.00     0.040 A 
HETATM   20  N2  UNL     1      20.691   0.862  51.895  1.00  0.00    -0.361 N 
HETATM   21  C22 UNL     1      20.456   1.099  50.517  1.00  0.00     0.253 C 
HETATM   22  O2  UNL     1      21.389   1.960  49.882  1.00  0.00    -0.355 OA
HETATM   23  C23 UNL     1      19.021   1.518  50.263  1.00  0.00     0.191 C 
HETATM   24  H19 UNL     1      20.156   1.609  52.442  1.00  0.00     0.162 HD
ENDROOT
BRANCH   1  25
HETATM   25  N1  UNL     1      17.530   3.480  50.437  1.00  0.00    -0.419 N 
HETATM   26  C1  UNL     1      16.833   4.005  51.566  1.00  0.00     0.140 C 
HETATM   27  H4  UNL     1      16.982   3.119  49.657  1.00  0.00     0.153 HD
ENDBRANCH   1  25
BRANCH  23  28
HETATM   28  O3  UNL     1      18.246   0.663  51.088  1.00  0.00    -0.384 OA
HETATM   29  C24 UNL     1      17.348  -0.102  50.370  1.00  0.00     0.202 C 
ENDBRANCH  23  28
BRANCH  11  30
HETATM   30  C13 UNL     1      24.869   3.207  50.073  1.00  0.00     0.406 C 
HETATM   31  O1  UNL     1      26.015   2.922  49.662  1.00  0.00    -0.429 OA
ENDBRANCH  11  30
TORSDOF 3
ENDMDL
MODEL 5
REMARK VINA RESULT:      -7.8      2.061      5.789
REMARK  3 active torsions:
REMARK  status: ('A' for Active; 'I' for Inactive)
REMARK    1  A    between atoms: N1_2  and  C2_3 
REMARK    2  A    between atoms: C12_13  and  C13_14 
REMARK    3  A    between atoms: C23_27  and  O3_28 
ROOT
HETATM    1  C2  UNL     1      25.558   2.639  51.036  1.00  0.00     0.112 C 
HETATM    2  C3  UNL     1      24.485   3.599  50.461  1.00  0.00     0.063 C 
HETATM    3  C4  UNL     1      23.170   3.101  51.042  1.00  0.00     0.146 C 
HETATM    4  C5  UNL     1      22.043   3.553  50.225  1.00  0.00    -0.011 C 
HETATM    5  C6  UNL     1      20.823   2.882  49.625  1.00  0.00    -0.005 A 
HETATM    6  C7  UNL     1      20.310   3.932  49.027  1.00  0.00    -0.004 A 
HETATM    7  C8  UNL     1      20.031   2.665  48.395  1.00  0.00     0.021 A 
HETATM    8  C9  UNL     1      20.616   1.357  49.075  1.00  0.00     0.021 A 
HETATM    9  C10 UNL     1      21.386   1.584  50.272  1.00  0.00     0.001 A 
HETATM   10  C11 UNL     1      20.856   2.718  49.656  1.00  0.00    -0.004 A 
HETATM   11  C12 UNL     1      20.482   2.447  51.023  1.00  0.00     0.027 A 
HETATM   12  C14 UNL     1      20.417   1.861  52.354  1.00  0.00    -0.012 C 
HETATM   13  C15 UNL     1      21.194   0.863  52.770  1.00  0.00     0.010 C 
HETATM   14  C16 UNL     1      21.794  -0.162  53.606  1.00  0.00    -0.010 A 
HETATM   15  C17 UNL     1      21.045  -1.156  54.173  1.00  0.00     0.013 A 
HETATM   16  C18 UNL     1      21.764  -1.993  54.958  1.00  0.00     0.001 A 
HETATM   17  C19 UNL     1      23.103  -1.850  55.153  1.00  0.00     0.002 A 
HETATM   18  C20 UNL     1      23.842  -0.877  54.588  1.00  0.00     0.030 A 
HETATM   19  C21 UNL     1      23.201   0.048  53.770  1.00  0.00     0.040 A 
HETATM   20  N2  UNL     1      23.814   1.170  53.069  1.00  0.00    -0.361 N 
HETATM   21  C22 UNL     1      24.104   2.558  53.034  1.00  0.00     0.253 C 
HETATM   22  O2  UNL     1      23.132   3.364  52.386  1.00  0.00    -0.355 OA
HETATM   23  C23 UNL     1      25.505   2.818  52.516  1.00  0.00     0.191 C 
HETATM   24  H19 UNL     1      24.244   0.733  52.193  1.00  0.00     0.162 HD
ENDROOT
BRANCH   1  25
HETATM   25  N1  UNL     1      26.793   2.910  50.411  1.00  0.00    -0.419 N 
HETATM   26  C1  UNL     1      26.777   3.846  49.333  1.00  0.00     0.140 C 
HETATM   27  H4  UNL     1      27.511   2.188  50.411  1.00  0.00     0.153 HD
ENDBRANCH   1  25
BRANCH  23  28
HETATM   28  O3  UNL     1      26.309   1.832  53.144  1.00  0.00    -0.384 OA
HETATM   29  C24 UNL     1      27.526   2.326  53.571  1.00  0.00     0.202 C 
ENDBRANCH  23  28
BRANCH  11  30
HETATM   30  C13 UNL     1      19.545   3.525  51.487  1.00  0.00     0.406 C 
HETATM   31  O1  UNL     1      18.459   3.929  51.957  1.00  0.00    -0.429 OA
ENDBRANCH  11  30
TORSDOF 3
ENDMDL
MODEL 6
REMARK VINA RESULT:      -7.8      8.387     11.951
REMARK  3 active torsions:
REMARK  status: ('A' for Active; 'I' for Inactive)
REMARK    1  A    between atoms: N1_2  and  C2_3 
REMARK    2  A    between atoms: C12_13  and  C13_14 
REMARK    3  A    between atoms: C23_27  and  O3_28 
ROOT
HETATM    1  C2  UNL     1      28.993   6.874  47.954  1.00  0.00     0.112 C 
HETATM    2  C3  UNL     1      29.804   5.675  48.512  1.00  0.00     0.063 C 
HETATM    3  C4  UNL     1      31.245   5.967  48.117  1.00  0.00     0.146 C 
HETATM    4  C5  UNL     1      32.034   4.735  48.112  1.00  0.00    -0.011 C 
HETATM    5  C6  UNL     1      33.000   4.091  47.136  1.00  0.00    -0.005 A 
HETATM    6  C7  UNL     1      33.274   3.011  47.833  1.00  0.00    -0.004 A 
HETATM    7  C8  UNL     1      33.350   2.858  46.399  1.00  0.00     0.021 A 
HETATM    8  C9  UNL     1      33.039   4.129  45.504  1.00  0.00     0.021 A 
HETATM    9  C10 UNL     1      32.700   5.323  46.235  1.00  0.00     0.001 A 
HETATM   10  C11 UNL     1      32.983   4.190  47.000  1.00  0.00    -0.004 A 
HETATM   11  C12 UNL     1      33.787   5.371  47.206  1.00  0.00     0.027 A 
HETATM   12  C14 UNL     1      34.294   6.734  47.143  1.00  0.00    -0.012 C 
HETATM   13  C15 UNL     1      33.711   7.716  46.459  1.00  0.00     0.010 C 
HETATM   14  C16 UNL     1      33.433   9.021  45.884  1.00  0.00    -0.010 A 
HETATM   15  C17 UNL     1      34.342   9.662  45.088  1.00  0.00     0.013 A 
HETATM   16  C18 UNL     1      33.933  10.887  44.680  1.00  0.00     0.001 A 
HETATM   17  C19 UNL     1      32.729  11.416  45.033  1.00  0.00     0.002 A 
HETATM   18  C20 UNL     1      31.832  10.780  45.809  1.00  0.00     0.030 A 
HETATM   19  C21 UNL     1      32.155   9.517  46.294  1.00  0.00     0.040 A 
HETATM   20  N2  UNL     1      31.329   8.668  47.144  1.00  0.00    -0.361 N 
HETATM   21  C22 UNL     1      31.022   8.197  48.446  1.00  0.00     0.253 C 
HETATM   22  O2  UNL     1      31.716   7.026  48.847  1.00  0.00    -0.355 OA
HETATM   23  C23 UNL     1      29.525   8.079  48.654  1.00  0.00     0.191 C 
HETATM   24  H19 UNL     1      30.643   8.203  46.468  1.00  0.00     0.162 HD
ENDROOT
BRANCH   1  25
HETATM   25  N1  UNL     1      27.618   6.605  48.114  1.00  0.00    -0.419 N 
HETATM   26  C1  UNL     1      27.265   5.304  48.583  1.00  0.00     0.140 C 
HETATM   27  H4  UNL     1      26.950   7.104  47.528  1.00  0.00     0.153 HD
ENDBRANCH   1  25
BRANCH  23  28
HETATM   28  O3  UNL     1      28.986   9.250  48.060  1.00  0.00    -0.384 OA
HETATM   29  C24 UNL     1      28.539  10.164  48.994  1.00  0.00     0.202 C 
ENDBRANCH  23  28
BRANCH  11  30
HETATM   30  C13 UNL     1      34.808   5.075  48.268  1.00  0.00     0.406 C 
HETATM   31  O1  UNL     1      35.418   5.334  49.329  1.00  0.00    -0.429 OA
ENDBRANCH  11  30
TORSDOF 3
ENDMDL
MODEL 7
REMARK VINA RESULT:      -7.5      2.417      5.884
REMARK  3 active torsions:
REMARK  status: ('A' for Active; 'I' for Inactive)
REMARK    1  A    between atoms: N1_2  and  C2_3 
REMARK    2  A    between atoms: C12_13  and  C13_14 
REMARK    3  A    between atoms: C23_27  and  O3_28 
ROOT
HETATM    1  C2  UNL     1      22.542   5.196  49.997  1.00  0.00     0.112 C 
HETATM    2  C3  UNL     1      21.170   4.769  50.581  1.00  0.00     0.063 C 
HETATM    3  C4  UNL     1      21.473   3.527  51.407  1.00  0.00     0.146 C 
HETATM    4  C5  UNL     1      20.261   2.729  51.596  1.00  0.00    -0.011 C 
HETATM    5  C6  UNL     1      19.915   1.261  51.439  1.00  0.00    -0.005 A 
HETATM    6  C7  UNL     1      18.647   1.333  51.775  1.00  0.00    -0.004 A 
HETATM    7  C8  UNL     1      18.979   0.285  50.840  1.00  0.00     0.021 A 
HETATM    8  C9  UNL     1      20.496   0.141  50.402  1.00  0.00     0.021 A 
HETATM    9  C10 UNL     1      21.396   1.098  50.994  1.00  0.00     0.001 A 
HETATM   10  C11 UNL     1      20.055   1.201  51.366  1.00  0.00    -0.004 A 
HETATM   11  C12 UNL     1      21.036   0.983  52.402  1.00  0.00     0.027 A 
HETATM   12  C14 UNL     1      22.300   0.832  53.106  1.00  0.00    -0.012 C 
HETATM   13  C15 UNL     1      23.494   0.971  52.535  1.00  0.00     0.010 C 
HETATM   14  C16 UNL     1      24.933   1.025  52.340  1.00  0.00    -0.010 A 
HETATM   15  C17 UNL     1      25.738  -0.041  52.633  1.00  0.00     0.013 A 
HETATM   16  C18 UNL     1      27.055   0.204  52.435  1.00  0.00     0.001 A 
HETATM   17  C19 UNL     1      27.520   1.402  51.983  1.00  0.00     0.002 A 
HETATM   18  C20 UNL     1      26.726   2.448  51.687  1.00  0.00     0.030 A 
HETATM   19  C21 UNL     1      25.354   2.308  51.865  1.00  0.00     0.040 A 
HETATM   20  N2  UNL     1      24.330   3.313  51.605  1.00  0.00    -0.361 N 
HETATM   21  C22 UNL     1      23.473   4.322  52.113  1.00  0.00     0.253 C 
HETATM   22  O2  UNL     1      22.188   3.878  52.521  1.00  0.00    -0.355 OA
HETATM   23  C23 UNL     1      23.400   5.512  51.176  1.00  0.00     0.191 C 
HETATM   24  H19 UNL     1      24.171   3.263  50.550  1.00  0.00     0.162 HD
ENDROOT
BRANCH   1  25
HETATM   25  N1  UNL     1      22.335   6.239  49.069  1.00  0.00    -0.419 N 
HETATM   26  C1  UNL     1      22.929   6.082  47.781  1.00  0.00     0.140 C 
HETATM   27  H4  UNL     1      22.187   7.184  49.419  1.00  0.00     0.153 HD
ENDBRANCH   1  25
BRANCH  23  28
HETATM   28  O3  UNL     1      24.738   5.715  50.749  1.00  0.00    -0.384 OA
HETATM   29  C24 UNL     1      25.087   7.051  50.705  1.00  0.00     0.202 C 
ENDBRANCH  23  28
BRANCH  11  30
HETATM   30  C13 UNL     1      20.327   0.913  53.725  1.00  0.00     0.406 C 
HETATM   31  O1  UNL     1      20.274   0.649  54.945  1.00  0.00    -0.429 OA
ENDBRANCH  11  30
TORSDOF 3
ENDMDL
MODEL 8
REMARK VINA RESULT:      -7.5      7.785     11.722
REMARK  3 active torsions:
REMARK  status: ('A' for Active; 'I' for Inactive)
REMARK    1  A    between atoms: N1_2  and  C2_3 
REMARK    2  A    between atoms: C12_13  and  C13_14 
REMARK    3  A    between atoms: C23_27  and  O3_28 
ROOT
HETATM    1  C2  UNL     1      32.829   5.964  46.130  1.00  0.00     0.112 C 
HETATM    2  C3  UNL     1      33.352   7.414  46.297  1.00  0.00     0.063 C 
HETATM    3  C4  UNL     1      32.228   8.151  47.011  1.00  0.00     0.146 C 
HETATM    4  C5  UNL     1      32.339   9.593  46.792  1.00  0.00    -0.011 C 
HETATM    5  C6  UNL     1      31.376  10.686  46.374  1.00  0.00    -0.005 A 
HETATM    6  C7  UNL     1      32.219  11.693  46.390  1.00  0.00    -0.004 A 
HETATM    7  C8  UNL     1      31.135  11.811  45.444  1.00  0.00     0.021 A 
HETATM    8  C9  UNL     1      30.077  10.631  45.384  1.00  0.00     0.021 A 
HETATM    9  C10 UNL     1      30.324   9.542  46.295  1.00  0.00     0.001 A 
HETATM   10  C11 UNL     1      31.239  10.596  46.331  1.00  0.00    -0.004 A 
HETATM   11  C12 UNL     1      30.529  10.267  47.543  1.00  0.00     0.027 A 
HETATM   12  C14 UNL     1      29.681   9.593  48.516  1.00  0.00    -0.012 C 
HETATM   13  C15 UNL     1      29.037   8.452  48.282  1.00  0.00     0.010 C 
HETATM   14  C16 UNL     1      28.197   7.280  48.460  1.00  0.00    -0.010 A 
HETATM   15  C17 UNL     1      26.880   7.386  48.810  1.00  0.00     0.013 A 
HETATM   16  C18 UNL     1      26.266   6.191  48.977  1.00  0.00     0.001 A 
HETATM   17  C19 UNL     1      26.910   5.004  48.808  1.00  0.00     0.002 A 
HETATM   18  C20 UNL     1      28.205   4.899  48.455  1.00  0.00     0.030 A 
HETATM   19  C21 UNL     1      28.935   6.068  48.267  1.00  0.00     0.040 A 
HETATM   20  N2  UNL     1      30.339   6.172  47.887  1.00  0.00    -0.361 N 
HETATM   21  C22 UNL     1      31.687   6.358  48.286  1.00  0.00     0.253 C 
HETATM   22  O2  UNL     1      32.135   7.705  48.303  1.00  0.00    -0.355 OA
HETATM   23  C23 UNL     1      32.624   5.449  47.515  1.00  0.00     0.191 C 
HETATM   24  H19 UNL     1      30.338   6.035  46.827  1.00  0.00     0.162 HD
ENDROOT
BRANCH   1  25
HETATM   25  N1  UNL     1      33.730   5.247  45.316  1.00  0.00    -0.419 N 
HETATM   26  C1  UNL     1      33.234   4.778  44.063  1.00  0.00     0.140 C 
HETATM   27  H4  UNL     1      34.484   4.725  45.762  1.00  0.00     0.153 HD
ENDBRANCH   1  25
BRANCH  23  28
HETATM   28  O3  UNL     1      31.952   4.201  47.463  1.00  0.00    -0.384 OA
HETATM   29  C24 UNL     1      32.791   3.132  47.708  1.00  0.00     0.202 C 
ENDBRANCH  23  28
BRANCH  11  30
HETATM   30  C13 UNL     1      30.975  11.205  48.629  1.00  0.00     0.406 C 
HETATM   31  O1  UNL     1      30.825  12.201  49.369  1.00  0.00    -0.429 OA
ENDBRANCH  11  30
TORSDOF 3
ENDMDL
MODEL 9
REMARK VINA RESULT:      -7.5      7.344     11.012
REMARK  3 active torsions:
REMARK  status: ('A' for Active; 'I' for Inactive)
REMARK    1  A    between atoms: N1_2  and  C2_3 
REMARK    2  A    between atoms: C12_13  and  C13_14 
REMARK    3  A    between atoms: C23_27  and  O3_28 
ROOT
HETATM    1  C2  UNL     1      30.883   6.392  48.809  1.00  0.00     0.112 C 
HETATM    2  C3  UNL     1      29.596   5.614  48.430  1.00  0.00     0.063 C 
HETATM    3  C4  UNL     1      28.551   6.693  48.187  1.00  0.00     0.146 C 
HETATM    4  C5  UNL     1      27.202   6.140  48.322  1.00  0.00    -0.011 C 
HETATM    5  C6  UNL     1      25.946   6.561  49.058  1.00  0.00    -0.005 A 
HETATM    6  C7  UNL     1      25.178   5.556  48.704  1.00  0.00    -0.004 A 
HETATM    7  C8  UNL     1      24.878   6.140  49.990  1.00  0.00     0.021 A 
HETATM    8  C9  UNL     1      25.764   7.364  50.469  1.00  0.00     0.021 A 
HETATM    9  C10 UNL     1      26.801   7.764  49.552  1.00  0.00     0.001 A 
HETATM   10  C11 UNL     1      26.003   6.691  49.152  1.00  0.00    -0.004 A 
HETATM   11  C12 UNL     1      26.047   7.861  48.308  1.00  0.00     0.027 A 
HETATM   12  C14 UNL     1      26.409   9.153  47.744  1.00  0.00    -0.012 C 
HETATM   13  C15 UNL     1      27.373   9.934  48.226  1.00  0.00     0.010 C 
HETATM   14  C16 UNL     1      28.286  11.050  48.402  1.00  0.00    -0.010 A 
HETATM   15  C17 UNL     1      27.832  12.328  48.580  1.00  0.00     0.013 A 
HETATM   16  C18 UNL     1      28.823  13.245  48.680  1.00  0.00     0.001 A 
HETATM   17  C19 UNL     1      30.141  12.914  48.611  1.00  0.00     0.002 A 
HETATM   18  C20 UNL     1      30.588  11.655  48.444  1.00  0.00     0.030 A 
HETATM   19  C21 UNL     1      29.653  10.633  48.319  1.00  0.00     0.040 A 
HETATM   20  N2  UNL     1      29.927   9.213  48.132  1.00  0.00    -0.361 N 
HETATM   21  C22 UNL     1      30.044   8.113  47.245  1.00  0.00     0.253 C 
HETATM   22  O2  UNL     1      28.851   7.372  47.036  1.00  0.00    -0.355 OA
HETATM   23  C23 UNL     1      31.216   7.224  47.616  1.00  0.00     0.191 C 
HETATM   24  H19 UNL     1      30.148   8.854  49.115  1.00  0.00     0.162 HD
ENDROOT
BRANCH   1  25
HETATM   25  N1  UNL     1      31.864   5.470  49.229  1.00  0.00    -0.419 N 
HETATM   26  C1  UNL     1      32.420   4.619  48.227  1.00  0.00     0.140 C 
HETATM   27  H4  UNL     1      31.838   5.130  50.189  1.00  0.00     0.153 HD
ENDBRANCH   1  25
BRANCH  23  28
HETATM   28  O3  UNL     1      32.261   8.126  47.941  1.00  0.00    -0.384 OA
HETATM   29  C24 UNL     1      33.309   8.075  47.042  1.00  0.00     0.202 C 
ENDBRANCH  23  28
BRANCH  11  30
HETATM   30  C13 UNL     1      25.159   7.627  47.119  1.00  0.00     0.406 C 
HETATM   31  O1  UNL     1      24.656   7.959  46.023  1.00  0.00    -0.429 OA
ENDBRANCH  11  30
TORSDOF 3
ENDMDL
