MODEL 1
REMARK VINA RESULT:      -8.9      0.000      0.000
REMARK  7 active torsions:
REMARK  status: ('A' for Active; 'I' for Inactive)
REMARK       I    between atoms: C1_2  and  N1_3 
REMARK    1  A    between atoms: C1_2  and  C17_25 
REMARK    2  A    between atoms: N1_3  and  C2_4 
REMARK    3  A    between atoms: C2_4  and  C3_5 
REMARK    4  A    between atoms: C3_5  and  O2_6 
REMARK    5  A    between atoms: O2_6  and  C4_7 
REMARK    6  A    between atoms: C8_13  and  N4_14 
REMARK    7  A    between atoms: N4_14  and  C9_15 
ROOT
HETATM    1  C4  UNL     1      23.020   3.909  49.592  1.00  0.00     0.051 C 
HETATM    2  C5  UNL     1      23.498   5.096  49.262  1.00  0.00     0.051 C 
HETATM    3  C6  UNL     1      24.928   5.316  49.089  1.00  0.00     0.120 C 
HETATM    4  N2  UNL     1      26.189   5.220  49.020  1.00  0.00    -0.254 NA
HETATM    5  C7  UNL     1      26.828   4.000  49.332  1.00  0.00     0.234 C 
HETATM    6  N3  UNL     1      26.725   3.041  50.153  1.00  0.00    -0.225 NA
HETATM    7  C8  UNL     1      25.786   2.852  51.192  1.00  0.00     0.125 C 
HETATM    8  C15 UNL     1      24.441   2.711  51.142  1.00  0.00     0.030 C 
HETATM    9  C16 UNL     1      24.010   2.786  49.747  1.00  0.00     0.095 C 
ENDROOT
BRANCH   1  10
HETATM   10  O2  UNL     1      21.652   3.754  49.761  1.00  0.00    -0.353 OA
BRANCH  10  11
HETATM   11  C3  UNL     1      21.059   4.401  50.861  1.00  0.00     0.195 C 
BRANCH  11  12
HETATM   12  C2  UNL     1      20.182   3.403  51.554  1.00  0.00     0.149 C 
BRANCH  12  13
HETATM   13  N1  UNL     1      20.874   2.339  52.210  1.00  0.00    -0.357 N 
HETATM   14  C1  UNL     1      20.908   0.991  51.758  1.00  0.00     0.251 C 
HETATM   15  O1  UNL     1      20.285   0.680  50.689  1.00  0.00    -0.271 OA
HETATM   16  H1  UNL     1      21.428   2.471  53.106  1.00  0.00     0.162 HD
BRANCH  14  17
HETATM   17  C17 UNL     1      21.647  -0.099  52.478  1.00  0.00     0.311 C 
HETATM   18  C18 UNL     1      20.692  -0.649  53.523  1.00  0.00     0.045 C 
HETATM   19  C19 UNL     1      21.330  -1.606  54.477  1.00  0.00     0.004 C 
HETATM   20  C20 UNL     1      22.683  -1.198  54.968  1.00  0.00     0.030 C 
HETATM   21  C21 UNL     1      23.501  -0.498  53.908  1.00  0.00     0.270 C 
HETATM   22  N5  UNL     1      22.737   0.513  53.209  1.00  0.00     0.097 N 
HETATM   23  H25 UNL     1      22.295   1.116  53.945  1.00  0.00     0.317 HD
ENDBRANCH  14  17
ENDBRANCH  12  13
ENDBRANCH  11  12
ENDBRANCH  10  11
ENDBRANCH   1  10
BRANCH   7  24
HETATM   24  N4  UNL     1      26.570   2.837  52.356  1.00  0.00    -0.341 N 
HETATM   25  H9  UNL     1      26.628   3.654  53.001  1.00  0.00     0.167 HD
BRANCH  24  26
HETATM   26  C9  UNL     1      27.338   1.690  52.727  1.00  0.00     0.035 A 
HETATM   27  C10 UNL     1      28.574   1.751  53.364  1.00  0.00     0.032 A 
HETATM   28  C11 UNL     1      29.262   0.600  53.694  1.00  0.00     0.046 A 
HETATM   29  C12 UNL     1      28.732  -0.639  53.395  1.00  0.00     0.138 A 
HETATM   30  F1  UNL     1      29.401  -1.773  53.715  1.00  0.00    -0.204 F 
HETATM   31  C13 UNL     1      27.505  -0.770  52.762  1.00  0.00     0.074 A 
HETATM   32 CL1  UNL     1      26.792  -2.312  52.363  1.00  0.00    -0.081 Cl
HETATM   33  C14 UNL     1      26.853   0.410  52.451  1.00  0.00     0.056 A 
ENDBRANCH  24  26
ENDBRANCH   7  24
TORSDOF 7
ENDMDL
MODEL 2
REMARK VINA RESULT:      -8.5      1.664      1.929
REMARK  7 active torsions:
REMARK  status: ('A' for Active; 'I' for Inactive)
REMARK       I    between atoms: C1_2  and  N1_3 
REMARK    1  A    between atoms: C1_2  and  C17_25 
REMARK    2  A    between atoms: N1_3  and  C2_4 
REMARK    3  A    between atoms: C2_4  and  C3_5 
REMARK    4  A    between atoms: C3_5  and  O2_6 
REMARK    5  A    between atoms: O2_6  and  C4_7 
REMARK    6  A    between atoms: C8_13  and  N4_14 
REMARK    7  A    between atoms: N4_14  and  C9_15 
ROOT
HETATM    1  C4  UNL     1      23.407   4.803  49.053  1.00  0.00     0.051 C 
HETATM    2  C5  UNL     1      23.942   6.011  48.991  1.00  0.00     0.051 C 
HETATM    3  C6  UNL     1      25.381   6.196  48.861  1.00  0.00     0.120 C 
HETATM    4  N2  UNL     1      26.637   6.059  48.764  1.00  0.00    -0.254 NA
HETATM    5  C7  UNL     1      27.216   4.771  48.793  1.00  0.00     0.234 C 
HETATM    6  N3  UNL     1      27.065   3.661  49.382  1.00  0.00    -0.225 NA
HETATM    7  C8  UNL     1      26.115   3.290  50.360  1.00  0.00     0.125 C 
HETATM    8  C15 UNL     1      24.765   3.227  50.290  1.00  0.00     0.030 C 
HETATM    9  C16 UNL     1      24.342   3.629  48.948  1.00  0.00     0.095 C 
ENDROOT
BRANCH   1  10
HETATM   10  O2  UNL     1      22.033   4.680  49.194  1.00  0.00    -0.353 OA
BRANCH  10  11
HETATM   11  C3  UNL     1      21.427   3.536  48.643  1.00  0.00     0.195 C 
BRANCH  11  12
HETATM   12  C2  UNL     1      20.442   3.018  49.645  1.00  0.00     0.149 C 
BRANCH  12  13
HETATM   13  N1  UNL     1      20.974   2.102  50.603  1.00  0.00    -0.357 N 
HETATM   14  C1  UNL     1      21.184   2.393  51.978  1.00  0.00     0.251 C 
HETATM   15  O1  UNL     1      20.882   3.552  52.419  1.00  0.00    -0.271 OA
HETATM   16  H1  UNL     1      21.263   1.109  50.359  1.00  0.00     0.162 HD
BRANCH  14  17
HETATM   17  C17 UNL     1      21.747   1.401  52.953  1.00  0.00     0.311 C 
HETATM   18  C18 UNL     1      22.226   0.216  52.133  1.00  0.00     0.045 C 
HETATM   19  C19 UNL     1      22.630  -0.964  52.958  1.00  0.00     0.004 C 
HETATM   20  C20 UNL     1      21.715  -1.277  54.099  1.00  0.00     0.030 C 
HETATM   21  C21 UNL     1      21.145  -0.036  54.746  1.00  0.00     0.270 C 
HETATM   22  N5  UNL     1      20.655   0.912  53.769  1.00  0.00     0.097 N 
HETATM   23  H25 UNL     1      20.023   0.378  53.123  1.00  0.00     0.317 HD
ENDBRANCH  14  17
ENDBRANCH  12  13
ENDBRANCH  11  12
ENDBRANCH  10  11
ENDBRANCH   1  10
BRANCH   7  24
HETATM   24  N4  UNL     1      26.893   2.981  51.486  1.00  0.00    -0.341 N 
HETATM   25  H9  UNL     1      27.766   3.500  51.722  1.00  0.00     0.167 HD
BRANCH  24  26
HETATM   26  C9  UNL     1      26.528   1.929  52.383  1.00  0.00     0.035 A 
HETATM   27  C10 UNL     1      25.966   2.134  53.639  1.00  0.00     0.032 A 
HETATM   28  C11 UNL     1      25.638   1.068  54.455  1.00  0.00     0.046 A 
HETATM   29  C12 UNL     1      25.866  -0.227  54.034  1.00  0.00     0.138 A 
HETATM   30  F1  UNL     1      25.547  -1.277  54.828  1.00  0.00    -0.204 F 
HETATM   31  C13 UNL     1      26.422  -0.500  52.795  1.00  0.00     0.074 A 
HETATM   32 CL1  UNL     1      26.729  -2.118  52.217  1.00  0.00    -0.081 Cl
HETATM   33  C14 UNL     1      26.734   0.598  52.013  1.00  0.00     0.056 A 
ENDBRANCH  24  26
ENDBRANCH   7  24
TORSDOF 7
ENDMDL
MODEL 3
REMARK VINA RESULT:      -8.3      1.852      5.538
REMARK  7 active torsions:
REMARK  status: ('A' for Active; 'I' for Inactive)
REMARK       I    between atoms: C1_2  and  N1_3 
REMARK    1  A    between atoms: C1_2  and  C17_25 
REMARK    2  A    between atoms: N1_3  and  C2_4 
REMARK    3  A    between atoms: C2_4  and  C3_5 
REMARK    4  A    between atoms: C3_5  and  O2_6 
REMARK    5  A    between atoms: O2_6  and  C4_7 
REMARK    6  A    between atoms: C8_13  and  N4_14 
REMARK    7  A    between atoms: N4_14  and  C9_15 
ROOT
HETATM    1  C4  UNL     1      21.384   0.981  52.707  1.00  0.00     0.051 C 
HETATM    2  C5  UNL     1      20.664  -0.066  53.071  1.00  0.00     0.051 C 
HETATM    3  C6  UNL     1      21.167  -1.031  54.040  1.00  0.00     0.120 C 
HETATM    4  N2  UNL     1      21.848  -1.698  54.874  1.00  0.00    -0.254 NA
HETATM    5  C7  UNL     1      23.159  -1.293  55.208  1.00  0.00     0.234 C 
HETATM    6  N3  UNL     1      24.184  -0.797  54.654  1.00  0.00    -0.225 NA
HETATM    7  C8  UNL     1      24.380  -0.431  53.303  1.00  0.00     0.125 C 
HETATM    8  C15 UNL     1      23.749   0.498  52.547  1.00  0.00     0.030 C 
HETATM    9  C16 UNL     1      22.728   1.155  53.361  1.00  0.00     0.095 C 
ENDROOT
BRANCH   1  10
HETATM   10  O2  UNL     1      20.867   1.862  51.768  1.00  0.00    -0.353 OA
BRANCH  10  11
HETATM   11  C3  UNL     1      20.303   1.310  50.604  1.00  0.00     0.195 C 
BRANCH  11  12
HETATM   12  C2  UNL     1      21.069   1.844  49.433  1.00  0.00     0.149 C 
BRANCH  12  13
HETATM   13  N1  UNL     1      22.375   2.339  49.735  1.00  0.00    -0.357 N 
HETATM   14  C1  UNL     1      22.786   3.692  49.586  1.00  0.00     0.251 C 
HETATM   15  O1  UNL     1      21.947   4.550  49.153  1.00  0.00    -0.271 OA
HETATM   16  H1  UNL     1      23.159   1.724  50.102  1.00  0.00     0.162 HD
BRANCH  14  17
HETATM   17  C17 UNL     1      24.169   4.172  49.915  1.00  0.00     0.311 C 
HETATM   18  C18 UNL     1      24.524   5.211  48.866  1.00  0.00     0.045 C 
HETATM   19  C19 UNL     1      25.953   5.650  48.913  1.00  0.00     0.004 C 
HETATM   20  C20 UNL     1      26.944   4.548  49.114  1.00  0.00     0.030 C 
HETATM   21  C21 UNL     1      26.433   3.467  50.037  1.00  0.00     0.270 C 
HETATM   22  N5  UNL     1      25.082   3.066  49.713  1.00  0.00     0.097 N 
HETATM   23  H25 UNL     1      25.069   2.860  48.684  1.00  0.00     0.317 HD
ENDBRANCH  14  17
ENDBRANCH  12  13
ENDBRANCH  11  12
ENDBRANCH  10  11
ENDBRANCH   1  10
BRANCH   7  24
HETATM   24  N4  UNL     1      25.421  -1.269  52.874  1.00  0.00    -0.341 N 
HETATM   25  H9  UNL     1      25.245  -2.175  52.390  1.00  0.00     0.167 HD
BRANCH  24  26
HETATM   26  C9  UNL     1      26.793  -0.923  53.077  1.00  0.00     0.035 A 
HETATM   27  C10 UNL     1      27.834  -1.846  53.106  1.00  0.00     0.032 A 
HETATM   28  C11 UNL     1      29.139  -1.440  53.308  1.00  0.00     0.046 A 
HETATM   29  C12 UNL     1      29.434  -0.103  53.485  1.00  0.00     0.138 A 
HETATM   30  F1  UNL     1      30.711   0.303  53.683  1.00  0.00    -0.204 F 
HETATM   31  C13 UNL     1      28.444   0.866  53.467  1.00  0.00     0.074 A 
HETATM   32 CL1  UNL     1      28.764   2.568  53.686  1.00  0.00    -0.081 Cl
HETATM   33  C14 UNL     1      27.153   0.413  53.263  1.00  0.00     0.056 A 
ENDBRANCH  24  26
ENDBRANCH   7  24
TORSDOF 7
ENDMDL
MODEL 4
REMARK VINA RESULT:      -8.2      4.024      8.580
REMARK  7 active torsions:
REMARK  status: ('A' for Active; 'I' for Inactive)
REMARK       I    between atoms: C1_2  and  N1_3 
REMARK    1  A    between atoms: C1_2  and  C17_25 
REMARK    2  A    between atoms: N1_3  and  C2_4 
REMARK    3  A    between atoms: C2_4  and  C3_5 
REMARK    4  A    between atoms: C3_5  and  O2_6 
REMARK    5  A    between atoms: O2_6  and  C4_7 
REMARK    6  A    between atoms: C8_13  and  N4_14 
REMARK    7  A    between atoms: N4_14  and  C9_15 
ROOT
HETATM    1  C4  UNL     1      26.680   1.875  52.157  1.00  0.00     0.051 C 
HETATM    2  C5  UNL     1      27.229   1.820  53.358  1.00  0.00     0.051 C 
HETATM    3  C6  UNL     1      26.794   0.840  54.345  1.00  0.00     0.120 C 
HETATM    4  N2  UNL     1      26.220  -0.086  54.990  1.00  0.00    -0.254 NA
HETATM    5  C7  UNL     1      25.154  -0.804  54.407  1.00  0.00     0.234 C 
HETATM    6  N3  UNL     1      24.151  -0.601  53.661  1.00  0.00    -0.225 NA
HETATM    7  C8  UNL     1      23.702   0.604  53.075  1.00  0.00     0.125 C 
HETATM    8  C15 UNL     1      24.304   1.418  52.177  1.00  0.00     0.030 C 
HETATM    9  C16 UNL     1      25.614   0.862  51.838  1.00  0.00     0.095 C 
ENDROOT
BRANCH   1  10
HETATM   10  O2  UNL     1      27.118   2.837  51.258  1.00  0.00    -0.353 OA
BRANCH  10  11
HETATM   11  C3  UNL     1      26.481   2.888  50.004  1.00  0.00     0.195 C 
BRANCH  11  12
HETATM   12  C2  UNL     1      26.227   4.329  49.684  1.00  0.00     0.149 C 
BRANCH  12  13
HETATM   13  N1  UNL     1      27.390   5.092  49.355  1.00  0.00    -0.357 N 
HETATM   14  C1  UNL     1      27.392   6.268  48.555  1.00  0.00     0.251 C 
HETATM   15  O1  UNL     1      26.287   6.697  48.083  1.00  0.00    -0.271 OA
HETATM   16  H1  UNL     1      28.366   4.837  49.688  1.00  0.00     0.162 HD
BRANCH  14  17
HETATM   17  C17 UNL     1      28.637   7.041  48.233  1.00  0.00     0.311 C 
HETATM   18  C18 UNL     1      29.784   6.047  48.275  1.00  0.00     0.045 C 
HETATM   19  C19 UNL     1      31.134   6.682  48.182  1.00  0.00     0.004 C 
HETATM   20  C20 UNL     1      31.305   7.922  49.000  1.00  0.00     0.030 C 
HETATM   21  C21 UNL     1      30.053   8.765  49.047  1.00  0.00     0.270 C 
HETATM   22  N5  UNL     1      28.871   7.974  49.316  1.00  0.00     0.097 N 
HETATM   23  H25 UNL     1      29.087   7.392  50.162  1.00  0.00     0.317 HD
ENDBRANCH  14  17
ENDBRANCH  12  13
ENDBRANCH  11  12
ENDBRANCH  10  11
ENDBRANCH   1  10
BRANCH   7  24
HETATM   24  N4  UNL     1      22.434   0.802  53.641  1.00  0.00    -0.341 N 
HETATM   25  H9  UNL     1      22.304   1.183  54.603  1.00  0.00     0.167 HD
BRANCH  24  26
HETATM   26  C9  UNL     1      21.237   0.491  52.924  1.00  0.00     0.035 A 
HETATM   27  C10 UNL     1      20.935   0.983  51.658  1.00  0.00     0.032 A 
HETATM   28  C11 UNL     1      19.757   0.640  51.023  1.00  0.00     0.046 A 
HETATM   29  C12 UNL     1      18.852  -0.201  51.640  1.00  0.00     0.138 A 
HETATM   30  F1  UNL     1      17.695  -0.542  51.024  1.00  0.00    -0.204 F 
HETATM   31  C13 UNL     1      19.092  -0.726  52.900  1.00  0.00     0.074 A 
HETATM   32 CL1  UNL     1      17.982  -1.793  53.721  1.00  0.00    -0.081 Cl
HETATM   33  C14 UNL     1      20.284  -0.354  53.496  1.00  0.00     0.056 A 
ENDBRANCH  24  26
ENDBRANCH   7  24
TORSDOF 7
ENDMDL
MODEL 5
REMARK VINA RESULT:      -8.0      5.166      6.757
REMARK  7 active torsions:
REMARK  status: ('A' for Active; 'I' for Inactive)
REMARK       I    between atoms: C1_2  and  N1_3 
REMARK    1  A    between atoms: C1_2  and  C17_25 
REMARK    2  A    between atoms: N1_3  and  C2_4 
REMARK    3  A    between atoms: C2_4  and  C3_5 
REMARK    4  A    between atoms: C3_5  and  O2_6 
REMARK    5  A    between atoms: O2_6  and  C4_7 
REMARK    6  A    between atoms: C8_13  and  N4_14 
REMARK    7  A    between atoms: N4_14  and  C9_15 
ROOT
HETATM    1  C4  UNL     1      27.394   7.412  48.452  1.00  0.00     0.051 C 
HETATM    2  C5  UNL     1      27.480   8.392  49.336  1.00  0.00     0.051 C 
HETATM    3  C6  UNL     1      28.687   9.198  49.458  1.00  0.00     0.120 C 
HETATM    4  N2  UNL     1      29.839   9.715  49.352  1.00  0.00    -0.254 NA
HETATM    5  C7  UNL     1      30.778   9.181  48.441  1.00  0.00     0.234 C 
HETATM    6  N3  UNL     1      31.159   8.057  48.000  1.00  0.00    -0.225 NA
HETATM    7  C8  UNL     1      30.695   6.763  48.329  1.00  0.00     0.125 C 
HETATM    8  C15 UNL     1      29.472   6.205  48.169  1.00  0.00     0.030 C 
HETATM    9  C16 UNL     1      28.580   7.188  47.554  1.00  0.00     0.095 C 
ENDROOT
BRANCH   1  10
HETATM   10  O2  UNL     1      26.229   6.662  48.387  1.00  0.00    -0.353 OA
BRANCH  10  11
HETATM   11  C3  UNL     1      25.910   5.864  49.500  1.00  0.00     0.195 C 
BRANCH  11  12
HETATM   12  C2  UNL     1      26.542   4.522  49.291  1.00  0.00     0.149 C 
BRANCH  12  13
HETATM   13  N1  UNL     1      26.559   3.673  50.440  1.00  0.00    -0.357 N 
HETATM   14  C1  UNL     1      25.489   2.830  50.846  1.00  0.00     0.251 C 
HETATM   15  O1  UNL     1      24.420   2.810  50.150  1.00  0.00    -0.271 OA
HETATM   16  H1  UNL     1      27.391   3.602  51.098  1.00  0.00     0.162 HD
BRANCH  14  17
HETATM   17  C17 UNL     1      25.547   1.953  52.061  1.00  0.00     0.311 C 
HETATM   18  C18 UNL     1      26.688   0.977  51.834  1.00  0.00     0.045 C 
HETATM   19  C19 UNL     1      26.762  -0.112  52.855  1.00  0.00     0.004 C 
HETATM   20  C20 UNL     1      25.444  -0.713  53.232  1.00  0.00     0.030 C 
HETATM   21  C21 UNL     1      24.328   0.305  53.261  1.00  0.00     0.270 C 
HETATM   22  N5  UNL     1      24.337   1.159  52.093  1.00  0.00     0.097 N 
HETATM   23  H25 UNL     1      24.381   0.524  51.259  1.00  0.00     0.317 HD
ENDBRANCH  14  17
ENDBRANCH  12  13
ENDBRANCH  11  12
ENDBRANCH  10  11
ENDBRANCH   1  10
BRANCH   7  24
HETATM   24  N4  UNL     1      31.817   6.134  48.887  1.00  0.00    -0.341 N 
HETATM   25  H9  UNL     1      32.075   6.239  49.892  1.00  0.00     0.167 HD
BRANCH  24  26
HETATM   26  C9  UNL     1      32.678   5.305  48.103  1.00  0.00     0.035 A 
HETATM   27  C10 UNL     1      33.884   5.730  47.554  1.00  0.00     0.032 A 
HETATM   28  C11 UNL     1      34.667   4.872  46.806  1.00  0.00     0.046 A 
HETATM   29  C12 UNL     1      34.262   3.571  46.588  1.00  0.00     0.138 A 
HETATM   30  F1  UNL     1      35.024   2.723  45.854  1.00  0.00    -0.204 F 
HETATM   31  C13 UNL     1      33.073   3.084  47.106  1.00  0.00     0.074 A 
HETATM   32 CL1  UNL     1      32.517   1.448  46.859  1.00  0.00    -0.081 Cl
HETATM   33  C14 UNL     1      32.323   3.979  47.848  1.00  0.00     0.056 A 
ENDBRANCH  24  26
ENDBRANCH   7  24
TORSDOF 7
ENDMDL
MODEL 6
REMARK VINA RESULT:      -8.0      3.571      7.223
REMARK  7 active torsions:
REMARK  status: ('A' for Active; 'I' for Inactive)
REMARK       I    between atoms: C1_2  and  N1_3 
REMARK    1  A    between atoms: C1_2  and  C17_25 
REMARK    2  A    between atoms: N1_3  and  C2_4 
REMARK    3  A    between atoms: C2_4  and  C3_5 
REMARK    4  A    between atoms: C3_5  and  O2_6 
REMARK    5  A    between atoms: O2_6  and  C4_7 
REMARK    6  A    between atoms: C8_13  and  N4_14 
REMARK    7  A    between atoms: N4_14  and  C9_15 
ROOT
HETATM    1  C4  UNL     1      24.131   5.905  50.540  1.00  0.00     0.051 C 
HETATM    2  C5  UNL     1      24.680   5.248  49.533  1.00  0.00     0.051 C 
HETATM    3  C6  UNL     1      24.256   3.896  49.190  1.00  0.00     0.120 C 
HETATM    4  N2  UNL     1      23.710   2.754  49.131  1.00  0.00    -0.254 NA
HETATM    5  C7  UNL     1      22.741   2.378  50.086  1.00  0.00     0.234 C 
HETATM    6  N3  UNL     1      22.510   2.507  51.325  1.00  0.00    -0.225 NA
HETATM    7  C8  UNL     1      23.270   3.176  52.311  1.00  0.00     0.125 C 
HETATM    8  C15 UNL     1      23.599   4.484  52.425  1.00  0.00     0.030 C 
HETATM    9  C16 UNL     1      23.027   5.215  51.295  1.00  0.00     0.095 C 
ENDROOT
BRANCH   1  10
HETATM   10  O2  UNL     1      24.581   7.183  50.837  1.00  0.00    -0.353 OA
BRANCH  10  11
HETATM   11  C3  UNL     1      25.043   7.971  49.767  1.00  0.00     0.195 C 
BRANCH  11  12
HETATM   12  C2  UNL     1      26.334   8.600  50.191  1.00  0.00     0.149 C 
BRANCH  12  13
HETATM   13  N1  UNL     1      27.513   7.942  49.724  1.00  0.00    -0.357 N 
HETATM   14  C1  UNL     1      28.493   8.532  48.880  1.00  0.00     0.251 C 
HETATM   15  O1  UNL     1      28.335   9.739  48.497  1.00  0.00    -0.271 OA
HETATM   16  H1  UNL     1      27.757   6.939  49.974  1.00  0.00     0.162 HD
BRANCH  14  17
HETATM   17  C17 UNL     1      29.719   7.806  48.411  1.00  0.00     0.311 C 
HETATM   18  C18 UNL     1      29.300   6.367  48.168  1.00  0.00     0.045 C 
HETATM   19  C19 UNL     1      30.445   5.445  47.893  1.00  0.00     0.004 C 
HETATM   20  C20 UNL     1      31.640   5.645  48.770  1.00  0.00     0.030 C 
HETATM   21  C21 UNL     1      31.878   7.099  49.106  1.00  0.00     0.270 C 
HETATM   22  N5  UNL     1      30.662   7.772  49.510  1.00  0.00     0.097 N 
HETATM   23  H25 UNL     1      30.223   7.176  50.254  1.00  0.00     0.317 HD
ENDBRANCH  14  17
ENDBRANCH  12  13
ENDBRANCH  11  12
ENDBRANCH  10  11
ENDBRANCH   1  10
BRANCH   7  24
HETATM   24  N4  UNL     1      23.636   2.157  53.203  1.00  0.00    -0.341 N 
HETATM   25  H9  UNL     1      23.015   1.844  53.981  1.00  0.00     0.167 HD
BRANCH  24  26
HETATM   26  C9  UNL     1      24.891   1.482  53.096  1.00  0.00     0.035 A 
HETATM   27  C10 UNL     1      25.032   0.152  52.708  1.00  0.00     0.032 A 
HETATM   28  C11 UNL     1      26.279  -0.436  52.626  1.00  0.00     0.046 A 
HETATM   29  C12 UNL     1      27.414   0.289  52.930  1.00  0.00     0.138 A 
HETATM   30  F1  UNL     1      28.641  -0.281  52.852  1.00  0.00    -0.204 F 
HETATM   31  C13 UNL     1      27.343   1.617  53.322  1.00  0.00     0.074 A 
HETATM   32 CL1  UNL     1      28.746   2.576  53.716  1.00  0.00    -0.081 Cl
HETATM   33  C14 UNL     1      26.074   2.163  53.390  1.00  0.00     0.056 A 
ENDBRANCH  24  26
ENDBRANCH   7  24
TORSDOF 7
ENDMDL
MODEL 7
REMARK VINA RESULT:      -7.9      3.265      6.275
REMARK  7 active torsions:
REMARK  status: ('A' for Active; 'I' for Inactive)
REMARK       I    between atoms: C1_2  and  N1_3 
REMARK    1  A    between atoms: C1_2  and  C17_25 
REMARK    2  A    between atoms: N1_3  and  C2_4 
REMARK    3  A    between atoms: C2_4  and  C3_5 
REMARK    4  A    between atoms: C3_5  and  O2_6 
REMARK    5  A    between atoms: O2_6  and  C4_7 
REMARK    6  A    between atoms: C8_13  and  N4_14 
REMARK    7  A    between atoms: N4_14  and  C9_15 
ROOT
HETATM    1  C4  UNL     1      21.252   0.369  52.233  1.00  0.00     0.051 C 
HETATM    2  C5  UNL     1      20.016   0.751  52.507  1.00  0.00     0.051 C 
HETATM    3  C6  UNL     1      19.440   1.944  51.899  1.00  0.00     0.120 C 
HETATM    4  N2  UNL     1      19.211   3.006  51.247  1.00  0.00    -0.254 NA
HETATM    5  C7  UNL     1      20.225   3.588  50.456  1.00  0.00     0.234 C 
HETATM    6  N3  UNL     1      21.475   3.789  50.488  1.00  0.00    -0.225 NA
HETATM    7  C8  UNL     1      22.411   3.440  51.488  1.00  0.00     0.125 C 
HETATM    8  C15 UNL     1      22.780   2.224  51.955  1.00  0.00     0.030 C 
HETATM    9  C16 UNL     1      22.026   1.194  51.241  1.00  0.00     0.095 C 
ENDROOT
BRANCH   1  10
HETATM   10  O2  UNL     1      21.760  -0.765  52.850  1.00  0.00    -0.353 OA
BRANCH  10  11
HETATM   11  C3  UNL     1      21.422  -0.973  54.200  1.00  0.00     0.195 C 
BRANCH  11  12
HETATM   12  C2  UNL     1      22.688  -1.260  54.945  1.00  0.00     0.149 C 
BRANCH  12  13
HETATM   13  N1  UNL     1      23.875  -0.726  54.356  1.00  0.00    -0.357 N 
HETATM   14  C1  UNL     1      25.146  -0.671  54.991  1.00  0.00     0.251 C 
HETATM   15  O1  UNL     1      25.264  -1.127  56.177  1.00  0.00    -0.271 OA
HETATM   16  H1  UNL     1      23.904  -0.317  53.376  1.00  0.00     0.162 HD
BRANCH  14  17
HETATM   17  C17 UNL     1      26.369  -0.099  54.337  1.00  0.00     0.311 C 
HETATM   18  C18 UNL     1      26.819  -1.117  53.304  1.00  0.00     0.045 C 
HETATM   19  C19 UNL     1      28.150  -0.809  52.696  1.00  0.00     0.004 C 
HETATM   20  C20 UNL     1      29.192  -0.344  53.663  1.00  0.00     0.030 C 
HETATM   21  C21 UNL     1      28.621   0.522  54.762  1.00  0.00     0.270 C 
HETATM   22  N5  UNL     1      27.418  -0.043  55.334  1.00  0.00     0.097 N 
HETATM   23  H25 UNL     1      27.643  -1.039  55.579  1.00  0.00     0.317 HD
ENDBRANCH  14  17
ENDBRANCH  12  13
ENDBRANCH  11  12
ENDBRANCH  10  11
ENDBRANCH   1  10
BRANCH   7  24
HETATM   24  N4  UNL     1      22.913   4.674  51.927  1.00  0.00    -0.341 N 
HETATM   25  H9  UNL     1      22.569   5.141  52.794  1.00  0.00     0.167 HD
BRANCH  24  26
HETATM   26  C9  UNL     1      23.934   5.367  51.205  1.00  0.00     0.035 A 
HETATM   27  C10 UNL     1      24.039   6.754  51.140  1.00  0.00     0.032 A 
HETATM   28  C11 UNL     1      25.053   7.357  50.422  1.00  0.00     0.046 A 
HETATM   29  C12 UNL     1      25.985   6.589  49.752  1.00  0.00     0.138 A 
HETATM   30  F1  UNL     1      26.983   7.174  49.046  1.00  0.00    -0.204 F 
HETATM   31  C13 UNL     1      25.937   5.204  49.777  1.00  0.00     0.074 A 
HETATM   32 CL1  UNL     1      27.090   4.190  48.948  1.00  0.00    -0.081 Cl
HETATM   33  C14 UNL     1      24.904   4.645  50.508  1.00  0.00     0.056 A 
ENDBRANCH  24  26
ENDBRANCH   7  24
TORSDOF 7
ENDMDL
MODEL 8
REMARK VINA RESULT:      -7.5      3.927      7.727
REMARK  7 active torsions:
REMARK  status: ('A' for Active; 'I' for Inactive)
REMARK       I    between atoms: C1_2  and  N1_3 
REMARK    1  A    between atoms: C1_2  and  C17_25 
REMARK    2  A    between atoms: N1_3  and  C2_4 
REMARK    3  A    between atoms: C2_4  and  C3_5 
REMARK    4  A    between atoms: C3_5  and  O2_6 
REMARK    5  A    between atoms: O2_6  and  C4_7 
REMARK    6  A    between atoms: C8_13  and  N4_14 
REMARK    7  A    between atoms: N4_14  and  C9_15 
ROOT
HETATM    1  C4  UNL     1      24.849   6.463  50.336  1.00  0.00     0.051 C 
HETATM    2  C5  UNL     1      25.698   5.567  49.861  1.00  0.00     0.051 C 
HETATM    3  C6  UNL     1      25.237   4.281  49.353  1.00  0.00     0.120 C 
HETATM    4  N2  UNL     1      24.568   3.266  48.997  1.00  0.00    -0.254 NA
HETATM    5  C7  UNL     1      23.171   3.228  49.196  1.00  0.00     0.234 C 
HETATM    6  N3  UNL     1      22.311   3.587  50.053  1.00  0.00    -0.225 NA
HETATM    7  C8  UNL     1      22.501   4.247  51.288  1.00  0.00     0.125 C 
HETATM    8  C15 UNL     1      23.009   5.473  51.557  1.00  0.00     0.030 C 
HETATM    9  C16 UNL     1      23.385   6.114  50.297  1.00  0.00     0.095 C 
ENDROOT
BRANCH   1  10
HETATM   10  O2  UNL     1      25.339   7.666  50.823  1.00  0.00    -0.353 OA
BRANCH  10  11
HETATM   11  C3  UNL     1      25.619   8.677  49.886  1.00  0.00     0.195 C 
BRANCH  11  12
HETATM   12  C2  UNL     1      27.016   9.154  50.138  1.00  0.00     0.149 C 
BRANCH  12  13
HETATM   13  N1  UNL     1      28.047   8.326  49.596  1.00  0.00    -0.357 N 
HETATM   14  C1  UNL     1      29.337   8.782  49.209  1.00  0.00     0.251 C 
HETATM   15  O1  UNL     1      29.623  10.018  49.345  1.00  0.00    -0.271 OA
HETATM   16  H1  UNL     1      27.930   7.282  49.436  1.00  0.00     0.162 HD
BRANCH  14  17
HETATM   17  C17 UNL     1      30.392   7.879  48.643  1.00  0.00     0.311 C 
HETATM   18  C18 UNL     1      29.688   6.599  48.229  1.00  0.00     0.045 C 
HETATM   19  C19 UNL     1      30.621   5.500  47.834  1.00  0.00     0.004 C 
HETATM   20  C20 UNL     1      31.817   5.339  48.717  1.00  0.00     0.030 C 
HETATM   21  C21 UNL     1      32.346   6.660  49.226  1.00  0.00     0.270 C 
HETATM   22  N5  UNL     1      31.290   7.517  49.720  1.00  0.00     0.097 N 
HETATM   23  H25 UNL     1      30.725   6.939  50.390  1.00  0.00     0.317 HD
ENDBRANCH  14  17
ENDBRANCH  12  13
ENDBRANCH  11  12
ENDBRANCH  10  11
ENDBRANCH   1  10
BRANCH   7  24
HETATM   24  N4  UNL     1      22.030   3.328  52.238  1.00  0.00    -0.341 N 
HETATM   25  H9  UNL     1      21.081   3.400  52.663  1.00  0.00     0.167 HD
BRANCH  24  26
HETATM   26  C9  UNL     1      22.832   2.230  52.680  1.00  0.00     0.035 A 
HETATM   27  C10 UNL     1      24.217   2.275  52.804  1.00  0.00     0.032 A 
HETATM   28  C11 UNL     1      24.929   1.174  53.238  1.00  0.00     0.046 A 
HETATM   29  C12 UNL     1      24.273   0.001  53.556  1.00  0.00     0.138 A 
HETATM   30  F1  UNL     1      24.964  -1.083  53.982  1.00  0.00    -0.204 F 
HETATM   31  C13 UNL     1      22.895  -0.109  53.455  1.00  0.00     0.074 A 
HETATM   32 CL1  UNL     1      22.020  -1.568  53.845  1.00  0.00    -0.081 Cl
HETATM   33  C14 UNL     1      22.225   1.018  53.016  1.00  0.00     0.056 A 
ENDBRANCH  24  26
ENDBRANCH   7  24
TORSDOF 7
ENDMDL
MODEL 9
REMARK VINA RESULT:      -7.5      3.733      7.589
REMARK  7 active torsions:
REMARK  status: ('A' for Active; 'I' for Inactive)
REMARK       I    between atoms: C1_2  and  N1_3 
REMARK    1  A    between atoms: C1_2  and  C17_25 
REMARK    2  A    between atoms: N1_3  and  C2_4 
REMARK    3  A    between atoms: C2_4  and  C3_5 
REMARK    4  A    between atoms: C3_5  and  O2_6 
REMARK    5  A    between atoms: O2_6  and  C4_7 
REMARK    6  A    between atoms: C8_13  and  N4_14 
REMARK    7  A    between atoms: N4_14  and  C9_15 
ROOT
HETATM    1  C4  UNL     1      24.452   5.147  49.364  1.00  0.00     0.051 C 
HETATM    2  C5  UNL     1      23.276   4.787  48.879  1.00  0.00     0.051 C 
HETATM    3  C6  UNL     1      22.360   3.958  49.652  1.00  0.00     0.120 C 
HETATM    4  N2  UNL     1      21.786   3.239  50.523  1.00  0.00    -0.254 NA
HETATM    5  C7  UNL     1      22.447   2.920  51.730  1.00  0.00     0.234 C 
HETATM    6  N3  UNL     1      23.607   2.626  52.143  1.00  0.00    -0.225 NA
HETATM    7  C8  UNL     1      24.811   2.501  51.413  1.00  0.00     0.125 C 
HETATM    8  C15 UNL     1      25.500   3.420  50.697  1.00  0.00     0.030 C 
HETATM    9  C16 UNL     1      24.790   4.697  50.760  1.00  0.00     0.095 C 
ENDROOT
BRANCH   1  10
HETATM   10  O2  UNL     1      25.296   5.923  48.583  1.00  0.00    -0.353 OA
BRANCH  10  11
HETATM   11  C3  UNL     1      25.223   7.319  48.743  1.00  0.00     0.195 C 
BRANCH  11  12
HETATM   12  C2  UNL     1      26.082   7.686  49.914  1.00  0.00     0.149 C 
BRANCH  12  13
HETATM   13  N1  UNL     1      27.463   7.894  49.613  1.00  0.00    -0.357 N 
HETATM   14  C1  UNL     1      28.109   9.160  49.589  1.00  0.00     0.251 C 
HETATM   15  O1  UNL     1      27.428  10.207  49.852  1.00  0.00    -0.271 OA
HETATM   16  H1  UNL     1      28.132   7.103  49.378  1.00  0.00     0.162 HD
BRANCH  14  17
HETATM   17  C17 UNL     1      29.563   9.336  49.267  1.00  0.00     0.311 C 
HETATM   18  C18 UNL     1      29.651   9.543  47.766  1.00  0.00     0.045 C 
HETATM   19  C19 UNL     1      31.049   9.528  47.236  1.00  0.00     0.004 C 
HETATM   20  C20 UNL     1      31.928   8.461  47.808  1.00  0.00     0.030 C 
HETATM   21  C21 UNL     1      31.649   8.199  49.270  1.00  0.00     0.270 C 
HETATM   22  N5  UNL     1      30.233   8.082  49.542  1.00  0.00     0.097 N 
HETATM   23  H25 UNL     1      29.852   7.389  48.852  1.00  0.00     0.317 HD
ENDBRANCH  14  17
ENDBRANCH  12  13
ENDBRANCH  11  12
ENDBRANCH  10  11
ENDBRANCH   1  10
BRANCH   7  24
HETATM   24  N4  UNL     1      25.175   1.158  51.589  1.00  0.00    -0.341 N 
HETATM   25  H9  UNL     1      24.629   0.372  51.174  1.00  0.00     0.167 HD
BRANCH  24  26
HETATM   26  C9  UNL     1      26.325   0.786  52.352  1.00  0.00     0.035 A 
HETATM   27  C10 UNL     1      27.047   1.665  53.154  1.00  0.00     0.032 A 
HETATM   28  C11 UNL     1      28.151   1.236  53.865  1.00  0.00     0.046 A 
HETATM   29  C12 UNL     1      28.559  -0.081  53.791  1.00  0.00     0.138 A 
HETATM   30  F1  UNL     1      29.641  -0.510  54.485  1.00  0.00    -0.204 F 
HETATM   31  C13 UNL     1      27.884  -1.007  53.011  1.00  0.00     0.074 A 
HETATM   32 CL1  UNL     1      28.359  -2.681  52.884  1.00  0.00    -0.081 Cl
HETATM   33  C14 UNL     1      26.785  -0.532  52.317  1.00  0.00     0.056 A 
ENDBRANCH  24  26
ENDBRANCH   7  24
TORSDOF 7
ENDMDL
