MODEL 1
REMARK VINA RESULT:      -8.2      0.000      0.000
REMARK  6 active torsions:
REMARK  status: ('A' for Active; 'I' for Inactive)
REMARK    1  A    between atoms: C5_7  and  N3_8 
REMARK    2  A    between atoms: N3_8  and  C6_9 
REMARK    3  A    between atoms: C9_14  and  P1_15 
REMARK    4  A    between atoms: P1_15  and  O1_16 
REMARK    5  A    between atoms: O1_16  and  C10_17 
REMARK    6  A    between atoms: C10_17  and  C11_18 
ROOT
HETATM    1  C6  UNL     1      21.722   2.744  49.945  1.00  0.00     0.048 C 
HETATM    2  C7  UNL     1      20.971   3.820  49.898  1.00  0.00     0.132 C 
HETATM    3  N4  UNL     1      21.164   4.669  50.824  1.00  0.00    -0.170 NA
HETATM    4  N5  UNL     1      22.486   4.855  51.245  1.00  0.00    -0.281 N 
HETATM    5  C8  UNL     1      23.544   4.161  50.549  1.00  0.00     0.036 C 
HETATM    6  C9  UNL     1      24.845   4.387  50.785  1.00  0.00     0.059 C 
HETATM    7  C15 UNL     1      23.091   3.150  49.527  1.00  0.00     0.118 C 
HETATM    8  H7  UNL     1      22.762   5.469  52.039  1.00  0.00     0.189 HD
ENDROOT
BRANCH   1   9
HETATM    9  N3  UNL     1      21.064   1.529  50.368  1.00  0.00    -0.357 N 
HETATM   10  H6  UNL     1      20.315   1.485  49.642  1.00  0.00     0.166 HD
BRANCH   9  11
HETATM   11  C5  UNL     1      21.624   0.879  51.522  1.00  0.00     0.033 A 
HETATM   12  C4  UNL     1      20.710   0.056  52.147  1.00  0.00     0.044 A 
HETATM   13  C3  UNL     1      21.148  -0.626  53.285  1.00  0.00     0.013 A 
HETATM   14  C2  UNL     1      20.584  -1.520  54.184  1.00  0.00     0.152 A 
HETATM   15  C18 UNL     1      22.443  -0.434  53.702  1.00  0.00     0.064 A 
HETATM   16  N2  UNL     1      21.542  -1.836  55.103  1.00  0.00    -0.184 NA
HETATM   17  N1  UNL     1      22.658  -1.178  54.806  1.00  0.00    -0.274 N 
HETATM   18  C1  UNL     1      23.890  -1.278  55.576  1.00  0.00     0.180 C 
HETATM   19  C17 UNL     1      23.330   0.384  53.069  1.00  0.00     0.034 A 
HETATM   20  C16 UNL     1      22.928   1.065  51.951  1.00  0.00     0.032 A 
ENDBRANCH   9  11
ENDBRANCH   1   9
BRANCH   6  21
HETATM   21  P1  UNL     1      26.237   3.565  49.960  1.00  0.00     0.037 P 
HETATM   22  H9  UNL     1      25.843   2.656  48.929  1.00  0.00     0.092 HD
BRANCH  21  23
HETATM   23  O1  UNL     1      27.262   2.870  51.166  1.00  0.00    -0.360 OA
BRANCH  23  24
HETATM   24  C10 UNL     1      26.478   2.117  52.038  1.00  0.00     0.206 C 
BRANCH  24  25
HETATM   25  C11 UNL     1      27.426   1.135  52.725  1.00  0.00     0.173 C 
HETATM   26  C12 UNL     1      26.714   0.702  54.001  1.00  0.00     0.303 C 
HETATM   27  N6  UNL     1      27.565  -0.081  54.848  1.00  0.00     0.088 N 
HETATM   28  C13 UNL     1      28.966   0.019  54.492  1.00  0.00     0.295 C 
HETATM   29  H15 UNL     1      27.437   0.221  55.837  1.00  0.00     0.316 HD
HETATM   30  C14 UNL     1      29.235   1.463  54.154  1.00  0.00     0.198 C 
HETATM   31  O2  UNL     1      28.607   1.786  52.976  1.00  0.00    -0.380 OA
ENDBRANCH  24  25
ENDBRANCH  23  24
ENDBRANCH  21  23
ENDBRANCH   6  21
TORSDOF 6
ENDMDL
MODEL 2
REMARK VINA RESULT:      -7.9      3.850      5.229
REMARK  6 active torsions:
REMARK  status: ('A' for Active; 'I' for Inactive)
REMARK    1  A    between atoms: C5_7  and  N3_8 
REMARK    2  A    between atoms: N3_8  and  C6_9 
REMARK    3  A    between atoms: C9_14  and  P1_15 
REMARK    4  A    between atoms: P1_15  and  O1_16 
REMARK    5  A    between atoms: O1_16  and  C10_17 
REMARK    6  A    between atoms: C10_17  and  C11_18 
ROOT
HETATM    1  C6  UNL     1      23.337   3.571  50.660  1.00  0.00     0.048 C 
HETATM    2  C7  UNL     1      22.426   4.060  51.470  1.00  0.00     0.132 C 
HETATM    3  N4  UNL     1      22.862   4.801  52.406  1.00  0.00    -0.170 NA
HETATM    4  N5  UNL     1      23.933   5.647  52.095  1.00  0.00    -0.281 N 
HETATM    5  C8  UNL     1      24.405   5.703  50.732  1.00  0.00     0.036 C 
HETATM    6  C9  UNL     1      25.324   6.585  50.313  1.00  0.00     0.059 C 
HETATM    7  C15 UNL     1      23.796   4.691  49.795  1.00  0.00     0.118 C 
HETATM    8  H7  UNL     1      24.419   6.249  52.792  1.00  0.00     0.189 HD
ENDROOT
BRANCH   1   9
HETATM    9  N3  UNL     1      23.635   2.166  50.815  1.00  0.00    -0.357 N 
HETATM   10  H6  UNL     1      22.854   1.767  50.248  1.00  0.00     0.166 HD
BRANCH   9  11
HETATM   11  C5  UNL     1      24.788   1.851  51.614  1.00  0.00     0.033 A 
HETATM   12  C4  UNL     1      24.503   0.922  52.592  1.00  0.00     0.044 A 
HETATM   13  C3  UNL     1      25.554   0.544  53.432  1.00  0.00     0.013 A 
HETATM   14  C2  UNL     1      25.704  -0.326  54.502  1.00  0.00     0.152 A 
HETATM   15  C18 UNL     1      26.786   1.116  53.230  1.00  0.00     0.064 A 
HETATM   16  N2  UNL     1      27.004  -0.253  54.909  1.00  0.00    -0.184 NA
HETATM   17  N1  UNL     1      27.649   0.617  54.139  1.00  0.00    -0.274 N 
HETATM   18  C1  UNL     1      29.060   0.945  54.287  1.00  0.00     0.180 C 
HETATM   19  C17 UNL     1      27.046   2.033  52.257  1.00  0.00     0.034 A 
HETATM   20  C16 UNL     1      26.036   2.422  51.420  1.00  0.00     0.032 A 
ENDBRANCH   9  11
ENDBRANCH   1   9
BRANCH   6  21
HETATM   21  P1  UNL     1      25.974   6.726  48.623  1.00  0.00     0.037 P 
HETATM   22  H9  UNL     1      25.007   6.449  47.608  1.00  0.00     0.092 HD
BRANCH  21  23
HETATM   23  O1  UNL     1      27.418   5.782  48.505  1.00  0.00    -0.360 OA
BRANCH  23  24
HETATM   24  C10 UNL     1      28.416   6.564  47.927  1.00  0.00     0.206 C 
BRANCH  24  25
HETATM   25  C11 UNL     1      29.741   6.049  48.487  1.00  0.00     0.173 C 
HETATM   26  C12 UNL     1      30.751   7.163  48.240  1.00  0.00     0.303 C 
HETATM   27  N6  UNL     1      32.089   6.748  48.547  1.00  0.00     0.088 N 
HETATM   28  C13 UNL     1      32.224   5.310  48.666  1.00  0.00     0.295 C 
HETATM   29  H15 UNL     1      32.735   7.096  47.807  1.00  0.00     0.316 HD
HETATM   30  C14 UNL     1      31.396   4.696  47.566  1.00  0.00     0.198 C 
HETATM   31  O2  UNL     1      30.062   4.891  47.827  1.00  0.00    -0.380 OA
ENDBRANCH  24  25
ENDBRANCH  23  24
ENDBRANCH  21  23
ENDBRANCH   6  21
TORSDOF 6
ENDMDL
MODEL 3
REMARK VINA RESULT:      -7.9      4.321      5.859
REMARK  6 active torsions:
REMARK  status: ('A' for Active; 'I' for Inactive)
REMARK    1  A    between atoms: C5_7  and  N3_8 
REMARK    2  A    between atoms: N3_8  and  C6_9 
REMARK    3  A    between atoms: C9_14  and  P1_15 
REMARK    4  A    between atoms: P1_15  and  O1_16 
REMARK    5  A    between atoms: O1_16  and  C10_17 
REMARK    6  A    between atoms: C10_17  and  C11_18 
ROOT
HETATM    1  C6  UNL     1      24.940   3.234  51.302  1.00  0.00     0.048 C 
HETATM    2  C7  UNL     1      23.683   3.314  50.928  1.00  0.00     0.132 C 
HETATM    3  N4  UNL     1      23.225   4.490  50.778  1.00  0.00    -0.170 NA
HETATM    4  N5  UNL     1      24.096   5.442  50.233  1.00  0.00    -0.281 N 
HETATM    5  C8  UNL     1      25.403   5.018  49.787  1.00  0.00     0.036 C 
HETATM    6  C9  UNL     1      26.244   5.824  49.124  1.00  0.00     0.059 C 
HETATM    7  C15 UNL     1      25.769   3.595  50.121  1.00  0.00     0.118 C 
HETATM    8  H7  UNL     1      23.860   6.450  50.125  1.00  0.00     0.189 HD
ENDROOT
BRANCH   1   9
HETATM    9  N3  UNL     1      25.169   2.846  52.675  1.00  0.00    -0.357 N 
HETATM   10  H6  UNL     1      24.445   3.439  53.138  1.00  0.00     0.166 HD
BRANCH   9  11
HETATM   11  C5  UNL     1      26.209   1.877  52.890  1.00  0.00     0.033 A 
HETATM   12  C4  UNL     1      25.786   0.593  52.615  1.00  0.00     0.044 A 
HETATM   13  C3  UNL     1      26.718  -0.432  52.792  1.00  0.00     0.013 A 
HETATM   14  C2  UNL     1      26.717  -1.811  52.636  1.00  0.00     0.152 A 
HETATM   15  C18 UNL     1      27.979  -0.098  53.224  1.00  0.00     0.064 A 
HETATM   16  N2  UNL     1      27.960  -2.261  52.974  1.00  0.00    -0.184 NA
HETATM   17  N1  UNL     1      28.713  -1.225  53.327  1.00  0.00    -0.274 N 
HETATM   18  C1  UNL     1      30.103  -1.335  53.747  1.00  0.00     0.180 C 
HETATM   19  C17 UNL     1      28.376   1.177  53.490  1.00  0.00     0.034 A 
HETATM   20  C16 UNL     1      27.484   2.202  53.325  1.00  0.00     0.032 A 
ENDBRANCH   9  11
ENDBRANCH   1   9
BRANCH   6  21
HETATM   21  P1  UNL     1      27.900   5.378  48.527  1.00  0.00     0.037 P 
HETATM   22  H9  UNL     1      28.758   4.855  49.543  1.00  0.00     0.092 HD
BRANCH  21  23
HETATM   23  O1  UNL     1      28.558   6.724  47.665  1.00  0.00    -0.360 OA
BRANCH  23  24
HETATM   24  C10 UNL     1      29.705   7.159  48.326  1.00  0.00     0.206 C 
BRANCH  24  25
HETATM   25  C11 UNL     1      30.702   6.002  48.258  1.00  0.00     0.173 C 
HETATM   26  C12 UNL     1      31.697   6.253  49.385  1.00  0.00     0.303 C 
HETATM   27  N6  UNL     1      32.805   5.344  49.330  1.00  0.00     0.088 N 
HETATM   28  C13 UNL     1      32.916   4.662  48.056  1.00  0.00     0.295 C 
HETATM   29  H15 UNL     1      33.687   5.866  49.520  1.00  0.00     0.316 HD
HETATM   30  C14 UNL     1      32.622   5.678  46.983  1.00  0.00     0.198 C 
HETATM   31  O2  UNL     1      31.292   6.019  47.021  1.00  0.00    -0.380 OA
ENDBRANCH  24  25
ENDBRANCH  23  24
ENDBRANCH  21  23
ENDBRANCH   6  21
TORSDOF 6
ENDMDL
MODEL 4
REMARK VINA RESULT:      -7.8      4.042      5.751
REMARK  6 active torsions:
REMARK  status: ('A' for Active; 'I' for Inactive)
REMARK    1  A    between atoms: C5_7  and  N3_8 
REMARK    2  A    between atoms: N3_8  and  C6_9 
REMARK    3  A    between atoms: C9_14  and  P1_15 
REMARK    4  A    between atoms: P1_15  and  O1_16 
REMARK    5  A    between atoms: O1_16  and  C10_17 
REMARK    6  A    between atoms: C10_17  and  C11_18 
ROOT
HETATM    1  C6  UNL     1      23.240   3.641  50.820  1.00  0.00     0.048 C 
HETATM    2  C7  UNL     1      22.498   4.053  51.822  1.00  0.00     0.132 C 
HETATM    3  N4  UNL     1      23.099   4.738  52.709  1.00  0.00    -0.170 NA
HETATM    4  N5  UNL     1      24.083   5.627  52.260  1.00  0.00    -0.281 N 
HETATM    5  C8  UNL     1      24.285   5.786  50.839  1.00  0.00     0.036 C 
HETATM    6  C9  UNL     1      25.099   6.714  50.316  1.00  0.00     0.059 C 
HETATM    7  C15 UNL     1      23.516   4.828  49.966  1.00  0.00     0.118 C 
HETATM    8  H7  UNL     1      24.690   6.190  52.893  1.00  0.00     0.189 HD
ENDROOT
BRANCH   1   9
HETATM    9  N3  UNL     1      23.574   2.235  50.814  1.00  0.00    -0.357 N 
HETATM   10  H6  UNL     1      22.848   1.895  50.145  1.00  0.00     0.166 HD
BRANCH   9  11
HETATM   11  C5  UNL     1      24.679   1.848  51.649  1.00  0.00     0.033 A 
HETATM   12  C4  UNL     1      24.320   0.885  52.569  1.00  0.00     0.044 A 
HETATM   13  C3  UNL     1      25.320   0.435  53.436  1.00  0.00     0.013 A 
HETATM   14  C2  UNL     1      25.393  -0.486  54.471  1.00  0.00     0.152 A 
HETATM   15  C18 UNL     1      26.577   0.975  53.316  1.00  0.00     0.064 A 
HETATM   16  N2  UNL     1      26.675  -0.475  54.938  1.00  0.00    -0.184 NA
HETATM   17  N1  UNL     1      27.381   0.407  54.238  1.00  0.00    -0.274 N 
HETATM   18  C1  UNL     1      28.794   0.681  54.464  1.00  0.00     0.180 C 
HETATM   19  C17 UNL     1      26.910   1.926  52.399  1.00  0.00     0.034 A 
HETATM   20  C16 UNL     1      25.951   2.385  51.537  1.00  0.00     0.032 A 
ENDBRANCH   9  11
ENDBRANCH   1   9
BRANCH   6  21
HETATM   21  P1  UNL     1      25.411   6.986  48.549  1.00  0.00     0.037 P 
HETATM   22  H9  UNL     1      24.498   6.300  47.689  1.00  0.00     0.092 HD
BRANCH  21  23
HETATM   23  O1  UNL     1      27.076   6.654  48.224  1.00  0.00    -0.360 OA
BRANCH  23  24
HETATM   24  C10 UNL     1      27.680   7.820  47.754  1.00  0.00     0.206 C 
BRANCH  24  25
HETATM   25  C11 UNL     1      28.975   7.980  48.549  1.00  0.00     0.173 C 
HETATM   26  C12 UNL     1      28.833   9.296  49.304  1.00  0.00     0.303 C 
HETATM   27  N6  UNL     1      30.055   9.674  49.953  1.00  0.00     0.088 N 
HETATM   28  C13 UNL     1      31.207   8.944  49.462  1.00  0.00     0.295 C 
HETATM   29  H15 UNL     1      30.211  10.696  49.821  1.00  0.00     0.316 HD
HETATM   30  C14 UNL     1      31.059   8.839  47.966  1.00  0.00     0.198 C 
HETATM   31  O2  UNL     1      30.021   7.993  47.661  1.00  0.00    -0.380 OA
ENDBRANCH  24  25
ENDBRANCH  23  24
ENDBRANCH  21  23
ENDBRANCH   6  21
TORSDOF 6
ENDMDL
MODEL 5
REMARK VINA RESULT:      -7.7      3.406      6.644
REMARK  6 active torsions:
REMARK  status: ('A' for Active; 'I' for Inactive)
REMARK    1  A    between atoms: C5_7  and  N3_8 
REMARK    2  A    between atoms: N3_8  and  C6_9 
REMARK    3  A    between atoms: C9_14  and  P1_15 
REMARK    4  A    between atoms: P1_15  and  O1_16 
REMARK    5  A    between atoms: O1_16  and  C10_17 
REMARK    6  A    between atoms: C10_17  and  C11_18 
ROOT
HETATM    1  C6  UNL     1      23.627   4.229  50.900  1.00  0.00     0.048 C 
HETATM    2  C7  UNL     1      23.137   5.222  51.606  1.00  0.00     0.132 C 
HETATM    3  N4  UNL     1      21.912   5.117  51.931  1.00  0.00    -0.170 NA
HETATM    4  N5  UNL     1      21.455   3.836  52.263  1.00  0.00    -0.281 N 
HETATM    5  C8  UNL     1      22.403   2.748  52.315  1.00  0.00     0.036 C 
HETATM    6  C9  UNL     1      22.086   1.524  52.762  1.00  0.00     0.059 C 
HETATM    7  C15 UNL     1      23.791   3.076  51.827  1.00  0.00     0.118 C 
HETATM    8  H7  UNL     1      20.461   3.612  52.478  1.00  0.00     0.189 HD
ENDROOT
BRANCH   1   9
HETATM    9  N3  UNL     1      23.859   4.500  49.500  1.00  0.00    -0.357 N 
HETATM   10  H6  UNL     1      22.897   4.323  49.136  1.00  0.00     0.166 HD
BRANCH   9  11
HETATM   11  C5  UNL     1      25.200   4.879  49.147  1.00  0.00     0.033 A 
HETATM   12  C4  UNL     1      25.265   6.173  48.675  1.00  0.00     0.044 A 
HETATM   13  C3  UNL     1      26.525   6.647  48.299  1.00  0.00     0.013 A 
HETATM   14  C2  UNL     1      27.025   7.838  47.793  1.00  0.00     0.152 A 
HETATM   15  C18 UNL     1      27.602   5.803  48.422  1.00  0.00     0.064 A 
HETATM   16  N2  UNL     1      28.370   7.680  47.629  1.00  0.00    -0.184 NA
HETATM   17  N1  UNL     1      28.710   6.452  48.009  1.00  0.00    -0.274 N 
HETATM   18  C1  UNL     1      30.071   5.936  47.971  1.00  0.00     0.180 C 
HETATM   19  C17 UNL     1      27.515   4.527  48.891  1.00  0.00     0.034 A 
HETATM   20  C16 UNL     1      26.294   4.036  49.267  1.00  0.00     0.032 A 
ENDBRANCH   9  11
ENDBRANCH   1   9
BRANCH   6  21
HETATM   21  P1  UNL     1      23.210   0.102  52.864  1.00  0.00     0.037 P 
HETATM   22  H9  UNL     1      22.553  -1.133  53.158  1.00  0.00     0.092 HD
BRANCH  21  23
HETATM   23  O1  UNL     1      24.501   0.495  53.945  1.00  0.00    -0.360 OA
BRANCH  23  24
HETATM   24  C10 UNL     1      25.459  -0.515  53.880  1.00  0.00     0.206 C 
BRANCH  24  25
HETATM   25  C11 UNL     1      26.755   0.090  54.416  1.00  0.00     0.173 C 
HETATM   26  C12 UNL     1      26.852   1.475  53.787  1.00  0.00     0.303 C 
HETATM   27  N6  UNL     1      28.117   2.095  54.053  1.00  0.00     0.088 N 
HETATM   28  C13 UNL     1      29.119   1.161  54.526  1.00  0.00     0.295 C 
HETATM   29  H15 UNL     1      28.460   2.561  53.186  1.00  0.00     0.316 HD
HETATM   30  C14 UNL     1      28.967  -0.099  53.713  1.00  0.00     0.198 C 
HETATM   31  O2  UNL     1      27.793  -0.728  54.049  1.00  0.00    -0.380 OA
ENDBRANCH  24  25
ENDBRANCH  23  24
ENDBRANCH  21  23
ENDBRANCH   6  21
TORSDOF 6
ENDMDL
MODEL 6
REMARK VINA RESULT:      -7.7      4.506      7.111
REMARK  6 active torsions:
REMARK  status: ('A' for Active; 'I' for Inactive)
REMARK    1  A    between atoms: C5_7  and  N3_8 
REMARK    2  A    between atoms: N3_8  and  C6_9 
REMARK    3  A    between atoms: C9_14  and  P1_15 
REMARK    4  A    between atoms: P1_15  and  O1_16 
REMARK    5  A    between atoms: O1_16  and  C10_17 
REMARK    6  A    between atoms: C10_17  and  C11_18 
ROOT
HETATM    1  C6  UNL     1      25.817   3.508  50.420  1.00  0.00     0.048 C 
HETATM    2  C7  UNL     1      24.649   3.534  49.822  1.00  0.00     0.132 C 
HETATM    3  N4  UNL     1      24.183   4.690  49.572  1.00  0.00    -0.170 NA
HETATM    4  N5  UNL     1      25.102   5.670  49.179  1.00  0.00    -0.281 N 
HETATM    5  C8  UNL     1      26.483   5.295  48.986  1.00  0.00     0.036 C 
HETATM    6  C9  UNL     1      27.402   6.126  48.474  1.00  0.00     0.059 C 
HETATM    7  C15 UNL     1      26.835   3.890  49.405  1.00  0.00     0.118 C 
HETATM    8  H7  UNL     1      24.853   6.668  49.014  1.00  0.00     0.189 HD
ENDROOT
BRANCH   1   9
HETATM    9  N3  UNL     1      25.806   3.142  51.818  1.00  0.00    -0.357 N 
HETATM   10  H6  UNL     1      25.270   3.954  52.197  1.00  0.00     0.166 HD
BRANCH   9  11
HETATM   11  C5  UNL     1      26.470   1.911  52.152  1.00  0.00     0.033 A 
HETATM   12  C4  UNL     1      27.608   2.123  52.902  1.00  0.00     0.044 A 
HETATM   13  C3  UNL     1      28.335   0.992  53.282  1.00  0.00     0.013 A 
HETATM   14  C2  UNL     1      29.492   0.757  54.011  1.00  0.00     0.152 A 
HETATM   15  C18 UNL     1      27.876  -0.240  52.886  1.00  0.00     0.064 A 
HETATM   16  N2  UNL     1      29.693  -0.593  54.034  1.00  0.00    -0.184 NA
HETATM   17  N1  UNL     1      28.717  -1.186  53.355  1.00  0.00    -0.274 N 
HETATM   18  C1  UNL     1      28.611  -2.627  53.173  1.00  0.00     0.180 C 
HETATM   19  C17 UNL     1      26.749  -0.427  52.145  1.00  0.00     0.034 A 
HETATM   20  C16 UNL     1      26.016   0.662  51.758  1.00  0.00     0.032 A 
ENDBRANCH   9  11
ENDBRANCH   1   9
BRANCH   6  21
HETATM   21  P1  UNL     1      29.154   5.740  48.196  1.00  0.00     0.037 P 
HETATM   22  H9  UNL     1      29.633   4.640  48.973  1.00  0.00     0.092 HD
BRANCH  21  23
HETATM   23  O1  UNL     1      30.075   7.191  48.377  1.00  0.00    -0.360 OA
BRANCH  23  24
HETATM   24  C10 UNL     1      29.994   7.922  47.193  1.00  0.00     0.206 C 
BRANCH  24  25
HETATM   25  C11 UNL     1      29.479   9.308  47.581  1.00  0.00     0.173 C 
HETATM   26  C12 UNL     1      29.682   9.414  49.087  1.00  0.00     0.303 C 
HETATM   27  N6  UNL     1      29.072  10.594  49.626  1.00  0.00     0.088 N 
HETATM   28  C13 UNL     1      28.123  11.206  48.719  1.00  0.00     0.295 C 
HETATM   29  H15 UNL     1      28.591  10.354  50.520  1.00  0.00     0.316 HD
HETATM   30  C14 UNL     1      27.343  10.090  48.074  1.00  0.00     0.198 C 
HETATM   31  O2  UNL     1      28.159   9.388  47.220  1.00  0.00    -0.380 OA
ENDBRANCH  24  25
ENDBRANCH  23  24
ENDBRANCH  21  23
ENDBRANCH   6  21
TORSDOF 6
ENDMDL
MODEL 7
REMARK VINA RESULT:      -7.7      6.806      8.736
REMARK  6 active torsions:
REMARK  status: ('A' for Active; 'I' for Inactive)
REMARK    1  A    between atoms: C5_7  and  N3_8 
REMARK    2  A    between atoms: N3_8  and  C6_9 
REMARK    3  A    between atoms: C9_14  and  P1_15 
REMARK    4  A    between atoms: P1_15  and  O1_16 
REMARK    5  A    between atoms: O1_16  and  C10_17 
REMARK    6  A    between atoms: C10_17  and  C11_18 
ROOT
HETATM    1  C6  UNL     1      27.702   9.162  47.815  1.00  0.00     0.048 C 
HETATM    2  C7  UNL     1      27.228  10.085  48.620  1.00  0.00     0.132 C 
HETATM    3  N4  UNL     1      27.504   9.939  49.852  1.00  0.00    -0.170 NA
HETATM    4  N5  UNL     1      28.777   9.443  50.159  1.00  0.00    -0.281 N 
HETATM    5  C8  UNL     1      29.720   9.228  49.087  1.00  0.00     0.036 C 
HETATM    6  C9  UNL     1      31.002   8.895  49.297  1.00  0.00     0.059 C 
HETATM    7  C15 UNL     1      29.166   9.398  47.695  1.00  0.00     0.118 C 
HETATM    8  H7  UNL     1      29.095   9.216  51.125  1.00  0.00     0.189 HD
ENDROOT
BRANCH   1   9
HETATM    9  N3  UNL     1      26.738   8.218  47.296  1.00  0.00    -0.357 N 
HETATM   10  H6  UNL     1      26.394   8.767  46.477  1.00  0.00     0.166 HD
BRANCH   9  11
HETATM   11  C5  UNL     1      26.613   6.983  48.022  1.00  0.00     0.033 A 
HETATM   12  C4  UNL     1      25.324   6.770  48.465  1.00  0.00     0.044 A 
HETATM   13  C3  UNL     1      25.089   5.597  49.186  1.00  0.00     0.013 A 
HETATM   14  C2  UNL     1      23.987   5.010  49.791  1.00  0.00     0.152 A 
HETATM   15  C18 UNL     1      26.143   4.744  49.405  1.00  0.00     0.064 A 
HETATM   16  N2  UNL     1      24.403   3.837  50.349  1.00  0.00    -0.184 NA
HETATM   17  N1  UNL     1      25.702   3.684  50.113  1.00  0.00    -0.274 N 
HETATM   18  C1  UNL     1      26.482   2.539  50.563  1.00  0.00     0.180 C 
HETATM   19  C17 UNL     1      27.409   4.974  48.958  1.00  0.00     0.034 A 
HETATM   20  C16 UNL     1      27.670   6.115  48.249  1.00  0.00     0.032 A 
ENDBRANCH   9  11
ENDBRANCH   1   9
BRANCH   6  21
HETATM   21  P1  UNL     1      32.253   8.606  48.014  1.00  0.00     0.037 P 
HETATM   22  H9  UNL     1      31.795   7.790  46.934  1.00  0.00     0.092 HD
BRANCH  21  23
HETATM   23  O1  UNL     1      33.699   8.037  48.770  1.00  0.00    -0.360 OA
BRANCH  23  24
HETATM   24  C10 UNL     1      34.496   7.425  47.805  1.00  0.00     0.206 C 
BRANCH  24  25
HETATM   25  C11 UNL     1      34.158   5.935  47.854  1.00  0.00     0.173 C 
HETATM   26  C12 UNL     1      35.139   5.325  48.848  1.00  0.00     0.303 C 
HETATM   27  N6  UNL     1      35.065   3.893  48.860  1.00  0.00     0.088 N 
HETATM   28  C13 UNL     1      34.369   3.351  47.710  1.00  0.00     0.295 C 
HETATM   29  H15 UNL     1      36.029   3.500  48.897  1.00  0.00     0.316 HD
HETATM   30  C14 UNL     1      34.809   4.149  46.510  1.00  0.00     0.198 C 
HETATM   31  O2  UNL     1      34.303   5.424  46.590  1.00  0.00    -0.380 OA
ENDBRANCH  24  25
ENDBRANCH  23  24
ENDBRANCH  21  23
ENDBRANCH   6  21
TORSDOF 6
ENDMDL
MODEL 8
REMARK VINA RESULT:      -7.7      5.241      6.824
REMARK  6 active torsions:
REMARK  status: ('A' for Active; 'I' for Inactive)
REMARK    1  A    between atoms: C5_7  and  N3_8 
REMARK    2  A    between atoms: N3_8  and  C6_9 
REMARK    3  A    between atoms: C9_14  and  P1_15 
REMARK    4  A    between atoms: P1_15  and  O1_16 
REMARK    5  A    between atoms: O1_16  and  C10_17 
REMARK    6  A    between atoms: C10_17  and  C11_18 
ROOT
HETATM    1  C6  UNL     1      25.840   3.518  50.426  1.00  0.00     0.048 C 
HETATM    2  C7  UNL     1      24.665   3.588  49.844  1.00  0.00     0.132 C 
HETATM    3  N4  UNL     1      24.238   4.762  49.603  1.00  0.00    -0.170 NA
HETATM    4  N5  UNL     1      25.188   5.708  49.199  1.00  0.00    -0.281 N 
HETATM    5  C8  UNL     1      26.551   5.282  48.986  1.00  0.00     0.036 C 
HETATM    6  C9  UNL     1      27.492   6.081  48.463  1.00  0.00     0.059 C 
HETATM    7  C15 UNL     1      26.857   3.864  49.397  1.00  0.00     0.118 C 
HETATM    8  H7  UNL     1      24.973   6.715  49.040  1.00  0.00     0.189 HD
ENDROOT
BRANCH   1   9
HETATM    9  N3  UNL     1      25.835   3.149  51.823  1.00  0.00    -0.357 N 
HETATM   10  H6  UNL     1      25.311   3.966  52.208  1.00  0.00     0.166 HD
BRANCH   9  11
HETATM   11  C5  UNL     1      26.488   1.910  52.149  1.00  0.00     0.033 A 
HETATM   12  C4  UNL     1      27.632   2.108  52.893  1.00  0.00     0.044 A 
HETATM   13  C3  UNL     1      28.350   0.968  53.265  1.00  0.00     0.013 A 
HETATM   14  C2  UNL     1      29.508   0.717  53.987  1.00  0.00     0.152 A 
HETATM   15  C18 UNL     1      27.875  -0.259  52.869  1.00  0.00     0.064 A 
HETATM   16  N2  UNL     1      29.695  -0.634  54.005  1.00  0.00    -0.184 NA
HETATM   17  N1  UNL     1      28.708  -1.215  53.330  1.00  0.00    -0.274 N 
HETATM   18  C1  UNL     1      28.585  -2.654  53.145  1.00  0.00     0.180 C 
HETATM   19  C17 UNL     1      26.741  -0.431  52.134  1.00  0.00     0.034 A 
HETATM   20  C16 UNL     1      26.018   0.667  51.755  1.00  0.00     0.032 A 
ENDBRANCH   9  11
ENDBRANCH   1   9
BRANCH   6  21
HETATM   21  P1  UNL     1      29.225   5.631  48.159  1.00  0.00     0.037 P 
HETATM   22  H9  UNL     1      29.570   4.323  48.618  1.00  0.00     0.092 HD
BRANCH  21  23
HETATM   23  O1  UNL     1      30.238   6.890  48.774  1.00  0.00    -0.360 OA
BRANCH  23  24
HETATM   24  C10 UNL     1      31.385   6.314  49.318  1.00  0.00     0.206 C 
BRANCH  24  25
HETATM   25  C11 UNL     1      32.528   6.654  48.363  1.00  0.00     0.173 C 
HETATM   26  C12 UNL     1      33.627   5.641  48.661  1.00  0.00     0.303 C 
HETATM   27  N6  UNL     1      34.843   5.952  47.968  1.00  0.00     0.088 N 
HETATM   28  C13 UNL     1      34.871   7.306  47.452  1.00  0.00     0.295 C 
HETATM   29  H15 UNL     1      35.651   5.811  48.611  1.00  0.00     0.316 HD
HETATM   30  C14 UNL     1      34.267   8.195  48.509  1.00  0.00     0.198 C 
HETATM   31  O2  UNL     1      32.920   7.945  48.611  1.00  0.00    -0.380 OA
ENDBRANCH  24  25
ENDBRANCH  23  24
ENDBRANCH  21  23
ENDBRANCH   6  21
TORSDOF 6
ENDMDL
MODEL 9
REMARK VINA RESULT:      -7.6      2.942      7.097
REMARK  6 active torsions:
REMARK  status: ('A' for Active; 'I' for Inactive)
REMARK    1  A    between atoms: C5_7  and  N3_8 
REMARK    2  A    between atoms: N3_8  and  C6_9 
REMARK    3  A    between atoms: C9_14  and  P1_15 
REMARK    4  A    between atoms: P1_15  and  O1_16 
REMARK    5  A    between atoms: O1_16  and  C10_17 
REMARK    6  A    between atoms: C10_17  and  C11_18 
ROOT
HETATM    1  C6  UNL     1      26.107   0.760  53.023  1.00  0.00     0.048 C 
HETATM    2  C7  UNL     1      27.156   0.070  53.408  1.00  0.00     0.132 C 
HETATM    3  N4  UNL     1      27.205  -0.214  54.646  1.00  0.00    -0.170 NA
HETATM    4  N5  UNL     1      25.992  -0.530  55.270  1.00  0.00    -0.281 N 
HETATM    5  C8  UNL     1      24.795  -0.612  54.467  1.00  0.00     0.036 C 
HETATM    6  C9  UNL     1      23.621  -1.047  54.948  1.00  0.00     0.059 C 
HETATM    7  C15 UNL     1      24.946  -0.169  53.034  1.00  0.00     0.118 C 
HETATM    8  H7  UNL     1      25.894  -0.712  56.291  1.00  0.00     0.189 HD
ENDROOT
BRANCH   1   9
HETATM    9  N3  UNL     1      26.343   2.152  52.713  1.00  0.00    -0.357 N 
HETATM   10  H6  UNL     1      27.248   2.283  53.218  1.00  0.00     0.166 HD
BRANCH   9  11
HETATM   11  C5  UNL     1      25.346   2.793  51.900  1.00  0.00     0.033 A 
HETATM   12  C4  UNL     1      24.250   3.188  52.638  1.00  0.00     0.044 A 
HETATM   13  C3  UNL     1      23.216   3.822  51.946  1.00  0.00     0.013 A 
HETATM   14  C2  UNL     1      21.982   4.361  52.282  1.00  0.00     0.152 A 
HETATM   15  C18 UNL     1      23.356   4.008  50.592  1.00  0.00     0.064 A 
HETATM   16  N2  UNL     1      21.423   4.849  51.137  1.00  0.00    -0.184 NA
HETATM   17  N1  UNL     1      22.256   4.632  50.124  1.00  0.00    -0.274 N 
HETATM   18  C1  UNL     1      21.983   5.025  48.749  1.00  0.00     0.180 C 
HETATM   19  C17 UNL     1      24.448   3.609  49.881  1.00  0.00     0.034 A 
HETATM   20  C16 UNL     1      25.477   2.985  50.534  1.00  0.00     0.032 A 
ENDBRANCH   9  11
ENDBRANCH   1   9
BRANCH   6  21
HETATM   21  P1  UNL     1      22.071  -1.184  54.014  1.00  0.00     0.037 P 
HETATM   22  H9  UNL     1      22.102  -2.174  52.984  1.00  0.00     0.092 HD
BRANCH  21  23
HETATM   23  O1  UNL     1      21.612   0.392  53.470  1.00  0.00    -0.360 OA
BRANCH  23  24
HETATM   24  C10 UNL     1      20.304   0.336  52.993  1.00  0.00     0.206 C 
BRANCH  24  25
HETATM   25  C11 UNL     1      20.290   1.133  51.689  1.00  0.00     0.173 C 
HETATM   26  C12 UNL     1      19.107   0.595  50.892  1.00  0.00     0.303 C 
HETATM   27  N6  UNL     1      19.079   1.122  49.559  1.00  0.00     0.088 N 
HETATM   28  C13 UNL     1      20.331   1.733  49.163  1.00  0.00     0.295 C 
HETATM   29  H15 UNL     1      18.842   0.356  48.893  1.00  0.00     0.316 HD
HETATM   30  C14 UNL     1      21.438   0.852  49.683  1.00  0.00     0.198 C 
HETATM   31  O2  UNL     1      21.488   0.932  51.054  1.00  0.00    -0.380 OA
ENDBRANCH  24  25
ENDBRANCH  23  24
ENDBRANCH  21  23
ENDBRANCH   6  21
TORSDOF 6
ENDMDL
