MODEL 1
REMARK VINA RESULT:      -9.5      0.000      0.000
REMARK  5 active torsions:
REMARK  status: ('A' for Active; 'I' for Inactive)
REMARK    1  A    between atoms: O1_2  and  C2_3 
REMARK    2  A    between atoms: O2_7  and  C6_8 
REMARK    3  A    between atoms: C9_11  and  N1_12 
REMARK       I    between atoms: N1_12  and  C10_13 
REMARK       I    between atoms: C10_13  and  N2_15 
REMARK    4  A    between atoms: N2_15  and  C11_16 
REMARK    5  A    between atoms: C25_32  and  N4_33 
ROOT
HETATM    1  C6  UNL     1      27.866   6.494  48.502  1.00  0.00    -0.026 A 
HETATM    2  C7  UNL     1      28.075   5.131  48.575  1.00  0.00     0.014 A 
HETATM    3  C8  UNL     1      27.150   4.165  48.899  1.00  0.00     0.030 A 
HETATM    4  C9  UNL     1      25.867   4.626  49.185  1.00  0.00     0.036 A 
HETATM    5  C18 UNL     1      25.579   5.993  49.135  1.00  0.00     0.030 A 
HETATM    6  C19 UNL     1      26.581   6.925  48.792  1.00  0.00     0.014 A 
ENDROOT
BRANCH   1   7
HETATM    7  O2  UNL     1      28.563   7.610  48.208  1.00  0.00     0.000 OA
HETATM    8  C5  UNL     1      29.980   7.799  48.470  1.00  0.00     0.106 A 
HETATM    9  C4  UNL     1      29.189   8.864  48.736  1.00  0.00     0.040 A 
HETATM   10  N3  UNL     1      31.177   8.330  48.827  1.00  0.00    -0.263 NA
HETATM   11  C2  UNL     1      29.282   8.868  47.437  1.00  0.00     0.106 A 
HETATM   12  C3  UNL     1      29.410   7.550  48.277  1.00  0.00     0.073 A 
HETATM   13  C25 UNL     1      28.999  10.037  49.010  1.00  0.00     0.073 A 
HETATM   14  C23 UNL     1      29.050  10.317  47.759  1.00  0.00     0.031 A 
HETATM   15  C24 UNL     1      28.821  11.437  48.550  1.00  0.00     0.039 A 
HETATM   16  C22 UNL     1      29.685  10.896  46.494  1.00  0.00     0.042 C 
HETATM   17  C21 UNL     1      31.204  10.707  46.666  1.00  0.00     0.177 C 
HETATM   18  O4  UNL     1      31.545   9.345  46.959  1.00  0.00    -0.345 OA
HETATM   19  C20 UNL     1      32.025   9.049  48.254  1.00  0.00     0.246 C 
BRANCH  13  20
HETATM   20  N4  UNL     1      28.966   9.622  50.237  1.00  0.00    -0.328 NA
HETATM   21  H24 UNL     1      29.819   9.452  50.769  1.00  0.00     0.180 HD
ENDBRANCH  13  20
BRANCH  11  22
HETATM   22  O1  UNL     1      29.399   8.688  46.034  1.00  0.00    -0.381 OA
HETATM   23  C1  UNL     1      28.272   8.477  45.248  1.00  0.00     0.202 C 
ENDBRANCH  11  22
ENDBRANCH   1   7
BRANCH   4  24
HETATM   24  N1  UNL     1      24.781   3.763  49.461  1.00  0.00    -0.309 N 
HETATM   25  C10 UNL     1      24.542   2.911  50.546  1.00  0.00     0.325 C 
HETATM   26  O3  UNL     1      25.391   2.887  51.442  1.00  0.00    -0.247 OA
HETATM   27  N2  UNL     1      23.415   2.097  50.665  1.00  0.00    -0.309 N 
HETATM   28  H8  UNL     1      22.746   2.183  49.874  1.00  0.00     0.170 HD
HETATM   29  H7  UNL     1      24.000   3.732  48.750  1.00  0.00     0.170 HD
BRANCH  27  30
HETATM   30  C11 UNL     1      23.081   1.199  51.700  1.00  0.00     0.036 A 
HETATM   31  C12 UNL     1      21.750   0.852  51.851  1.00  0.00     0.030 A 
HETATM   32  C13 UNL     1      21.278  -0.012  52.808  1.00  0.00     0.009 A 
HETATM   33  C14 UNL     1      22.159  -0.609  53.712  1.00  0.00    -0.062 A 
HETATM   34  C15 UNL     1      21.521  -1.533  54.683  1.00  0.00     0.048 C 
HETATM   35  C16 UNL     1      23.458  -0.264  53.554  1.00  0.00     0.009 A 
HETATM   36  C17 UNL     1      23.955   0.597  52.608  1.00  0.00     0.030 A 
ENDBRANCH  27  30
ENDBRANCH   4  24
TORSDOF 5
ENDMDL
MODEL 2
REMARK VINA RESULT:      -9.3      1.505      2.542
REMARK  5 active torsions:
REMARK  status: ('A' for Active; 'I' for Inactive)
REMARK    1  A    between atoms: O1_2  and  C2_3 
REMARK    2  A    between atoms: O2_7  and  C6_8 
REMARK    3  A    between atoms: C9_11  and  N1_12 
REMARK       I    between atoms: N1_12  and  C10_13 
REMARK       I    between atoms: C10_13  and  N2_15 
REMARK    4  A    between atoms: N2_15  and  C11_16 
REMARK    5  A    between atoms: C25_32  and  N4_33 
ROOT
HETATM    1  C6  UNL     1      27.697   6.497  48.531  1.00  0.00    -0.026 A 
HETATM    2  C7  UNL     1      26.419   6.858  48.913  1.00  0.00     0.014 A 
HETATM    3  C8  UNL     1      25.394   6.016  49.280  1.00  0.00     0.030 A 
HETATM    4  C9  UNL     1      25.689   4.655  49.261  1.00  0.00     0.036 A 
HETATM    5  C18 UNL     1      26.961   4.212  48.883  1.00  0.00     0.030 A 
HETATM    6  C19 UNL     1      27.963   5.136  48.520  1.00  0.00     0.014 A 
ENDROOT
BRANCH   1   7
HETATM    7  O2  UNL     1      28.845   7.092  48.153  1.00  0.00     0.000 OA
HETATM    8  C5  UNL     1      29.113   8.518  48.247  1.00  0.00     0.106 A 
HETATM    9  C4  UNL     1      29.536   7.917  47.110  1.00  0.00     0.040 A 
HETATM   10  N3  UNL     1      29.518   9.785  47.980  1.00  0.00    -0.263 NA
HETATM   11  C2  UNL     1      30.414   7.548  47.998  1.00  0.00     0.106 A 
HETATM   12  C3  UNL     1      28.939   7.906  48.386  1.00  0.00     0.073 A 
HETATM   13  C25 UNL     1      30.162   7.886  46.064  1.00  0.00     0.073 A 
HETATM   14  C23 UNL     1      31.198   7.506  46.716  1.00  0.00     0.031 A 
HETATM   15  C24 UNL     1      31.435   7.617  45.351  1.00  0.00     0.039 A 
HETATM   16  C22 UNL     1      32.585   7.680  47.337  1.00  0.00     0.042 C 
HETATM   17  C21 UNL     1      32.662   9.152  47.782  1.00  0.00     0.177 C 
HETATM   18  O4  UNL     1      31.559   9.516  48.624  1.00  0.00    -0.345 OA
HETATM   19  C20 UNL     1      30.596  10.408  48.103  1.00  0.00     0.246 C 
BRANCH  13  20
HETATM   20  N4  UNL     1      29.047   8.269  45.525  1.00  0.00    -0.328 NA
HETATM   21  H24 UNL     1      28.461   7.626  44.991  1.00  0.00     0.180 HD
ENDBRANCH  13  20
BRANCH  11  22
HETATM   22  O1  UNL     1      31.234   7.156  49.089  1.00  0.00    -0.381 OA
HETATM   23  C1  UNL     1      31.499   5.813  49.332  1.00  0.00     0.202 C 
ENDBRANCH  11  22
ENDBRANCH   1   7
BRANCH   4  24
HETATM   24  N1  UNL     1      24.776   3.662  49.683  1.00  0.00    -0.309 N 
HETATM   25  C10 UNL     1      24.772   2.848  50.822  1.00  0.00     0.325 C 
HETATM   26  O3  UNL     1      25.696   2.998  51.627  1.00  0.00    -0.247 OA
HETATM   27  N2  UNL     1      23.797   1.887  51.091  1.00  0.00    -0.309 N 
HETATM   28  H8  UNL     1      23.050   1.830  50.371  1.00  0.00     0.170 HD
HETATM   29  H7  UNL     1      23.945   3.477  49.058  1.00  0.00     0.170 HD
BRANCH  27  30
HETATM   30  C11 UNL     1      23.701   1.011  52.193  1.00  0.00     0.036 A 
HETATM   31  C12 UNL     1      22.447   0.789  52.736  1.00  0.00     0.030 A 
HETATM   32  C13 UNL     1      22.200  -0.040  53.803  1.00  0.00     0.009 A 
HETATM   33  C14 UNL     1      23.250  -0.728  54.416  1.00  0.00    -0.062 A 
HETATM   34  C15 UNL     1      22.844  -1.600  55.546  1.00  0.00     0.048 C 
HETATM   35  C16 UNL     1      24.471  -0.503  53.876  1.00  0.00     0.009 A 
HETATM   36  C17 UNL     1      24.743   0.319  52.812  1.00  0.00     0.030 A 
ENDBRANCH  27  30
ENDBRANCH   4  24
TORSDOF 5
ENDMDL
MODEL 3
REMARK VINA RESULT:      -9.1      2.879     10.302
REMARK  5 active torsions:
REMARK  status: ('A' for Active; 'I' for Inactive)
REMARK    1  A    between atoms: O1_2  and  C2_3 
REMARK    2  A    between atoms: O2_7  and  C6_8 
REMARK    3  A    between atoms: C9_11  and  N1_12 
REMARK       I    between atoms: N1_12  and  C10_13 
REMARK       I    between atoms: C10_13  and  N2_15 
REMARK    4  A    between atoms: N2_15  and  C11_16 
REMARK    5  A    between atoms: C25_32  and  N4_33 
ROOT
HETATM    1  C6  UNL     1      25.297   4.745  49.761  1.00  0.00    -0.026 A 
HETATM    2  C7  UNL     1      25.457   6.060  49.370  1.00  0.00     0.014 A 
HETATM    3  C8  UNL     1      26.555   6.616  48.754  1.00  0.00     0.030 A 
HETATM    4  C9  UNL     1      27.616   5.747  48.505  1.00  0.00     0.036 A 
HETATM    5  C18 UNL     1      27.530   4.402  48.875  1.00  0.00     0.030 A 
HETATM    6  C19 UNL     1      26.368   3.904  49.502  1.00  0.00     0.014 A 
ENDROOT
BRANCH   1   7
HETATM    7  O2  UNL     1      24.362   3.970  50.343  1.00  0.00     0.000 OA
HETATM    8  C5  UNL     1      23.273   4.461  51.173  1.00  0.00     0.106 A 
HETATM    9  C4  UNL     1      23.883   3.335  51.614  1.00  0.00     0.040 A 
HETATM   10  N3  UNL     1      22.357   4.607  52.164  1.00  0.00    -0.263 NA
HETATM   11  C2  UNL     1      23.137   2.916  50.632  1.00  0.00     0.106 A 
HETATM   12  C3  UNL     1      23.697   4.379  50.685  1.00  0.00     0.073 A 
HETATM   13  C25 UNL     1      23.972   2.359  52.339  1.00  0.00     0.073 A 
HETATM   14  C23 UNL     1      23.237   1.705  51.516  1.00  0.00     0.031 A 
HETATM   15  C24 UNL     1      23.635   0.939  52.606  1.00  0.00     0.039 A 
HETATM   16  C22 UNL     1      21.950   1.023  51.050  1.00  0.00     0.042 C 
HETATM   17  C21 UNL     1      20.798   1.844  51.658  1.00  0.00     0.177 C 
HETATM   18  O4  UNL     1      20.907   3.238  51.340  1.00  0.00    -0.345 OA
HETATM   19  C20 UNL     1      21.223   4.131  52.388  1.00  0.00     0.246 C 
BRANCH  13  20
HETATM   20  N4  UNL     1      24.705   3.127  53.082  1.00  0.00    -0.328 NA
HETATM   21  H24 UNL     1      24.465   4.105  53.244  1.00  0.00     0.180 HD
ENDBRANCH  13  20
BRANCH  11  22
HETATM   22  O1  UNL     1      22.349   2.625  49.487  1.00  0.00    -0.381 OA
HETATM   23  C1  UNL     1      22.950   2.274  48.284  1.00  0.00     0.202 C 
ENDBRANCH  11  22
ENDBRANCH   1   7
BRANCH   4  24
HETATM   24  N1  UNL     1      28.785   6.137  47.813  1.00  0.00    -0.309 N 
HETATM   25  C10 UNL     1      30.125   6.155  48.218  1.00  0.00     0.325 C 
HETATM   26  O3  UNL     1      30.374   5.761  49.362  1.00  0.00    -0.247 OA
HETATM   27  N2  UNL     1      31.178   6.592  47.414  1.00  0.00    -0.309 N 
HETATM   28  H8  UNL     1      30.885   6.897  46.465  1.00  0.00     0.170 HD
HETATM   29  H7  UNL     1      28.665   6.475  46.820  1.00  0.00     0.170 HD
BRANCH  27  30
HETATM   30  C11 UNL     1      32.553   6.664  47.722  1.00  0.00     0.036 A 
HETATM   31  C12 UNL     1      33.059   7.881  48.144  1.00  0.00     0.030 A 
HETATM   32  C13 UNL     1      34.371   8.100  48.482  1.00  0.00     0.009 A 
HETATM   33  C14 UNL     1      35.298   7.057  48.414  1.00  0.00    -0.062 A 
HETATM   34  C15 UNL     1      36.677   7.424  48.821  1.00  0.00     0.048 C 
HETATM   35  C16 UNL     1      34.792   5.872  48.000  1.00  0.00     0.009 A 
HETATM   36  C17 UNL     1      33.486   5.628  47.656  1.00  0.00     0.030 A 
ENDBRANCH  27  30
ENDBRANCH   4  24
TORSDOF 5
ENDMDL
MODEL 4
REMARK VINA RESULT:      -9.0      6.859     10.023
REMARK  5 active torsions:
REMARK  status: ('A' for Active; 'I' for Inactive)
REMARK    1  A    between atoms: O1_2  and  C2_3 
REMARK    2  A    between atoms: O2_7  and  C6_8 
REMARK    3  A    between atoms: C9_11  and  N1_12 
REMARK       I    between atoms: N1_12  and  C10_13 
REMARK       I    between atoms: C10_13  and  N2_15 
REMARK    4  A    between atoms: N2_15  and  C11_16 
REMARK    5  A    between atoms: C25_32  and  N4_33 
ROOT
HETATM    1  C6  UNL     1      23.610   0.031  53.311  1.00  0.00    -0.026 A 
HETATM    2  C7  UNL     1      22.614   0.511  52.483  1.00  0.00     0.014 A 
HETATM    3  C8  UNL     1      21.268   0.228  52.554  1.00  0.00     0.030 A 
HETATM    4  C9  UNL     1      20.883  -0.638  53.574  1.00  0.00     0.036 A 
HETATM    5  C18 UNL     1      21.835  -1.167  54.451  1.00  0.00     0.030 A 
HETATM    6  C19 UNL     1      23.198  -0.829  54.317  1.00  0.00     0.014 A 
ENDROOT
BRANCH   1   7
HETATM    7  O2  UNL     1      24.943   0.154  53.464  1.00  0.00     0.000 OA
HETATM    8  C5  UNL     1      25.743   1.250  52.942  1.00  0.00     0.106 A 
HETATM    9  C4  UNL     1      26.290   0.017  52.820  1.00  0.00     0.040 A 
HETATM   10  N3  UNL     1      26.733   1.978  52.367  1.00  0.00    -0.263 NA
HETATM   11  C2  UNL     1      26.457   0.305  54.080  1.00  0.00     0.106 A 
HETATM   12  C3  UNL     1      25.278   0.905  53.240  1.00  0.00     0.073 A 
HETATM   13  C25 UNL     1      27.209  -0.745  52.580  1.00  0.00     0.073 A 
HETATM   14  C23 UNL     1      27.596  -0.633  53.797  1.00  0.00     0.031 A 
HETATM   15  C24 UNL     1      28.403  -1.489  53.055  1.00  0.00     0.039 A 
HETATM   16  C22 UNL     1      28.519  -0.155  54.919  1.00  0.00     0.042 C 
HETATM   17  C21 UNL     1      29.041   1.223  54.470  1.00  0.00     0.177 C 
HETATM   18  O4  UNL     1      27.972   2.116  54.127  1.00  0.00    -0.345 OA
HETATM   19  C20 UNL     1      27.814   2.464  52.768  1.00  0.00     0.246 C 
BRANCH  13  20
HETATM   20  N4  UNL     1      26.714  -0.775  51.383  1.00  0.00    -0.328 NA
HETATM   21  H24 UNL     1      26.117  -0.025  51.031  1.00  0.00     0.180 HD
ENDBRANCH  13  20
BRANCH  11  22
HETATM   22  O1  UNL     1      26.484   0.717  55.438  1.00  0.00    -0.381 OA
HETATM   23  C1  UNL     1      25.957  -0.095  56.436  1.00  0.00     0.202 C 
ENDBRANCH  11  22
ENDBRANCH   1   7
BRANCH   4  24
HETATM   24  N1  UNL     1      19.534  -0.970  53.835  1.00  0.00    -0.309 N 
HETATM   25  C10 UNL     1      18.401  -0.910  53.014  1.00  0.00     0.325 C 
HETATM   26  O3  UNL     1      18.565  -0.518  51.855  1.00  0.00    -0.247 OA
HETATM   27  N2  UNL     1      17.116  -1.260  53.429  1.00  0.00    -0.309 N 
HETATM   28  H8  UNL     1      17.066  -1.588  54.414  1.00  0.00     0.170 HD
HETATM   29  H7  UNL     1      19.305  -1.329  54.802  1.00  0.00     0.170 HD
BRANCH  27  30
HETATM   30  C11 UNL     1      15.912  -1.227  52.696  1.00  0.00     0.036 A 
HETATM   31  C12 UNL     1      15.151  -0.072  52.753  1.00  0.00     0.030 A 
HETATM   32  C13 UNL     1      13.962   0.107  52.089  1.00  0.00     0.009 A 
HETATM   33  C14 UNL     1      13.444  -0.914  51.289  1.00  0.00    -0.062 A 
HETATM   34  C15 UNL     1      12.162  -0.585  50.617  1.00  0.00     0.048 C 
HETATM   35  C16 UNL     1      14.196  -2.038  51.241  1.00  0.00     0.009 A 
HETATM   36  C17 UNL     1      15.385  -2.241  51.895  1.00  0.00     0.030 A 
ENDBRANCH  27  30
ENDBRANCH   4  24
TORSDOF 5
ENDMDL
MODEL 5
REMARK VINA RESULT:      -9.0      1.555      2.587
REMARK  5 active torsions:
REMARK  status: ('A' for Active; 'I' for Inactive)
REMARK    1  A    between atoms: O1_2  and  C2_3 
REMARK    2  A    between atoms: O2_7  and  C6_8 
REMARK    3  A    between atoms: C9_11  and  N1_12 
REMARK       I    between atoms: N1_12  and  C10_13 
REMARK       I    between atoms: C10_13  and  N2_15 
REMARK    4  A    between atoms: N2_15  and  C11_16 
REMARK    5  A    between atoms: C25_32  and  N4_33 
ROOT
HETATM    1  C6  UNL     1      27.345   7.836  49.024  1.00  0.00    -0.026 A 
HETATM    2  C7  UNL     1      26.195   7.676  49.774  1.00  0.00     0.014 A 
HETATM    3  C8  UNL     1      25.502   6.508  49.991  1.00  0.00     0.030 A 
HETATM    4  C9  UNL     1      26.025   5.369  49.383  1.00  0.00     0.036 A 
HETATM    5  C18 UNL     1      27.184   5.452  48.606  1.00  0.00     0.030 A 
HETATM    6  C19 UNL     1      27.842   6.687  48.430  1.00  0.00     0.014 A 
ENDROOT
BRANCH   1   7
HETATM    7  O2  UNL     1      28.196   8.821  48.676  1.00  0.00     0.000 OA
HETATM    8  C5  UNL     1      28.043  10.220  49.041  1.00  0.00     0.106 A 
HETATM    9  C4  UNL     1      28.448   9.988  47.770  1.00  0.00     0.040 A 
HETATM   10  N3  UNL     1      28.012  11.576  49.009  1.00  0.00    -0.263 NA
HETATM   11  C2  UNL     1      29.519   9.771  48.478  1.00  0.00     0.106 A 
HETATM   12  C3  UNL     1      28.080   9.570  49.065  1.00  0.00     0.073 A 
HETATM   13  C25 UNL     1      28.890  10.336  46.689  1.00  0.00     0.073 A 
HETATM   14  C23 UNL     1      30.078  10.200  47.151  1.00  0.00     0.031 A 
HETATM   15  C24 UNL     1      30.064  10.612  45.824  1.00  0.00     0.039 A 
HETATM   16  C22 UNL     1      31.429  10.697  47.666  1.00  0.00     0.042 C 
HETATM   17  C21 UNL     1      31.135  12.020  48.399  1.00  0.00     0.177 C 
HETATM   18  O4  UNL     1      30.115  11.864  49.395  1.00  0.00    -0.345 OA
HETATM   19  C20 UNL     1      28.865  12.479  49.161  1.00  0.00     0.246 C 
BRANCH  13  20
HETATM   20  N4  UNL     1      27.644  10.430  46.344  1.00  0.00    -0.328 NA
HETATM   21  H24 UNL     1      27.354  10.398  45.367  1.00  0.00     0.180 HD
ENDBRANCH  13  20
BRANCH  11  22
HETATM   22  O1  UNL     1      30.573   9.481  49.385  1.00  0.00    -0.381 OA
HETATM   23  C1  UNL     1      31.216   8.249  49.355  1.00  0.00     0.202 C 
ENDBRANCH  11  22
ENDBRANCH   1   7
BRANCH   4  24
HETATM   24  N1  UNL     1      25.481   4.077  49.566  1.00  0.00    -0.309 N 
HETATM   25  C10 UNL     1      24.700   3.552  50.603  1.00  0.00     0.325 C 
HETATM   26  O3  UNL     1      24.403   4.315  51.527  1.00  0.00    -0.247 OA
HETATM   27  N2  UNL     1      24.251   2.232  50.650  1.00  0.00    -0.309 N 
HETATM   28  H8  UNL     1      24.536   1.660  49.831  1.00  0.00     0.170 HD
HETATM   29  H7  UNL     1      25.675   3.362  48.813  1.00  0.00     0.170 HD
BRANCH  27  30
HETATM   30  C11 UNL     1      23.475   1.599  51.643  1.00  0.00     0.036 A 
HETATM   31  C12 UNL     1      24.116   0.727  52.506  1.00  0.00     0.030 A 
HETATM   32  C13 UNL     1      23.493   0.044  53.523  1.00  0.00     0.009 A 
HETATM   33  C14 UNL     1      22.124   0.207  53.742  1.00  0.00    -0.062 A 
HETATM   34  C15 UNL     1      21.580  -0.576  54.880  1.00  0.00     0.048 C 
HETATM   35  C16 UNL     1      21.508   1.062  52.892  1.00  0.00     0.009 A 
HETATM   36  C17 UNL     1      22.106   1.754  51.870  1.00  0.00     0.030 A 
ENDBRANCH  27  30
ENDBRANCH   4  24
TORSDOF 5
ENDMDL
MODEL 6
REMARK VINA RESULT:      -9.0      8.766     14.150
REMARK  5 active torsions:
REMARK  status: ('A' for Active; 'I' for Inactive)
REMARK    1  A    between atoms: O1_2  and  C2_3 
REMARK    2  A    between atoms: O2_7  and  C6_8 
REMARK    3  A    between atoms: C9_11  and  N1_12 
REMARK       I    between atoms: N1_12  and  C10_13 
REMARK       I    between atoms: C10_13  and  N2_15 
REMARK    4  A    between atoms: N2_15  and  C11_16 
REMARK    5  A    between atoms: C25_32  and  N4_33 
ROOT
HETATM    1  C6  UNL     1      18.057  -0.751  52.335  1.00  0.00    -0.026 A 
HETATM    2  C7  UNL     1      18.861  -0.982  53.435  1.00  0.00     0.014 A 
HETATM    3  C8  UNL     1      20.154  -0.549  53.623  1.00  0.00     0.030 A 
HETATM    4  C9  UNL     1      20.700   0.202  52.585  1.00  0.00     0.036 A 
HETATM    5  C18 UNL     1      19.948   0.475  51.438  1.00  0.00     0.030 A 
HETATM    6  C19 UNL     1      18.626  -0.002  51.317  1.00  0.00     0.014 A 
ENDROOT
BRANCH   1   7
HETATM    7  O2  UNL     1      16.807  -1.034  51.919  1.00  0.00     0.000 OA
HETATM    8  C5  UNL     1      15.593  -0.478  52.494  1.00  0.00     0.106 A 
HETATM    9  C4  UNL     1      15.545  -1.796  52.191  1.00  0.00     0.040 A 
HETATM   10  N3  UNL     1      14.338  -0.329  52.989  1.00  0.00    -0.263 NA
HETATM   11  C2  UNL     1      15.437  -1.211  51.033  1.00  0.00     0.106 A 
HETATM   12  C3  UNL     1      16.187  -0.542  52.235  1.00  0.00     0.073 A 
HETATM   13  C25 UNL     1      14.963  -2.854  52.029  1.00  0.00     0.073 A 
HETATM   14  C23 UNL     1      14.715  -2.511  50.819  1.00  0.00     0.031 A 
HETATM   15  C24 UNL     1      14.210  -3.767  51.133  1.00  0.00     0.039 A 
HETATM   16  C22 UNL     1      13.824  -2.045  49.666  1.00  0.00     0.042 C 
HETATM   17  C21 UNL     1      12.767  -1.123  50.302  1.00  0.00     0.177 C 
HETATM   18  O4  UNL     1      13.365  -0.078  51.079  1.00  0.00    -0.345 OA
HETATM   19  C20 UNL     1      13.212  -0.128  52.483  1.00  0.00     0.246 C 
BRANCH  13  20
HETATM   20  N4  UNL     1      15.282  -3.082  53.264  1.00  0.00    -0.328 NA
HETATM   21  H24 UNL     1      15.879  -2.443  53.790  1.00  0.00     0.180 HD
ENDBRANCH  13  20
BRANCH  11  22
HETATM   22  O1  UNL     1      15.422  -0.437  49.842  1.00  0.00    -0.381 OA
HETATM   23  C1  UNL     1      16.247  -0.766  48.772  1.00  0.00     0.202 C 
ENDBRANCH  11  22
ENDBRANCH   1   7
BRANCH   4  24
HETATM   24  N1  UNL     1      21.985   0.787  52.650  1.00  0.00    -0.309 N 
HETATM   25  C10 UNL     1      23.230   0.230  52.968  1.00  0.00     0.325 C 
HETATM   26  O3  UNL     1      23.257  -0.976  53.232  1.00  0.00    -0.247 OA
HETATM   27  N2  UNL     1      24.422   0.953  53.009  1.00  0.00    -0.309 N 
HETATM   28  H8  UNL     1      24.314   1.958  52.765  1.00  0.00     0.170 HD
HETATM   29  H7  UNL     1      22.056   1.817  52.425  1.00  0.00     0.170 HD
BRANCH  27  30
HETATM   30  C11 UNL     1      25.719   0.500  53.326  1.00  0.00     0.036 A 
HETATM   31  C12 UNL     1      26.379  -0.278  52.391  1.00  0.00     0.030 A 
HETATM   32  C13 UNL     1      27.645  -0.785  52.559  1.00  0.00     0.009 A 
HETATM   33  C14 UNL     1      28.356  -0.526  53.733  1.00  0.00    -0.062 A 
HETATM   34  C15 UNL     1      29.715  -1.119  53.779  1.00  0.00     0.048 C 
HETATM   35  C16 UNL     1      27.700   0.237  54.639  1.00  0.00     0.009 A 
HETATM   36  C17 UNL     1      26.437   0.753  54.496  1.00  0.00     0.030 A 
ENDBRANCH  27  30
ENDBRANCH   4  24
TORSDOF 5
ENDMDL
MODEL 7
REMARK VINA RESULT:      -8.8      4.512      7.664
REMARK  5 active torsions:
REMARK  status: ('A' for Active; 'I' for Inactive)
REMARK    1  A    between atoms: O1_2  and  C2_3 
REMARK    2  A    between atoms: O2_7  and  C6_8 
REMARK    3  A    between atoms: C9_11  and  N1_12 
REMARK       I    between atoms: N1_12  and  C10_13 
REMARK       I    between atoms: C10_13  and  N2_15 
REMARK    4  A    between atoms: N2_15  and  C11_16 
REMARK    5  A    between atoms: C25_32  and  N4_33 
ROOT
HETATM    1  C6  UNL     1      22.373   2.736  51.968  1.00  0.00    -0.026 A 
HETATM    2  C7  UNL     1      22.822   1.644  52.684  1.00  0.00     0.014 A 
HETATM    3  C8  UNL     1      22.053   0.706  53.335  1.00  0.00     0.030 A 
HETATM    4  C9  UNL     1      20.674   0.890  53.257  1.00  0.00     0.036 A 
HETATM    5  C18 UNL     1      20.145   1.975  52.552  1.00  0.00     0.030 A 
HETATM    6  C19 UNL     1      20.997   2.895  51.907  1.00  0.00     0.014 A 
ENDROOT
BRANCH   1   7
HETATM    7  O2  UNL     1      22.887   3.757  51.254  1.00  0.00     0.000 OA
HETATM    8  C5  UNL     1      24.281   3.878  50.861  1.00  0.00     0.106 A 
HETATM    9  C4  UNL     1      23.692   5.020  51.286  1.00  0.00     0.040 A 
HETATM   10  N3  UNL     1      25.520   4.365  50.598  1.00  0.00    -0.263 NA
HETATM   11  C2  UNL     1      23.218   4.860  50.084  1.00  0.00     0.106 A 
HETATM   12  C3  UNL     1      23.680   3.648  50.964  1.00  0.00     0.073 A 
HETATM   13  C25 UNL     1      23.650   6.228  51.448  1.00  0.00     0.073 A 
HETATM   14  C23 UNL     1      23.162   6.350  50.268  1.00  0.00     0.031 A 
HETATM   15  C24 UNL     1      23.306   7.570  50.918  1.00  0.00     0.039 A 
HETATM   16  C22 UNL     1      23.197   6.726  48.787  1.00  0.00     0.042 C 
HETATM   17  C21 UNL     1      24.640   6.454  48.322  1.00  0.00     0.177 C 
HETATM   18  O4  UNL     1      25.060   5.118  48.629  1.00  0.00    -0.345 OA
HETATM   19  C20 UNL     1      26.047   4.949  49.625  1.00  0.00     0.246 C 
BRANCH  13  20
HETATM   20  N4  UNL     1      24.143   5.968  52.618  1.00  0.00    -0.328 NA
HETATM   21  H24 UNL     1      25.059   5.533  52.729  1.00  0.00     0.180 HD
ENDBRANCH  13  20
BRANCH  11  22
HETATM   22  O1  UNL     1      22.718   4.503  48.803  1.00  0.00    -0.381 OA
HETATM   23  C1  UNL     1      21.353   4.351  48.591  1.00  0.00     0.202 C 
ENDBRANCH  11  22
ENDBRANCH   1   7
BRANCH   4  24
HETATM   24  N1  UNL     1      19.742  -0.022  53.802  1.00  0.00    -0.309 N 
HETATM   25  C10 UNL     1      18.812  -0.863  53.179  1.00  0.00     0.325 C 
HETATM   26  O3  UNL     1      18.774  -0.845  51.945  1.00  0.00    -0.247 OA
HETATM   27  N2  UNL     1      17.936  -1.703  53.867  1.00  0.00    -0.309 N 
HETATM   28  H8  UNL     1      18.039  -1.666  54.900  1.00  0.00     0.170 HD
HETATM   29  H7  UNL     1      19.717  -0.112  54.855  1.00  0.00     0.170 HD
BRANCH  27  30
HETATM   30  C11 UNL     1      16.958  -2.575  53.345  1.00  0.00     0.036 A 
HETATM   31  C12 UNL     1      17.036  -3.914  53.686  1.00  0.00     0.030 A 
HETATM   32  C13 UNL     1      16.154  -4.876  53.260  1.00  0.00     0.009 A 
HETATM   33  C14 UNL     1      15.089  -4.532  52.425  1.00  0.00    -0.062 A 
HETATM   34  C15 UNL     1      14.203  -5.663  52.050  1.00  0.00     0.048 C 
HETATM   35  C16 UNL     1      15.022  -3.220  52.098  1.00  0.00     0.009 A 
HETATM   36  C17 UNL     1      15.890  -2.241  52.510  1.00  0.00     0.030 A 
ENDBRANCH  27  30
ENDBRANCH   4  24
TORSDOF 5
ENDMDL
MODEL 8
REMARK VINA RESULT:      -8.6      6.423     10.141
REMARK  5 active torsions:
REMARK  status: ('A' for Active; 'I' for Inactive)
REMARK    1  A    between atoms: O1_2  and  C2_3 
REMARK    2  A    between atoms: O2_7  and  C6_8 
REMARK    3  A    between atoms: C9_11  and  N1_12 
REMARK       I    between atoms: N1_12  and  C10_13 
REMARK       I    between atoms: C10_13  and  N2_15 
REMARK    4  A    between atoms: N2_15  and  C11_16 
REMARK    5  A    between atoms: C25_32  and  N4_33 
ROOT
HETATM    1  C6  UNL     1      31.495   7.055  48.056  1.00  0.00    -0.026 A 
HETATM    2  C7  UNL     1      30.234   7.216  48.596  1.00  0.00     0.014 A 
HETATM    3  C8  UNL     1      29.646   8.395  48.996  1.00  0.00     0.030 A 
HETATM    4  C9  UNL     1      30.417   9.544  48.833  1.00  0.00     0.036 A 
HETATM    5  C18 UNL     1      31.705   9.461  48.295  1.00  0.00     0.030 A 
HETATM    6  C19 UNL     1      32.240   8.215  47.907  1.00  0.00     0.014 A 
ENDROOT
BRANCH   1   7
HETATM    7  O2  UNL     1      32.275   6.062  47.588  1.00  0.00     0.000 OA
HETATM    8  C5  UNL     1      32.446   5.730  46.183  1.00  0.00     0.106 A 
HETATM    9  C4  UNL     1      32.321   4.675  47.021  1.00  0.00     0.040 A 
HETATM   10  N3  UNL     1      32.578   5.057  45.012  1.00  0.00    -0.263 NA
HETATM   11  C2  UNL     1      33.541   5.084  47.221  1.00  0.00     0.106 A 
HETATM   12  C3  UNL     1      32.406   6.055  46.746  1.00  0.00     0.073 A 
HETATM   13  C25 UNL     1      32.373   3.487  47.289  1.00  0.00     0.073 A 
HETATM   14  C23 UNL     1      33.620   3.621  47.555  1.00  0.00     0.031 A 
HETATM   15  C24 UNL     1      33.170   2.319  47.739  1.00  0.00     0.039 A 
HETATM   16  C22 UNL     1      35.117   3.448  47.296  1.00  0.00     0.042 C 
HETATM   17  C21 UNL     1      35.285   3.499  45.765  1.00  0.00     0.177 C 
HETATM   18  O4  UNL     1      34.693   4.677  45.201  1.00  0.00    -0.345 OA
HETATM   19  C20 UNL     1      33.534   4.519  44.410  1.00  0.00     0.246 C 
BRANCH  13  20
HETATM   20  N4  UNL     1      31.111   3.488  46.996  1.00  0.00    -0.328 NA
HETATM   21  H24 UNL     1      30.590   4.357  46.871  1.00  0.00     0.180 HD
ENDBRANCH  13  20
BRANCH  11  22
HETATM   22  O1  UNL     1      34.809   5.698  47.400  1.00  0.00    -0.381 OA
HETATM   23  C1  UNL     1      35.204   6.162  48.649  1.00  0.00     0.202 C 
ENDBRANCH  11  22
ENDBRANCH   1   7
BRANCH   4  24
HETATM   24  N1  UNL     1      29.936  10.842  49.120  1.00  0.00    -0.309 N 
HETATM   25  C10 UNL     1      29.204  11.741  48.335  1.00  0.00     0.325 C 
HETATM   26  O3  UNL     1      28.894  11.373  47.198  1.00  0.00    -0.247 OA
HETATM   27  N2  UNL     1      28.816  13.012  48.760  1.00  0.00    -0.309 N 
HETATM   28  H8  UNL     1      29.108  13.239  49.731  1.00  0.00     0.170 HD
HETATM   29  H7  UNL     1      30.146  11.231  50.079  1.00  0.00     0.170 HD
BRANCH  27  30
HETATM   30  C11 UNL     1      28.093  13.996  48.054  1.00  0.00     0.036 A 
HETATM   31  C12 UNL     1      26.729  14.076  48.271  1.00  0.00     0.030 A 
HETATM   32  C13 UNL     1      25.899  14.985  47.661  1.00  0.00     0.009 A 
HETATM   33  C14 UNL     1      26.417  15.911  46.753  1.00  0.00    -0.062 A 
HETATM   34  C15 UNL     1      25.416  16.843  46.178  1.00  0.00     0.048 C 
HETATM   35  C16 UNL     1      27.752  15.822  46.549  1.00  0.00     0.009 A 
HETATM   36  C17 UNL     1      28.602  14.925  47.144  1.00  0.00     0.030 A 
ENDBRANCH  27  30
ENDBRANCH   4  24
TORSDOF 5
ENDMDL
MODEL 9
REMARK VINA RESULT:      -8.6      2.190     10.794
REMARK  5 active torsions:
REMARK  status: ('A' for Active; 'I' for Inactive)
REMARK    1  A    between atoms: O1_2  and  C2_3 
REMARK    2  A    between atoms: O2_7  and  C6_8 
REMARK    3  A    between atoms: C9_11  and  N1_12 
REMARK       I    between atoms: N1_12  and  C10_13 
REMARK       I    between atoms: C10_13  and  N2_15 
REMARK    4  A    between atoms: N2_15  and  C11_16 
REMARK    5  A    between atoms: C25_32  and  N4_33 
ROOT
HETATM    1  C6  UNL     1      24.537   3.984  49.832  1.00  0.00    -0.026 A 
HETATM    2  C7  UNL     1      24.739   5.255  49.330  1.00  0.00     0.014 A 
HETATM    3  C8  UNL     1      25.915   5.779  48.844  1.00  0.00     0.030 A 
HETATM    4  C9  UNL     1      27.015   4.925  48.866  1.00  0.00     0.036 A 
HETATM    5  C18 UNL     1      26.890   3.624  49.362  1.00  0.00     0.030 A 
HETATM    6  C19 UNL     1      25.649   3.156  49.843  1.00  0.00     0.014 A 
ENDROOT
BRANCH   1   7
HETATM    7  O2  UNL     1      23.531   3.244  50.337  1.00  0.00     0.000 OA
HETATM    8  C5  UNL     1      22.435   3.766  51.137  1.00  0.00     0.106 A 
HETATM    9  C4  UNL     1      22.956   2.589  51.556  1.00  0.00     0.040 A 
HETATM   10  N3  UNL     1      21.483   3.927  52.090  1.00  0.00    -0.263 NA
HETATM   11  C2  UNL     1      22.234   2.256  50.524  1.00  0.00     0.106 A 
HETATM   12  C3  UNL     1      22.876   3.679  50.665  1.00  0.00     0.073 A 
HETATM   13  C25 UNL     1      22.952   1.580  52.240  1.00  0.00     0.073 A 
HETATM   14  C23 UNL     1      22.220   1.006  51.358  1.00  0.00     0.031 A 
HETATM   15  C24 UNL     1      22.519   0.173  52.429  1.00  0.00     0.039 A 
HETATM   16  C22 UNL     1      20.920   0.423  50.803  1.00  0.00     0.042 C 
HETATM   17  C21 UNL     1      19.790   1.287  51.394  1.00  0.00     0.177 C 
HETATM   18  O4  UNL     1      19.996   2.684  51.143  1.00  0.00    -0.345 OA
HETATM   19  C20 UNL     1      20.312   3.513  52.242  1.00  0.00     0.246 C 
BRANCH  13  20
HETATM   20  N4  UNL     1      23.693   2.271  53.049  1.00  0.00    -0.328 NA
HETATM   21  H24 UNL     1      24.707   2.158  53.076  1.00  0.00     0.180 HD
ENDBRANCH  13  20
BRANCH  11  22
HETATM   22  O1  UNL     1      21.487   2.061  49.332  1.00  0.00    -0.381 OA
HETATM   23  C1  UNL     1      22.112   1.644  48.163  1.00  0.00     0.202 C 
ENDBRANCH  11  22
ENDBRANCH   1   7
BRANCH   4  24
HETATM   24  N1  UNL     1      28.276   5.278  48.333  1.00  0.00    -0.309 N 
HETATM   25  C10 UNL     1      28.863   6.531  48.124  1.00  0.00     0.325 C 
HETATM   26  O3  UNL     1      28.209   7.523  48.459  1.00  0.00    -0.247 OA
HETATM   27  N2  UNL     1      30.127   6.718  47.563  1.00  0.00    -0.309 N 
HETATM   28  H8  UNL     1      30.614   5.834  47.318  1.00  0.00     0.170 HD
HETATM   29  H7  UNL     1      28.909   4.487  48.033  1.00  0.00     0.170 HD
BRANCH  27  30
HETATM   30  C11 UNL     1      30.805   7.926  47.298  1.00  0.00     0.036 A 
HETATM   31  C12 UNL     1      30.727   8.444  46.017  1.00  0.00     0.030 A 
HETATM   32  C13 UNL     1      31.330   9.611  45.614  1.00  0.00     0.009 A 
HETATM   33  C14 UNL     1      32.081  10.362  46.520  1.00  0.00    -0.062 A 
HETATM   34  C15 UNL     1      32.665  11.607  45.961  1.00  0.00     0.048 C 
HETATM   35  C16 UNL     1      32.150   9.846  47.770  1.00  0.00     0.009 A 
HETATM   36  C17 UNL     1      31.559   8.683  48.196  1.00  0.00     0.030 A 
ENDBRANCH  27  30
ENDBRANCH   4  24
TORSDOF 5
ENDMDL
