MODEL 1
REMARK VINA RESULT:      -9.2      0.000      0.000
REMARK  4 active torsions:
REMARK  status: ('A' for Active; 'I' for Inactive)
REMARK    1  A    between atoms: C12_14  and  N3_15 
REMARK    2  A    between atoms: N3_15  and  C13_16 
REMARK    3  A    between atoms: C15_19  and  C16_20 
REMARK    4  A    between atoms: C16_20  and  N4_21 
ROOT
HETATM    1  C1  UNL     1      23.723   7.829  50.781  1.00  0.00     0.042 C 
HETATM    2  C2  UNL     1      24.185   6.569  50.849  1.00  0.00     0.020 C 
HETATM    3  C3  UNL     1      25.218   6.315  49.838  1.00  0.00     0.028 C 
HETATM    4  C4  UNL     1      26.078   5.429  49.305  1.00  0.00     0.002 C 
HETATM    5  C5  UNL     1      26.661   4.111  49.278  1.00  0.00    -0.001 C 
HETATM    6  C6  UNL     1      26.899   2.829  49.642  1.00  0.00     0.010 C 
HETATM    7  C7  UNL     1      26.032   2.537  50.848  1.00  0.00     0.118 A 
HETATM    8  N1  UNL     1      27.080   2.162  51.628  1.00  0.00    -0.264 NA
HETATM    9  C8  UNL     1      26.973   2.061  52.964  1.00  0.00     0.223 A 
HETATM   10  N2  UNL     1      25.685   2.407  53.184  1.00  0.00    -0.264 NA
HETATM   11  C9  UNL     1      24.899   2.726  52.192  1.00  0.00     0.120 A 
HETATM   12  C10 UNL     1      23.748   3.337  52.632  1.00  0.00     0.045 A 
HETATM   13  C11 UNL     1      22.895   3.864  51.700  1.00  0.00     0.076 A 
HETATM   14  C12 UNL     1      23.541   3.553  50.583  1.00  0.00     0.096 A 
HETATM   15  C21 UNL     1      24.355   3.146  49.624  1.00  0.00     0.046 A 
HETATM   16  C22 UNL     1      24.689   2.902  50.903  1.00  0.00     0.066 A 
HETATM   17  O2  UNL     1      21.698   4.561  51.921  1.00  0.00    -0.334 OA
HETATM   18  C23 UNL     1      21.925   5.909  51.318  1.00  0.00     0.297 C 
HETATM   19  N5  UNL     1      23.242   6.294  51.917  1.00  0.00    -0.369 N 
HETATM   20  H25 UNL     1      23.545   6.395  52.900  1.00  0.00     0.161 HD
ENDROOT
BRANCH  14  21
HETATM   21  N3  UNL     1      22.465   3.579  49.552  1.00  0.00    -0.372 N 
HETATM   22  H9  UNL     1      21.749   3.982  48.809  1.00  0.00     0.157 HD
BRANCH  21  23
HETATM   23  C13 UNL     1      21.867   2.297  49.212  1.00  0.00     0.176 A 
HETATM   24  O1  UNL     1      22.249   2.441  47.953  1.00  0.00    -0.204 OA
HETATM   25  C14 UNL     1      21.229   0.985  48.971  1.00  0.00     0.064 A 
HETATM   26  C15 UNL     1      21.045   1.259  50.244  1.00  0.00     0.082 A 
BRANCH  26  27
HETATM   27  C16 UNL     1      20.642   1.212  51.694  1.00  0.00     0.282 C 
BRANCH  27  28
HETATM   28  N4  UNL     1      20.949  -0.041  52.282  1.00  0.00     0.089 N 
HETATM   29  C17 UNL     1      20.261  -0.162  53.531  1.00  0.00     0.272 C 
HETATM   30  C18 UNL     1      21.313  -0.440  54.571  1.00  0.00     0.032 C 
HETATM   31  C19 UNL     1      22.614   0.018  53.933  1.00  0.00     0.032 C 
HETATM   32  C20 UNL     1      22.351  -0.223  52.472  1.00  0.00     0.272 C 
ENDBRANCH  27  28
ENDBRANCH  26  27
ENDBRANCH  21  23
ENDBRANCH  14  21
TORSDOF 4
ENDMDL
MODEL 2
REMARK VINA RESULT:      -7.9      2.128      4.525
REMARK  4 active torsions:
REMARK  status: ('A' for Active; 'I' for Inactive)
REMARK    1  A    between atoms: C12_14  and  N3_15 
REMARK    2  A    between atoms: N3_15  and  C13_16 
REMARK    3  A    between atoms: C15_19  and  C16_20 
REMARK    4  A    between atoms: C16_20  and  N4_21 
ROOT
HETATM    1  C1  UNL     1      18.317   2.764  48.598  1.00  0.00     0.042 C 
HETATM    2  C2  UNL     1      19.531   2.978  49.133  1.00  0.00     0.020 C 
HETATM    3  C3  UNL     1      20.604   2.681  48.178  1.00  0.00     0.028 C 
HETATM    4  C4  UNL     1      21.929   2.639  47.950  1.00  0.00     0.002 C 
HETATM    5  C5  UNL     1      23.284   2.834  48.401  1.00  0.00    -0.001 C 
HETATM    6  C6  UNL     1      24.302   3.170  49.227  1.00  0.00     0.010 C 
HETATM    7  C7  UNL     1      23.688   3.679  50.513  1.00  0.00     0.118 A 
HETATM    8  N1  UNL     1      24.332   4.874  50.460  1.00  0.00    -0.264 NA
HETATM    9  C8  UNL     1      23.956   5.921  51.213  1.00  0.00     0.223 A 
HETATM   10  N2  UNL     1      22.903   5.427  51.900  1.00  0.00    -0.264 NA
HETATM   11  C9  UNL     1      22.510   4.194  51.728  1.00  0.00     0.120 A 
HETATM   12  C10 UNL     1      21.263   3.978  52.266  1.00  0.00     0.045 A 
HETATM   13  C11 UNL     1      20.653   2.774  52.033  1.00  0.00     0.076 A 
HETATM   14  C12 UNL     1      21.586   2.173  51.304  1.00  0.00     0.096 A 
HETATM   15  C21 UNL     1      22.640   1.787  50.605  1.00  0.00     0.046 A 
HETATM   16  C22 UNL     1      22.637   3.018  51.146  1.00  0.00     0.066 A 
HETATM   17  O2  UNL     1      19.379   2.357  52.444  1.00  0.00    -0.334 OA
HETATM   18  C23 UNL     1      18.640   2.082  51.174  1.00  0.00     0.297 C 
HETATM   19  N5  UNL     1      18.900   3.331  50.392  1.00  0.00    -0.369 N 
HETATM   20  H25 UNL     1      18.702   4.324  50.597  1.00  0.00     0.161 HD
ENDROOT
BRANCH  14  21
HETATM   21  N3  UNL     1      21.269   0.727  51.477  1.00  0.00    -0.372 N 
HETATM   22  H9  UNL     1      20.890  -0.287  51.245  1.00  0.00     0.157 HD
BRANCH  21  23
HETATM   23  C13 UNL     1      21.637   0.135  52.755  1.00  0.00     0.176 A 
HETATM   24  O1  UNL     1      20.438  -0.415  52.856  1.00  0.00    -0.204 OA
HETATM   25  C14 UNL     1      22.109  -0.420  54.041  1.00  0.00     0.064 A 
HETATM   26  C15 UNL     1      23.103   0.290  53.556  1.00  0.00     0.082 A 
BRANCH  26  27
HETATM   27  C16 UNL     1      24.425   0.981  53.346  1.00  0.00     0.282 C 
BRANCH  27  28
HETATM   28  N4  UNL     1      25.267   0.246  52.475  1.00  0.00     0.089 N 
HETATM   29  C17 UNL     1      25.807  -0.880  53.173  1.00  0.00     0.272 C 
HETATM   30  C18 UNL     1      27.304  -0.775  53.058  1.00  0.00     0.032 C 
HETATM   31  C19 UNL     1      27.560   0.681  52.706  1.00  0.00     0.032 C 
HETATM   32  C20 UNL     1      26.320   1.042  51.936  1.00  0.00     0.272 C 
ENDBRANCH  27  28
ENDBRANCH  26  27
ENDBRANCH  21  23
ENDBRANCH  14  21
TORSDOF 4
ENDMDL
MODEL 3
REMARK VINA RESULT:      -7.5      2.063      6.401
REMARK  4 active torsions:
REMARK  status: ('A' for Active; 'I' for Inactive)
REMARK    1  A    between atoms: C12_14  and  N3_15 
REMARK    2  A    between atoms: N3_15  and  C13_16 
REMARK    3  A    between atoms: C15_19  and  C16_20 
REMARK    4  A    between atoms: C16_20  and  N4_21 
ROOT
HETATM    1  C1  UNL     1      22.066   0.233  52.352  1.00  0.00     0.042 C 
HETATM    2  C2  UNL     1      22.062   1.296  51.531  1.00  0.00     0.020 C 
HETATM    3  C3  UNL     1      21.829   0.904  50.137  1.00  0.00     0.028 C 
HETATM    4  C4  UNL     1      21.693   1.308  48.861  1.00  0.00     0.002 C 
HETATM    5  C5  UNL     1      21.660   2.361  47.878  1.00  0.00    -0.001 C 
HETATM    6  C6  UNL     1      21.694   3.617  47.373  1.00  0.00     0.010 C 
HETATM    7  C7  UNL     1      21.870   4.565  48.540  1.00  0.00     0.118 A 
HETATM    8  N1  UNL     1      20.755   5.285  48.246  1.00  0.00    -0.264 NA
HETATM    9  C8  UNL     1      20.196   6.126  49.132  1.00  0.00     0.223 A 
HETATM   10  N2  UNL     1      21.006   6.003  50.208  1.00  0.00    -0.264 NA
HETATM   11  C9  UNL     1      22.037   5.203  50.181  1.00  0.00     0.120 A 
HETATM   12  C10 UNL     1      22.540   4.981  51.441  1.00  0.00     0.045 A 
HETATM   13  C11 UNL     1      23.528   4.045  51.591  1.00  0.00     0.076 A 
HETATM   14  C12 UNL     1      23.675   3.651  50.332  1.00  0.00     0.096 A 
HETATM   15  C21 UNL     1      23.640   3.420  49.031  1.00  0.00     0.046 A 
HETATM   16  C22 UNL     1      22.801   4.334  49.550  1.00  0.00     0.066 A 
HETATM   17  O2  UNL     1      24.153   3.630  52.777  1.00  0.00    -0.334 OA
HETATM   18  C23 UNL     1      23.846   2.171  52.879  1.00  0.00     0.297 C 
HETATM   19  N5  UNL     1      22.365   2.154  52.662  1.00  0.00    -0.369 N 
HETATM   20  H25 UNL     1      21.592   2.618  53.167  1.00  0.00     0.161 HD
ENDROOT
BRANCH  14  21
HETATM   21  N3  UNL     1      25.052   3.078  50.317  1.00  0.00    -0.372 N 
HETATM   22  H9  UNL     1      25.887   2.379  50.518  1.00  0.00     0.157 HD
BRANCH  21  23
HETATM   23  C13 UNL     1      26.066   3.857  49.623  1.00  0.00     0.176 A 
HETATM   24  O1  UNL     1      26.642   2.744  49.196  1.00  0.00    -0.204 OA
HETATM   25  C14 UNL     1      27.047   4.737  48.954  1.00  0.00     0.064 A 
HETATM   26  C15 UNL     1      26.205   5.528  49.581  1.00  0.00     0.082 A 
BRANCH  26  27
HETATM   27  C16 UNL     1      25.482   6.725  50.140  1.00  0.00     0.282 C 
BRANCH  27  28
HETATM   28  N4  UNL     1      25.356   7.758  49.177  1.00  0.00     0.089 N 
HETATM   29  C17 UNL     1      24.406   8.723  49.637  1.00  0.00     0.272 C 
HETATM   30  C18 UNL     1      23.359   8.835  48.561  1.00  0.00     0.032 C 
HETATM   31  C19 UNL     1      23.510   7.562  47.745  1.00  0.00     0.032 C 
HETATM   32  C20 UNL     1      24.976   7.263  47.895  1.00  0.00     0.272 C 
ENDBRANCH  27  28
ENDBRANCH  26  27
ENDBRANCH  21  23
ENDBRANCH  14  21
TORSDOF 4
ENDMDL
MODEL 4
REMARK VINA RESULT:      -7.3      2.099      5.266
REMARK  4 active torsions:
REMARK  status: ('A' for Active; 'I' for Inactive)
REMARK    1  A    between atoms: C12_14  and  N3_15 
REMARK    2  A    between atoms: N3_15  and  C13_16 
REMARK    3  A    between atoms: C15_19  and  C16_20 
REMARK    4  A    between atoms: C16_20  and  N4_21 
ROOT
HETATM    1  C1  UNL     1      20.854   0.045  51.451  1.00  0.00     0.042 C 
HETATM    2  C2  UNL     1      21.445   1.196  51.088  1.00  0.00     0.020 C 
HETATM    3  C3  UNL     1      21.500   1.340  49.629  1.00  0.00     0.028 C 
HETATM    4  C4  UNL     1      21.878   2.100  48.586  1.00  0.00     0.002 C 
HETATM    5  C5  UNL     1      22.485   3.300  48.066  1.00  0.00    -0.001 C 
HETATM    6  C6  UNL     1      23.085   4.513  48.069  1.00  0.00     0.010 C 
HETATM    7  C7  UNL     1      23.232   4.938  49.515  1.00  0.00     0.118 A 
HETATM    8  N1  UNL     1      22.560   6.106  49.339  1.00  0.00    -0.264 NA
HETATM    9  C8  UNL     1      22.092   6.821  50.376  1.00  0.00     0.223 A 
HETATM   10  N2  UNL     1      22.469   6.079  51.441  1.00  0.00    -0.264 NA
HETATM   11  C9  UNL     1      23.130   4.965  51.280  1.00  0.00     0.120 A 
HETATM   12  C10 UNL     1      23.148   4.214  52.432  1.00  0.00     0.045 A 
HETATM   13  C11 UNL     1      23.673   2.951  52.377  1.00  0.00     0.076 A 
HETATM   14  C12 UNL     1      24.030   2.898  51.099  1.00  0.00     0.096 A 
HETATM   15  C21 UNL     1      24.291   3.074  49.815  1.00  0.00     0.046 A 
HETATM   16  C22 UNL     1      23.701   4.070  50.499  1.00  0.00     0.066 A 
HETATM   17  O2  UNL     1      23.755   2.003  53.408  1.00  0.00    -0.334 OA
HETATM   18  C23 UNL     1      22.957   0.839  52.919  1.00  0.00     0.297 C 
HETATM   19  N5  UNL     1      21.684   1.499  52.487  1.00  0.00    -0.369 N 
HETATM   20  H25 UNL     1      21.005   2.082  53.002  1.00  0.00     0.161 HD
ENDROOT
BRANCH  14  21
HETATM   21  N3  UNL     1      25.075   1.834  51.085  1.00  0.00    -0.372 N 
HETATM   22  H9  UNL     1      25.548   0.847  50.919  1.00  0.00     0.157 HD
BRANCH  21  23
HETATM   23  C13 UNL     1      26.373   2.198  51.633  1.00  0.00     0.176 A 
HETATM   24  O1  UNL     1      26.733   2.709  50.466  1.00  0.00    -0.204 OA
HETATM   25  C14 UNL     1      27.659   2.525  52.283  1.00  0.00     0.064 A 
HETATM   26  C15 UNL     1      26.926   1.922  53.193  1.00  0.00     0.082 A 
BRANCH  26  27
HETATM   27  C16 UNL     1      26.420   1.293  54.464  1.00  0.00     0.282 C 
BRANCH  27  28
HETATM   28  N4  UNL     1      26.813  -0.064  54.569  1.00  0.00     0.089 N 
HETATM   29  C17 UNL     1      28.216  -0.174  54.310  1.00  0.00     0.272 C 
HETATM   30  C18 UNL     1      28.364  -1.164  53.185  1.00  0.00     0.032 C 
HETATM   31  C19 UNL     1      26.993  -1.208  52.530  1.00  0.00     0.032 C 
HETATM   32  C20 UNL     1      26.081  -0.913  53.688  1.00  0.00     0.272 C 
ENDBRANCH  27  28
ENDBRANCH  26  27
ENDBRANCH  21  23
ENDBRANCH  14  21
TORSDOF 4
ENDMDL
MODEL 5
REMARK VINA RESULT:      -7.3      8.726     11.595
REMARK  4 active torsions:
REMARK  status: ('A' for Active; 'I' for Inactive)
REMARK    1  A    between atoms: C12_14  and  N3_15 
REMARK    2  A    between atoms: N3_15  and  C13_16 
REMARK    3  A    between atoms: C15_19  and  C16_20 
REMARK    4  A    between atoms: C16_20  and  N4_21 
ROOT
HETATM    1  C1  UNL     1      31.098  10.757  43.083  1.00  0.00     0.042 C 
HETATM    2  C2  UNL     1      30.969  10.391  44.369  1.00  0.00     0.020 C 
HETATM    3  C3  UNL     1      31.102  11.538  45.274  1.00  0.00     0.028 C 
HETATM    4  C4  UNL     1      31.100  11.974  46.547  1.00  0.00     0.002 C 
HETATM    5  C5  UNL     1      30.974  11.715  47.959  1.00  0.00    -0.001 C 
HETATM    6  C6  UNL     1      30.773  11.014  49.100  1.00  0.00     0.010 C 
HETATM    7  C7  UNL     1      30.482   9.583  48.703  1.00  0.00     0.118 A 
HETATM    8  N1  UNL     1      29.292   9.543  49.356  1.00  0.00    -0.264 NA
HETATM    9  C8  UNL     1      28.383   8.582  49.123  1.00  0.00     0.223 A 
HETATM   10  N2  UNL     1      28.987   7.827  48.179  1.00  0.00    -0.264 NA
HETATM   11  C9  UNL     1      30.177   8.132  47.739  1.00  0.00     0.120 A 
HETATM   12  C10 UNL     1      30.483   7.448  46.586  1.00  0.00     0.045 A 
HETATM   13  C11 UNL     1      31.636   7.774  45.923  1.00  0.00     0.076 A 
HETATM   14  C12 UNL     1      32.106   8.727  46.718  1.00  0.00     0.096 A 
HETATM   15  C21 UNL     1      32.368   9.635  47.643  1.00  0.00     0.046 A 
HETATM   16  C22 UNL     1      31.242   8.909  47.750  1.00  0.00     0.066 A 
HETATM   17  O2  UNL     1      32.120   7.242  44.719  1.00  0.00    -0.334 OA
HETATM   18  C23 UNL     1      32.189   8.407  43.787  1.00  0.00     0.297 C 
HETATM   19  N5  UNL     1      30.828   9.009  43.948  1.00  0.00    -0.369 N 
HETATM   20  H25 UNL     1      29.883   8.617  43.805  1.00  0.00     0.161 HD
ENDROOT
BRANCH  14  21
HETATM   21  N3  UNL     1      33.563   8.742  46.402  1.00  0.00    -0.372 N 
HETATM   22  H9  UNL     1      34.503   8.935  45.849  1.00  0.00     0.157 HD
BRANCH  21  23
HETATM   23  C13 UNL     1      34.440   8.104  47.373  1.00  0.00     0.176 A 
HETATM   24  O1  UNL     1      35.277   9.127  47.303  1.00  0.00    -0.204 OA
HETATM   25  C14 UNL     1      35.260   7.374  48.362  1.00  0.00     0.064 A 
HETATM   26  C15 UNL     1      34.217   6.614  48.111  1.00  0.00     0.082 A 
BRANCH  26  27
HETATM   27  C16 UNL     1      33.207   5.497  48.094  1.00  0.00     0.282 C 
BRANCH  27  28
HETATM   28  N4  UNL     1      33.511   4.533  47.099  1.00  0.00     0.089 N 
HETATM   29  C17 UNL     1      32.303   4.119  46.454  1.00  0.00     0.272 C 
HETATM   30  C18 UNL     1      32.237   2.622  46.594  1.00  0.00     0.032 C 
HETATM   31  C19 UNL     1      33.179   2.303  47.743  1.00  0.00     0.032 C 
HETATM   32  C20 UNL     1      34.198   3.402  47.630  1.00  0.00     0.272 C 
ENDBRANCH  27  28
ENDBRANCH  26  27
ENDBRANCH  21  23
ENDBRANCH  14  21
TORSDOF 4
ENDMDL
MODEL 6
REMARK VINA RESULT:      -7.3      1.385      1.910
REMARK  4 active torsions:
REMARK  status: ('A' for Active; 'I' for Inactive)
REMARK    1  A    between atoms: C12_14  and  N3_15 
REMARK    2  A    between atoms: N3_15  and  C13_16 
REMARK    3  A    between atoms: C15_19  and  C16_20 
REMARK    4  A    between atoms: C16_20  and  N4_21 
ROOT
HETATM    1  C1  UNL     1      25.415   7.907  48.819  1.00  0.00     0.042 C 
HETATM    2  C2  UNL     1      25.257   6.708  49.402  1.00  0.00     0.020 C 
HETATM    3  C3  UNL     1      26.311   5.768  49.003  1.00  0.00     0.028 C 
HETATM    4  C4  UNL     1      26.817   4.528  49.122  1.00  0.00     0.002 C 
HETATM    5  C5  UNL     1      26.765   3.202  49.686  1.00  0.00    -0.001 C 
HETATM    6  C6  UNL     1      26.324   2.171  50.443  1.00  0.00     0.010 C 
HETATM    7  C7  UNL     1      25.128   2.667  51.226  1.00  0.00     0.118 A 
HETATM    8  N1  UNL     1      25.663   2.342  52.433  1.00  0.00    -0.264 NA
HETATM    9  C8  UNL     1      25.169   2.826  53.585  1.00  0.00     0.223 A 
HETATM   10  N2  UNL     1      24.146   3.603  53.164  1.00  0.00    -0.264 NA
HETATM   11  C9  UNL     1      23.869   3.715  51.893  1.00  0.00     0.120 A 
HETATM   12  C10 UNL     1      23.019   4.768  51.649  1.00  0.00     0.045 A 
HETATM   13  C11 UNL     1      22.758   5.105  50.348  1.00  0.00     0.076 A 
HETATM   14  C12 UNL     1      23.483   4.190  49.716  1.00  0.00     0.096 A 
HETATM   15  C21 UNL     1      24.268   3.206  49.314  1.00  0.00     0.046 A 
HETATM   16  C22 UNL     1      24.110   3.411  50.633  1.00  0.00     0.066 A 
HETATM   17  O2  UNL     1      21.963   6.158  49.871  1.00  0.00    -0.334 OA
HETATM   18  C23 UNL     1      22.898   7.010  49.075  1.00  0.00     0.297 C 
HETATM   19  N5  UNL     1      24.038   7.187  50.029  1.00  0.00    -0.369 N 
HETATM   20  H25 UNL     1      24.080   7.578  50.984  1.00  0.00     0.161 HD
ENDROOT
BRANCH  14  21
HETATM   21  N3  UNL     1      22.841   4.122  48.372  1.00  0.00    -0.372 N 
HETATM   22  H9  UNL     1      22.700   4.255  47.282  1.00  0.00     0.157 HD
BRANCH  21  23
HETATM   23  C13 UNL     1      21.523   3.509  48.318  1.00  0.00     0.176 A 
HETATM   24  O1  UNL     1      21.171   4.329  47.340  1.00  0.00    -0.204 OA
HETATM   25  C14 UNL     1      20.214   2.821  48.343  1.00  0.00     0.064 A 
HETATM   26  C15 UNL     1      20.947   2.261  49.280  1.00  0.00     0.082 A 
BRANCH  26  27
HETATM   27  C16 UNL     1      21.446   1.396  50.408  1.00  0.00     0.282 C 
BRANCH  27  28
HETATM   28  N4  UNL     1      20.741   1.647  51.611  1.00  0.00     0.089 N 
HETATM   29  C17 UNL     1      21.455   1.073  52.710  1.00  0.00     0.272 C 
HETATM   30  C18 UNL     1      20.494   0.147  53.405  1.00  0.00     0.032 C 
HETATM   31  C19 UNL     1      19.413  -0.129  52.374  1.00  0.00     0.032 C 
HETATM   32  C20 UNL     1      19.407   1.145  51.575  1.00  0.00     0.272 C 
ENDBRANCH  27  28
ENDBRANCH  26  27
ENDBRANCH  21  23
ENDBRANCH  14  21
TORSDOF 4
ENDMDL
MODEL 7
REMARK VINA RESULT:      -7.2      2.710      5.353
REMARK  4 active torsions:
REMARK  status: ('A' for Active; 'I' for Inactive)
REMARK    1  A    between atoms: C12_14  and  N3_15 
REMARK    2  A    between atoms: N3_15  and  C13_16 
REMARK    3  A    between atoms: C15_19  and  C16_20 
REMARK    4  A    between atoms: C16_20  and  N4_21 
ROOT
HETATM    1  C1  UNL     1      25.218   2.112  53.481  1.00  0.00     0.042 C 
HETATM    2  C2  UNL     1      24.241   2.484  52.638  1.00  0.00     0.020 C 
HETATM    3  C3  UNL     1      23.815   3.867  52.878  1.00  0.00     0.028 C 
HETATM    4  C4  UNL     1      22.998   4.873  52.517  1.00  0.00     0.002 C 
HETATM    5  C5  UNL     1      21.955   5.397  51.671  1.00  0.00    -0.001 C 
HETATM    6  C6  UNL     1      21.034   5.432  50.679  1.00  0.00     0.010 C 
HETATM    7  C7  UNL     1      21.098   4.102  49.959  1.00  0.00     0.118 A 
HETATM    8  N1  UNL     1      21.328   4.664  48.743  1.00  0.00    -0.264 NA
HETATM    9  C8  UNL     1      21.781   3.948  47.701  1.00  0.00     0.223 A 
HETATM   10  N2  UNL     1      21.898   2.707  48.224  1.00  0.00    -0.264 NA
HETATM   11  C9  UNL     1      21.585   2.474  49.470  1.00  0.00     0.120 A 
HETATM   12  C10 UNL     1      22.058   1.254  49.892  1.00  0.00     0.045 A 
HETATM   13  C11 UNL     1      21.940   0.934  51.219  1.00  0.00     0.076 A 
HETATM   14  C12 UNL     1      21.335   2.025  51.673  1.00  0.00     0.096 A 
HETATM   15  C21 UNL     1      20.749   3.190  51.890  1.00  0.00     0.046 A 
HETATM   16  C22 UNL     1      21.149   2.889  50.643  1.00  0.00     0.066 A 
HETATM   17  O2  UNL     1      22.385  -0.225  51.871  1.00  0.00    -0.334 OA
HETATM   18  C23 UNL     1      23.365   0.263  52.889  1.00  0.00     0.297 C 
HETATM   19  N5  UNL     1      24.245   1.150  52.065  1.00  0.00    -0.369 N 
HETATM   20  H25 UNL     1      24.816   0.962  51.225  1.00  0.00     0.161 HD
ENDROOT
BRANCH  14  21
HETATM   21  N3  UNL     1      20.687   1.553  52.929  1.00  0.00    -0.372 N 
HETATM   22  H9  UNL     1      20.465   1.457  54.010  1.00  0.00     0.157 HD
BRANCH  21  23
HETATM   23  C13 UNL     1      19.654   0.538  52.779  1.00  0.00     0.176 A 
HETATM   24  O1  UNL     1      20.062  -0.055  53.890  1.00  0.00    -0.204 OA
HETATM   25  C14 UNL     1      18.574  -0.441  52.536  1.00  0.00     0.064 A 
HETATM   26  C15 UNL     1      18.527   0.417  51.542  1.00  0.00     0.082 A 
BRANCH  26  27
HETATM   27  C16 UNL     1      18.164   1.161  50.284  1.00  0.00     0.282 C 
BRANCH  27  28
HETATM   28  N4  UNL     1      16.991   1.938  50.455  1.00  0.00     0.089 N 
HETATM   29  C17 UNL     1      16.677   2.603  49.228  1.00  0.00     0.272 C 
HETATM   30  C18 UNL     1      16.602   4.072  49.548  1.00  0.00     0.032 C 
HETATM   31  C19 UNL     1      17.358   4.219  50.858  1.00  0.00     0.032 C 
HETATM   32  C20 UNL     1      17.116   2.886  51.512  1.00  0.00     0.272 C 
ENDBRANCH  27  28
ENDBRANCH  26  27
ENDBRANCH  21  23
ENDBRANCH  14  21
TORSDOF 4
ENDMDL
MODEL 8
REMARK VINA RESULT:      -7.0      2.481      6.922
REMARK  4 active torsions:
REMARK  status: ('A' for Active; 'I' for Inactive)
REMARK    1  A    between atoms: C12_14  and  N3_15 
REMARK    2  A    between atoms: N3_15  and  C13_16 
REMARK    3  A    between atoms: C15_19  and  C16_20 
REMARK    4  A    between atoms: C16_20  and  N4_21 
ROOT
HETATM    1  C1  UNL     1      21.240  -0.608  54.579  1.00  0.00     0.042 C 
HETATM    2  C2  UNL     1      20.524   0.085  53.679  1.00  0.00     0.020 C 
HETATM    3  C3  UNL     1      19.520  -0.759  53.020  1.00  0.00     0.028 C 
HETATM    4  C4  UNL     1      18.527  -0.829  52.116  1.00  0.00     0.002 C 
HETATM    5  C5  UNL     1      17.685  -0.201  51.128  1.00  0.00    -0.001 C 
HETATM    6  C6  UNL     1      17.166   0.780  50.354  1.00  0.00     0.010 C 
HETATM    7  C7  UNL     1      17.883   2.063  50.715  1.00  0.00     0.118 A 
HETATM    8  N1  UNL     1      16.738   2.729  51.017  1.00  0.00    -0.264 NA
HETATM    9  C8  UNL     1      16.745   3.881  51.709  1.00  0.00     0.223 A 
HETATM   10  N2  UNL     1      18.061   4.078  51.942  1.00  0.00    -0.264 NA
HETATM   11  C9  UNL     1      18.952   3.230  51.504  1.00  0.00     0.120 A 
HETATM   12  C10 UNL     1      20.177   3.430  52.095  1.00  0.00     0.045 A 
HETATM   13  C11 UNL     1      21.174   2.523  51.851  1.00  0.00     0.076 A 
HETATM   14  C12 UNL     1      20.541   1.691  51.032  1.00  0.00     0.096 A 
HETATM   15  C21 UNL     1      19.717   1.013  50.252  1.00  0.00     0.046 A 
HETATM   16  C22 UNL     1      19.267   2.126  50.857  1.00  0.00     0.066 A 
HETATM   17  O2  UNL     1      22.475   2.506  52.375  1.00  0.00    -0.334 OA
HETATM   18  C23 UNL     1      22.567   1.217  53.124  1.00  0.00     0.297 C 
HETATM   19  N5  UNL     1      21.327   1.260  53.962  1.00  0.00    -0.369 N 
HETATM   20  H25 UNL     1      20.995   1.944  54.662  1.00  0.00     0.161 HD
ENDROOT
BRANCH  14  21
HETATM   21  N3  UNL     1      21.657   1.026  50.300  1.00  0.00    -0.372 N 
HETATM   22  H9  UNL     1      22.469   0.307  50.079  1.00  0.00     0.157 HD
BRANCH  21  23
HETATM   23  C13 UNL     1      22.038   1.621  49.028  1.00  0.00     0.176 A 
HETATM   24  O1  UNL     1      21.534   0.583  48.380  1.00  0.00    -0.204 OA
HETATM   25  C14 UNL     1      22.466   2.309  47.792  1.00  0.00     0.064 A 
HETATM   26  C15 UNL     1      22.831   3.081  48.792  1.00  0.00     0.082 A 
BRANCH  26  27
HETATM   27  C16 UNL     1      23.391   4.199  49.632  1.00  0.00     0.282 C 
BRANCH  27  28
HETATM   28  N4  UNL     1      22.461   5.258  49.780  1.00  0.00     0.089 N 
HETATM   29  C17 UNL     1      22.573   6.148  48.665  1.00  0.00     0.272 C 
HETATM   30  C18 UNL     1      22.841   7.515  49.237  1.00  0.00     0.032 C 
HETATM   31  C19 UNL     1      23.351   7.249  50.644  1.00  0.00     0.032 C 
HETATM   32  C20 UNL     1      22.640   5.972  51.001  1.00  0.00     0.272 C 
ENDBRANCH  27  28
ENDBRANCH  26  27
ENDBRANCH  21  23
ENDBRANCH  14  21
TORSDOF 4
ENDMDL
MODEL 9
REMARK VINA RESULT:      -7.0      8.324     11.761
REMARK  4 active torsions:
REMARK  status: ('A' for Active; 'I' for Inactive)
REMARK    1  A    between atoms: C12_14  and  N3_15 
REMARK    2  A    between atoms: N3_15  and  C13_16 
REMARK    3  A    between atoms: C15_19  and  C16_20 
REMARK    4  A    between atoms: C16_20  and  N4_21 
ROOT
HETATM    1  C1  UNL     1      34.688   2.944  47.999  1.00  0.00     0.042 C 
HETATM    2  C2  UNL     1      34.479   4.229  47.669  1.00  0.00     0.020 C 
HETATM    3  C3  UNL     1      35.254   5.140  48.518  1.00  0.00     0.028 C 
HETATM    4  C4  UNL     1      35.573   6.415  48.805  1.00  0.00     0.002 C 
HETATM    5  C5  UNL     1      35.441   7.827  48.548  1.00  0.00    -0.001 C 
HETATM    6  C6  UNL     1      35.025   8.966  47.945  1.00  0.00     0.010 C 
HETATM    7  C7  UNL     1      34.129   8.563  46.794  1.00  0.00     0.118 A 
HETATM    8  N1  UNL     1      34.863   9.230  45.865  1.00  0.00    -0.264 NA
HETATM    9  C8  UNL     1      34.724   9.001  44.548  1.00  0.00     0.223 A 
HETATM   10  N2  UNL     1      33.769   8.046  44.514  1.00  0.00    -0.264 NA
HETATM   11  C9  UNL     1      33.234   7.594  45.616  1.00  0.00     0.120 A 
HETATM   12  C10 UNL     1      32.528   6.434  45.400  1.00  0.00     0.045 A 
HETATM   13  C11 UNL     1      32.037   5.760  46.485  1.00  0.00     0.076 A 
HETATM   14  C12 UNL     1      32.447   6.556  47.465  1.00  0.00     0.096 A 
HETATM   15  C21 UNL     1      32.957   7.483  48.258  1.00  0.00     0.046 A 
HETATM   16  C22 UNL     1      33.134   7.598  46.930  1.00  0.00     0.066 A 
HETATM   17  O2  UNL     1      31.331   4.548  46.503  1.00  0.00    -0.334 OA
HETATM   18  C23 UNL     1      32.185   3.622  47.308  1.00  0.00     0.297 C 
HETATM   19  N5  UNL     1      33.524   3.802  46.663  1.00  0.00    -0.369 N 
HETATM   20  H25 UNL     1      33.840   3.667  45.689  1.00  0.00     0.161 HD
ENDROOT
BRANCH  14  21
HETATM   21  N3  UNL     1      31.517   6.224  48.582  1.00  0.00    -0.372 N 
HETATM   22  H9  UNL     1      31.158   5.813  49.546  1.00  0.00     0.157 HD
BRANCH  21  23
HETATM   23  C13 UNL     1      30.137   6.656  48.422  1.00  0.00     0.176 A 
HETATM   24  O1  UNL     1      29.711   5.437  48.711  1.00  0.00    -0.204 OA
HETATM   25  C14 UNL     1      28.773   7.195  48.235  1.00  0.00     0.064 A 
HETATM   26  C15 UNL     1      29.600   8.189  47.999  1.00  0.00     0.082 A 
BRANCH  26  27
HETATM   27  C16 UNL     1      30.198   9.530  47.662  1.00  0.00     0.282 C 
BRANCH  27  28
HETATM   28  N4  UNL     1      30.120  10.427  48.757  1.00  0.00     0.089 N 
HETATM   29  C17 UNL     1      28.760  10.824  48.951  1.00  0.00     0.272 C 
HETATM   30  C18 UNL     1      28.743  12.328  48.889  1.00  0.00     0.032 C 
HETATM   31  C19 UNL     1      30.033  12.698  48.177  1.00  0.00     0.032 C 
HETATM   32  C20 UNL     1      30.948  11.574  48.579  1.00  0.00     0.272 C 
ENDBRANCH  27  28
ENDBRANCH  26  27
ENDBRANCH  21  23
ENDBRANCH  14  21
TORSDOF 4
ENDMDL
