MODEL 1
REMARK VINA RESULT:      -9.1      0.000      0.000
REMARK  4 active torsions:
REMARK  status: ('A' for Active; 'I' for Inactive)
REMARK    1  A    between atoms: C5_5  and  C6_6 
REMARK    2  A    between atoms: N2_8  and  C7_9 
REMARK    3  A    between atoms: C8_11  and  O2_12 
REMARK    4  A    between atoms: C10_15  and  C11_16 
ROOT
HETATM    1  C6  UNL     1      21.913   0.806  52.289  1.00  0.00     0.067 C 
HETATM    2  N1  UNL     1      22.386   1.630  51.413  1.00  0.00    -0.177 NA
HETATM    3  N2  UNL     1      23.718   1.939  51.743  1.00  0.00    -0.257 N 
HETATM    4  C10 UNL     1      24.048   1.443  53.052  1.00  0.00     0.146 C 
HETATM    5  C17 UNL     1      22.929   0.470  53.336  1.00  0.00     0.093 C 
ENDROOT
BRANCH   1   6
HETATM    6  C5  UNL     1      20.537   0.264  52.261  1.00  0.00    -0.010 A 
HETATM    7  C4  UNL     1      20.155  -0.474  53.381  1.00  0.00     0.014 A 
HETATM    8  C3  UNL     1      18.870  -1.009  53.411  1.00  0.00     0.007 A 
HETATM    9  C2  UNL     1      18.009  -0.803  52.351  1.00  0.00    -0.062 A 
HETATM   10  C1  UNL     1      16.630  -1.349  52.332  1.00  0.00     0.048 C 
HETATM   11  C19 UNL     1      18.443  -0.060  51.266  1.00  0.00     0.007 A 
HETATM   12  C18 UNL     1      19.715   0.486  51.203  1.00  0.00     0.014 A 
ENDBRANCH   1   6
BRANCH   3  13
HETATM   13  C7  UNL     1      24.468   2.676  50.718  1.00  0.00     0.319 C 
HETATM   14  O1  UNL     1      24.774   3.981  51.175  1.00  0.00    -0.293 OA
HETATM   15  C8  UNL     1      24.893   4.900  50.171  1.00  0.00     0.187 C 
HETATM   16  C9  UNL     1      24.206   4.716  49.028  1.00  0.00     0.113 C 
HETATM   17  S1  UNL     1      23.329   3.161  49.355  1.00  0.00    -0.082 SA
BRANCH  15  18
HETATM   18  O2  UNL     1      25.759   5.973  50.475  1.00  0.00    -0.341 OA
HETATM   19  H7  UNL     1      25.425   6.878  50.772  1.00  0.00     0.220 HD
ENDBRANCH  15  18
ENDBRANCH   3  13
BRANCH   4  20
HETATM   20  C11 UNL     1      25.386   0.839  53.157  1.00  0.00    -0.033 A 
HETATM   21  C12 UNL     1      26.448   1.519  53.739  1.00  0.00     0.011 A 
HETATM   22  C13 UNL     1      27.743   1.053  53.892  1.00  0.00     0.019 A 
HETATM   23  C14 UNL     1      27.973  -0.233  53.400  1.00  0.00     0.011 A 
HETATM   24 BR1  UNL     1      29.755  -0.897  53.601  1.00  0.00    -0.051 Br
HETATM   25  C15 UNL     1      26.939  -0.959  52.806  1.00  0.00     0.019 A 
HETATM   26  C16 UNL     1      25.678  -0.417  52.696  1.00  0.00     0.011 A 
ENDBRANCH   4  20
TORSDOF 4
ENDMDL
MODEL 2
REMARK VINA RESULT:      -8.8      2.918      4.589
REMARK  4 active torsions:
REMARK  status: ('A' for Active; 'I' for Inactive)
REMARK    1  A    between atoms: C5_5  and  C6_6 
REMARK    2  A    between atoms: N2_8  and  C7_9 
REMARK    3  A    between atoms: C8_11  and  O2_12 
REMARK    4  A    between atoms: C10_15  and  C11_16 
ROOT
HETATM    1  C6  UNL     1      22.814   1.024  52.230  1.00  0.00     0.067 C 
HETATM    2  N1  UNL     1      23.771   1.092  53.095  1.00  0.00    -0.177 NA
HETATM    3  N2  UNL     1      24.882   1.718  52.504  1.00  0.00    -0.257 N 
HETATM    4  C10 UNL     1      24.693   1.863  51.085  1.00  0.00     0.146 C 
HETATM    5  C17 UNL     1      23.211   1.624  50.918  1.00  0.00     0.093 C 
ENDROOT
BRANCH   1   6
HETATM    6  C5  UNL     1      21.489   0.424  52.503  1.00  0.00    -0.010 A 
HETATM    7  C4  UNL     1      20.497   0.695  51.561  1.00  0.00     0.014 A 
HETATM    8  C3  UNL     1      19.230   0.156  51.765  1.00  0.00     0.007 A 
HETATM    9  C2  UNL     1      18.980  -0.626  52.876  1.00  0.00    -0.062 A 
HETATM   10  C1  UNL     1      17.649  -1.224  53.141  1.00  0.00     0.048 C 
HETATM   11  C19 UNL     1      20.004  -0.861  53.777  1.00  0.00     0.007 A 
HETATM   12  C18 UNL     1      21.277  -0.340  53.606  1.00  0.00     0.014 A 
ENDBRANCH   1   6
BRANCH   3  13
HETATM   13  C7  UNL     1      25.968   2.082  53.425  1.00  0.00     0.319 C 
HETATM   14  O1  UNL     1      27.146   2.387  52.701  1.00  0.00    -0.293 OA
HETATM   15  C8  UNL     1      28.296   2.137  53.396  1.00  0.00     0.187 C 
HETATM   16  C9  UNL     1      28.297   1.175  54.339  1.00  0.00     0.113 C 
HETATM   17  S1  UNL     1      26.588   0.567  54.267  1.00  0.00    -0.082 SA
BRANCH  15  18
HETATM   18  O2  UNL     1      29.383   2.954  53.019  1.00  0.00    -0.341 OA
HETATM   19  H7  UNL     1      29.400   3.951  53.178  1.00  0.00     0.220 HD
ENDBRANCH  15  18
ENDBRANCH   3  13
BRANCH   4  20
HETATM   20  C11 UNL     1      25.141   3.153  50.537  1.00  0.00    -0.033 A 
HETATM   21  C12 UNL     1      26.245   3.245  49.701  1.00  0.00     0.011 A 
HETATM   22  C13 UNL     1      26.755   4.399  49.129  1.00  0.00     0.019 A 
HETATM   23  C14 UNL     1      26.069   5.572  49.446  1.00  0.00     0.011 A 
HETATM   24 BR1  UNL     1      26.756   7.177  48.667  1.00  0.00    -0.051 Br
HETATM   25  C15 UNL     1      24.952   5.534  50.283  1.00  0.00     0.019 A 
HETATM   26  C16 UNL     1      24.513   4.340  50.809  1.00  0.00     0.011 A 
ENDBRANCH   4  20
TORSDOF 4
ENDMDL
MODEL 3
REMARK VINA RESULT:      -8.4      3.571      7.778
REMARK  4 active torsions:
REMARK  status: ('A' for Active; 'I' for Inactive)
REMARK    1  A    between atoms: C5_5  and  C6_6 
REMARK    2  A    between atoms: N2_8  and  C7_9 
REMARK    3  A    between atoms: C8_11  and  O2_12 
REMARK    4  A    between atoms: C10_15  and  C11_16 
ROOT
HETATM    1  C6  UNL     1      25.023   3.577  50.715  1.00  0.00     0.067 C 
HETATM    2  N1  UNL     1      25.505   2.501  51.241  1.00  0.00    -0.177 NA
HETATM    3  N2  UNL     1      24.483   1.828  51.934  1.00  0.00    -0.257 N 
HETATM    4  C10 UNL     1      23.310   2.654  52.041  1.00  0.00     0.146 C 
HETATM    5  C17 UNL     1      23.566   3.737  51.021  1.00  0.00     0.093 C 
ENDROOT
BRANCH   1   6
HETATM    6  C5  UNL     1      25.814   4.536  49.912  1.00  0.00    -0.010 A 
HETATM    7  C4  UNL     1      26.969   4.022  49.322  1.00  0.00     0.014 A 
HETATM    8  C3  UNL     1      27.752   4.879  48.554  1.00  0.00     0.007 A 
HETATM    9  C2  UNL     1      27.381   6.199  48.390  1.00  0.00    -0.062 A 
HETATM   10  C1  UNL     1      28.179   7.153  47.583  1.00  0.00     0.048 C 
HETATM   11  C19 UNL     1      26.223   6.652  49.000  1.00  0.00     0.007 A 
HETATM   12  C18 UNL     1      25.420   5.828  49.771  1.00  0.00     0.014 A 
ENDBRANCH   1   6
BRANCH   3  13
HETATM   13  C7  UNL     1      24.814   0.471  52.389  1.00  0.00     0.319 C 
HETATM   14  O1  UNL     1      24.851   0.421  53.804  1.00  0.00    -0.293 OA
HETATM   15  C8  UNL     1      25.698  -0.531  54.296  1.00  0.00     0.187 C 
HETATM   16  C9  UNL     1      26.769  -0.898  53.567  1.00  0.00     0.113 C 
HETATM   17  S1  UNL     1      26.600   0.144  52.091  1.00  0.00    -0.082 SA
BRANCH  15  18
HETATM   18  O2  UNL     1      25.325  -1.030  55.563  1.00  0.00    -0.341 OA
HETATM   19  H7  UNL     1      25.109  -2.002  55.726  1.00  0.00     0.220 HD
ENDBRANCH  15  18
ENDBRANCH   3  13
BRANCH   4  20
HETATM   20  C11 UNL     1      22.040   1.941  51.829  1.00  0.00    -0.033 A 
HETATM   21  C12 UNL     1      21.259   1.512  52.894  1.00  0.00     0.011 A 
HETATM   22  C13 UNL     1      20.052   0.837  52.815  1.00  0.00     0.019 A 
HETATM   23  C14 UNL     1      19.603   0.574  51.519  1.00  0.00     0.011 A 
HETATM   24 BR1  UNL     1      17.940  -0.358  51.387  1.00  0.00    -0.051 Br
HETATM   25  C15 UNL     1      20.351   0.984  50.414  1.00  0.00     0.019 A 
HETATM   26  C16 UNL     1      21.543   1.652  50.586  1.00  0.00     0.011 A 
ENDBRANCH   4  20
TORSDOF 4
ENDMDL
MODEL 4
REMARK VINA RESULT:      -8.1      3.448      7.487
REMARK  4 active torsions:
REMARK  status: ('A' for Active; 'I' for Inactive)
REMARK    1  A    between atoms: C5_5  and  C6_6 
REMARK    2  A    between atoms: N2_8  and  C7_9 
REMARK    3  A    between atoms: C8_11  and  O2_12 
REMARK    4  A    between atoms: C10_15  and  C11_16 
ROOT
HETATM    1  C6  UNL     1      25.386   1.613  52.080  1.00  0.00     0.067 C 
HETATM    2  N1  UNL     1      24.212   1.405  52.577  1.00  0.00    -0.177 NA
HETATM    3  N2  UNL     1      23.281   2.232  51.924  1.00  0.00    -0.257 N 
HETATM    4  C10 UNL     1      23.950   3.199  51.095  1.00  0.00     0.146 C 
HETATM    5  C17 UNL     1      25.352   2.646  50.997  1.00  0.00     0.093 C 
ENDROOT
BRANCH   1   6
HETATM    6  C5  UNL     1      26.612   0.917  52.527  1.00  0.00    -0.010 A 
HETATM    7  C4  UNL     1      26.577  -0.476  52.457  1.00  0.00     0.014 A 
HETATM    8  C3  UNL     1      27.705  -1.184  52.865  1.00  0.00     0.007 A 
HETATM    9  C2  UNL     1      28.819  -0.509  53.322  1.00  0.00    -0.062 A 
HETATM   10  C1  UNL     1      30.046  -1.214  53.767  1.00  0.00     0.048 C 
HETATM   11  C19 UNL     1      28.796   0.875  53.368  1.00  0.00     0.007 A 
HETATM   12  C18 UNL     1      27.692   1.611  52.971  1.00  0.00     0.014 A 
ENDBRANCH   1   6
BRANCH   3  13
HETATM   13  C7  UNL     1      21.869   1.946  52.212  1.00  0.00     0.319 C 
HETATM   14  O1  UNL     1      21.742   1.319  53.475  1.00  0.00    -0.293 OA
HETATM   15  C8  UNL     1      20.655   0.496  53.571  1.00  0.00     0.187 C 
HETATM   16  C9  UNL     1      20.179  -0.095  52.459  1.00  0.00     0.113 C 
HETATM   17  S1  UNL     1      21.310   0.527  51.182  1.00  0.00    -0.082 SA
BRANCH  15  18
HETATM   18  O2  UNL     1      20.149   0.365  54.882  1.00  0.00    -0.341 OA
HETATM   19  H7  UNL     1      20.140  -0.514  55.380  1.00  0.00     0.220 HD
ENDBRANCH  15  18
ENDBRANCH   3  13
BRANCH   4  20
HETATM   20  C11 UNL     1      23.318   3.423  49.785  1.00  0.00    -0.033 A 
HETATM   21  C12 UNL     1      23.180   2.398  48.859  1.00  0.00     0.011 A 
HETATM   22  C13 UNL     1      22.606   2.492  47.602  1.00  0.00     0.019 A 
HETATM   23  C14 UNL     1      22.128   3.758  47.261  1.00  0.00     0.011 A 
HETATM   24 BR1  UNL     1      21.331   3.911  45.530  1.00  0.00    -0.051 Br
HETATM   25  C15 UNL     1      22.243   4.823  48.156  1.00  0.00     0.019 A 
HETATM   26  C16 UNL     1      22.830   4.640  49.388  1.00  0.00     0.011 A 
ENDBRANCH   4  20
TORSDOF 4
ENDMDL
MODEL 5
REMARK VINA RESULT:      -7.9      3.410      5.280
REMARK  4 active torsions:
REMARK  status: ('A' for Active; 'I' for Inactive)
REMARK    1  A    between atoms: C5_5  and  C6_6 
REMARK    2  A    between atoms: N2_8  and  C7_9 
REMARK    3  A    between atoms: C8_11  and  O2_12 
REMARK    4  A    between atoms: C10_15  and  C11_16 
ROOT
HETATM    1  C6  UNL     1      23.483   2.603  51.338  1.00  0.00     0.067 C 
HETATM    2  N1  UNL     1      22.813   2.819  50.255  1.00  0.00    -0.177 NA
HETATM    3  N2  UNL     1      23.347   3.941  49.597  1.00  0.00    -0.257 N 
HETATM    4  C10 UNL     1      24.292   4.624  50.439  1.00  0.00     0.146 C 
HETATM    5  C17 UNL     1      24.579   3.607  51.517  1.00  0.00     0.093 C 
ENDROOT
BRANCH   1   6
HETATM    6  C5  UNL     1      23.201   1.502  52.284  1.00  0.00    -0.010 A 
HETATM    7  C4  UNL     1      21.879   1.403  52.719  1.00  0.00     0.014 A 
HETATM    8  C3  UNL     1      21.555   0.384  53.611  1.00  0.00     0.007 A 
HETATM    9  C2  UNL     1      22.527  -0.495  54.043  1.00  0.00    -0.062 A 
HETATM   10  C1  UNL     1      22.235  -1.597  54.992  1.00  0.00     0.048 C 
HETATM   11  C19 UNL     1      23.823  -0.348  53.577  1.00  0.00     0.007 A 
HETATM   12  C18 UNL     1      24.181   0.654  52.689  1.00  0.00     0.014 A 
ENDBRANCH   1   6
BRANCH   3  13
HETATM   13  C7  UNL     1      22.847   4.175  48.236  1.00  0.00     0.319 C 
HETATM   14  O1  UNL     1      21.747   5.067  48.261  1.00  0.00    -0.293 OA
HETATM   15  C8  UNL     1      20.866   4.881  47.234  1.00  0.00     0.187 C 
HETATM   16  C9  UNL     1      20.745   3.657  46.687  1.00  0.00     0.113 C 
HETATM   17  S1  UNL     1      21.932   2.686  47.657  1.00  0.00    -0.082 SA
BRANCH  15  18
HETATM   18  O2  UNL     1      20.165   6.048  46.862  1.00  0.00    -0.341 OA
HETATM   19  H7  UNL     1      19.812   6.713  47.535  1.00  0.00     0.220 HD
ENDBRANCH  15  18
ENDBRANCH   3  13
BRANCH   4  20
HETATM   20  C11 UNL     1      25.501   5.094  49.744  1.00  0.00    -0.033 A 
HETATM   21  C12 UNL     1      25.696   6.437  49.448  1.00  0.00     0.011 A 
HETATM   22  C13 UNL     1      26.789   6.991  48.802  1.00  0.00     0.019 A 
HETATM   23  C14 UNL     1      27.777   6.081  48.420  1.00  0.00     0.011 A 
HETATM   24 BR1  UNL     1      29.294   6.825  47.526  1.00  0.00    -0.051 Br
HETATM   25  C15 UNL     1      27.629   4.720  48.693  1.00  0.00     0.019 A 
HETATM   26  C16 UNL     1      26.507   4.255  49.342  1.00  0.00     0.011 A 
ENDBRANCH   4  20
TORSDOF 4
ENDMDL
MODEL 6
REMARK VINA RESULT:      -7.9      3.739      7.778
REMARK  4 active torsions:
REMARK  status: ('A' for Active; 'I' for Inactive)
REMARK    1  A    between atoms: C5_5  and  C6_6 
REMARK    2  A    between atoms: N2_8  and  C7_9 
REMARK    3  A    between atoms: C8_11  and  O2_12 
REMARK    4  A    between atoms: C10_15  and  C11_16 
ROOT
HETATM    1  C6  UNL     1      25.194   4.693  49.249  1.00  0.00     0.067 C 
HETATM    2  N1  UNL     1      24.046   5.275  49.359  1.00  0.00    -0.177 NA
HETATM    3  N2  UNL     1      23.085   4.329  49.757  1.00  0.00    -0.257 N 
HETATM    4  C10 UNL     1      23.619   2.996  49.684  1.00  0.00     0.146 C 
HETATM    5  C17 UNL     1      25.106   3.235  49.578  1.00  0.00     0.093 C 
ENDROOT
BRANCH   1   6
HETATM    6  C5  UNL     1      26.440   5.381  48.846  1.00  0.00    -0.010 A 
HETATM    7  C4  UNL     1      26.328   6.754  48.628  1.00  0.00     0.014 A 
HETATM    8  C3  UNL     1      27.470   7.454  48.246  1.00  0.00     0.007 A 
HETATM    9  C2  UNL     1      28.671   6.792  48.094  1.00  0.00    -0.062 A 
HETATM   10  C1  UNL     1      29.916   7.490  47.691  1.00  0.00     0.048 C 
HETATM   11  C19 UNL     1      28.721   5.427  48.326  1.00  0.00     0.007 A 
HETATM   12  C18 UNL     1      27.606   4.699  48.705  1.00  0.00     0.014 A 
ENDBRANCH   1   6
BRANCH   3  13
HETATM   13  C7  UNL     1      21.781   4.880  50.152  1.00  0.00     0.319 C 
HETATM   14  O1  UNL     1      20.836   4.701  49.113  1.00  0.00    -0.293 OA
HETATM   15  C8  UNL     1      19.853   5.650  49.096  1.00  0.00     0.187 C 
HETATM   16  C9  UNL     1      20.120   6.878  49.579  1.00  0.00     0.113 C 
HETATM   17  S1  UNL     1      21.852   6.718  50.098  1.00  0.00    -0.082 SA
BRANCH  15  18
HETATM   18  O2  UNL     1      18.632   5.202  48.549  1.00  0.00    -0.341 OA
HETATM   19  H7  UNL     1      18.514   4.279  48.157  1.00  0.00     0.220 HD
ENDBRANCH  15  18
ENDBRANCH   3  13
BRANCH   4  20
HETATM   20  C11 UNL     1      23.247   2.126  50.811  1.00  0.00    -0.033 A 
HETATM   21  C12 UNL     1      22.158   1.267  50.740  1.00  0.00     0.011 A 
HETATM   22  C13 UNL     1      21.717   0.408  51.732  1.00  0.00     0.019 A 
HETATM   23  C14 UNL     1      22.463   0.430  52.912  1.00  0.00     0.011 A 
HETATM   24 BR1  UNL     1      21.871  -0.749  54.295  1.00  0.00    -0.051 Br
HETATM   25  C15 UNL     1      23.567   1.275  53.035  1.00  0.00     0.019 A 
HETATM   26  C16 UNL     1      23.936   2.099  51.995  1.00  0.00     0.011 A 
ENDBRANCH   4  20
TORSDOF 4
ENDMDL
MODEL 7
REMARK VINA RESULT:      -7.7      3.556      5.376
REMARK  4 active torsions:
REMARK  status: ('A' for Active; 'I' for Inactive)
REMARK    1  A    between atoms: C5_5  and  C6_6 
REMARK    2  A    between atoms: N2_8  and  C7_9 
REMARK    3  A    between atoms: C8_11  and  O2_12 
REMARK    4  A    between atoms: C10_15  and  C11_16 
ROOT
HETATM    1  C6  UNL     1      22.645   3.154  51.903  1.00  0.00     0.067 C 
HETATM    2  N1  UNL     1      21.824   3.797  51.141  1.00  0.00    -0.177 NA
HETATM    3  N2  UNL     1      22.441   4.977  50.689  1.00  0.00    -0.257 N 
HETATM    4  C10 UNL     1      23.673   5.211  51.393  1.00  0.00     0.146 C 
HETATM    5  C17 UNL     1      23.950   3.875  52.040  1.00  0.00     0.093 C 
ENDROOT
BRANCH   1   6
HETATM    6  C5  UNL     1      22.333   1.866  52.560  1.00  0.00    -0.010 A 
HETATM    7  C4  UNL     1      23.421   1.023  52.784  1.00  0.00     0.014 A 
HETATM    8  C3  UNL     1      23.187  -0.203  53.401  1.00  0.00     0.007 A 
HETATM    9  C2  UNL     1      21.907  -0.559  53.775  1.00  0.00    -0.062 A 
HETATM   10  C1  UNL     1      21.603  -1.852  54.434  1.00  0.00     0.048 C 
HETATM   11  C19 UNL     1      20.865   0.320  53.527  1.00  0.00     0.007 A 
HETATM   12  C18 UNL     1      21.061   1.548  52.915  1.00  0.00     0.014 A 
ENDBRANCH   1   6
BRANCH   3  13
HETATM   13  C7  UNL     1      21.725   5.699  49.629  1.00  0.00     0.319 C 
HETATM   14  O1  UNL     1      20.722   6.528  50.188  1.00  0.00    -0.293 OA
HETATM   15  C8  UNL     1      19.660   6.741  49.355  1.00  0.00     0.187 C 
HETATM   16  C9  UNL     1      19.347   5.805  48.439  1.00  0.00     0.113 C 
HETATM   17  S1  UNL     1      20.608   4.536  48.742  1.00  0.00    -0.082 SA
BRANCH  15  18
HETATM   18  O2  UNL     1      18.997   7.968  49.573  1.00  0.00    -0.341 OA
HETATM   19  H7  UNL     1      19.488   8.825  49.780  1.00  0.00     0.220 HD
ENDBRANCH  15  18
ENDBRANCH   3  13
BRANCH   4  20
HETATM   20  C11 UNL     1      24.779   5.689  50.548  1.00  0.00    -0.033 A 
HETATM   21  C12 UNL     1      25.519   4.821  49.756  1.00  0.00     0.011 A 
HETATM   22  C13 UNL     1      26.575   5.156  48.926  1.00  0.00     0.019 A 
HETATM   23  C14 UNL     1      26.906   6.512  48.905  1.00  0.00     0.011 A 
HETATM   24 BR1  UNL     1      28.362   6.997  47.765  1.00  0.00    -0.051 Br
HETATM   25  C15 UNL     1      26.194   7.427  49.682  1.00  0.00     0.019 A 
HETATM   26  C16 UNL     1      25.155   7.005  50.481  1.00  0.00     0.011 A 
ENDBRANCH   4  20
TORSDOF 4
ENDMDL
MODEL 8
REMARK VINA RESULT:      -7.7      6.186      9.095
REMARK  4 active torsions:
REMARK  status: ('A' for Active; 'I' for Inactive)
REMARK    1  A    between atoms: C5_5  and  C6_6 
REMARK    2  A    between atoms: N2_8  and  C7_9 
REMARK    3  A    between atoms: C8_11  and  O2_12 
REMARK    4  A    between atoms: C10_15  and  C11_16 
ROOT
HETATM    1  C6  UNL     1      27.116   5.150  48.876  1.00  0.00     0.067 C 
HETATM    2  N1  UNL     1      28.347   4.919  48.562  1.00  0.00    -0.177 NA
HETATM    3  N2  UNL     1      28.875   6.044  47.904  1.00  0.00    -0.257 N 
HETATM    4  C10 UNL     1      27.833   6.981  47.581  1.00  0.00     0.146 C 
HETATM    5  C17 UNL     1      26.682   6.514  48.438  1.00  0.00     0.093 C 
ENDROOT
BRANCH   1   6
HETATM    6  C5  UNL     1      26.243   4.184  49.579  1.00  0.00    -0.010 A 
HETATM    7  C4  UNL     1      24.882   4.276  49.287  1.00  0.00     0.014 A 
HETATM    8  C3  UNL     1      24.012   3.392  49.919  1.00  0.00     0.007 A 
HETATM    9  C2  UNL     1      24.501   2.455  50.808  1.00  0.00    -0.062 A 
HETATM   10  C1  UNL     1      23.618   1.491  51.509  1.00  0.00     0.048 C 
HETATM   11  C19 UNL     1      25.862   2.412  51.059  1.00  0.00     0.007 A 
HETATM   12  C18 UNL     1      26.756   3.276  50.449  1.00  0.00     0.014 A 
ENDBRANCH   1   6
BRANCH   3  13
HETATM   13  C7  UNL     1      30.328   6.029  47.692  1.00  0.00     0.319 C 
HETATM   14  O1  UNL     1      30.864   4.764  48.037  1.00  0.00    -0.293 OA
HETATM   15  C8  UNL     1      32.162   4.815  48.459  1.00  0.00     0.187 C 
HETATM   16  C9  UNL     1      32.617   5.938  49.047  1.00  0.00     0.113 C 
HETATM   17  S1  UNL     1      31.151   7.007  49.017  1.00  0.00    -0.082 SA
BRANCH  15  18
HETATM   18  O2  UNL     1      32.892   3.632  48.215  1.00  0.00    -0.341 OA
HETATM   19  H7  UNL     1      33.786   3.442  48.643  1.00  0.00     0.220 HD
ENDBRANCH  15  18
ENDBRANCH   3  13
BRANCH   4  20
HETATM   20  C11 UNL     1      28.190   8.392  47.803  1.00  0.00    -0.033 A 
HETATM   21  C12 UNL     1      28.743   9.170  46.795  1.00  0.00     0.011 A 
HETATM   22  C13 UNL     1      29.116  10.501  46.888  1.00  0.00     0.019 A 
HETATM   23  C14 UNL     1      28.903  11.091  48.135  1.00  0.00     0.011 A 
HETATM   24 BR1  UNL     1      29.411  12.928  48.287  1.00  0.00    -0.051 Br
HETATM   25  C15 UNL     1      28.350  10.352  49.183  1.00  0.00     0.019 A 
HETATM   26  C16 UNL     1      28.007   9.030  49.001  1.00  0.00     0.011 A 
ENDBRANCH   4  20
TORSDOF 4
ENDMDL
MODEL 9
REMARK VINA RESULT:      -7.2      7.910     10.006
REMARK  4 active torsions:
REMARK  status: ('A' for Active; 'I' for Inactive)
REMARK    1  A    between atoms: C5_5  and  C6_6 
REMARK    2  A    between atoms: N2_8  and  C7_9 
REMARK    3  A    between atoms: C8_11  and  O2_12 
REMARK    4  A    between atoms: C10_15  and  C11_16 
ROOT
HETATM    1  C6  UNL     1      28.526   6.940  48.269  1.00  0.00     0.067 C 
HETATM    2  N1  UNL     1      29.181   8.050  48.179  1.00  0.00    -0.177 NA
HETATM    3  N2  UNL     1      30.557   7.784  48.293  1.00  0.00    -0.257 N 
HETATM    4  C10 UNL     1      30.782   6.425  48.706  1.00  0.00     0.146 C 
HETATM    5  C17 UNL     1      29.443   5.772  48.462  1.00  0.00     0.093 C 
ENDROOT
BRANCH   1   6
HETATM    6  C5  UNL     1      27.052   6.837  48.194  1.00  0.00    -0.010 A 
HETATM    7  C4  UNL     1      26.486   5.761  48.878  1.00  0.00     0.014 A 
HETATM    8  C3  UNL     1      25.102   5.614  48.843  1.00  0.00     0.007 A 
HETATM    9  C2  UNL     1      24.326   6.518  48.146  1.00  0.00    -0.062 A 
HETATM   10  C1  UNL     1      22.849   6.408  48.077  1.00  0.00     0.048 C 
HETATM   11  C19 UNL     1      24.944   7.567  47.486  1.00  0.00     0.007 A 
HETATM   12  C18 UNL     1      26.318   7.744  47.499  1.00  0.00     0.014 A 
ENDBRANCH   1   6
BRANCH   3  13
HETATM   13  C7  UNL     1      31.447   8.909  47.977  1.00  0.00     0.319 C 
HETATM   14  O1  UNL     1      30.949  10.106  48.546  1.00  0.00    -0.293 OA
HETATM   15  C8  UNL     1      31.301  11.230  47.854  1.00  0.00     0.187 C 
HETATM   16  C9  UNL     1      31.527  11.142  46.530  1.00  0.00     0.113 C 
HETATM   17  S1  UNL     1      31.235   9.379  46.210  1.00  0.00    -0.082 SA
BRANCH  15  18
HETATM   18  O2  UNL     1      31.384  12.392  48.651  1.00  0.00    -0.341 OA
HETATM   19  H7  UNL     1      31.905  13.211  48.372  1.00  0.00     0.220 HD
ENDBRANCH  15  18
ENDBRANCH   3  13
BRANCH   4  20
HETATM   20  C11 UNL     1      31.893   5.752  48.015  1.00  0.00    -0.033 A 
HETATM   21  C12 UNL     1      31.715   5.121  46.791  1.00  0.00     0.011 A 
HETATM   22  C13 UNL     1      32.682   4.460  46.053  1.00  0.00     0.019 A 
HETATM   23  C14 UNL     1      33.955   4.441  46.625  1.00  0.00     0.011 A 
HETATM   24 BR1  UNL     1      35.306   3.533  45.622  1.00  0.00    -0.051 Br
HETATM   25  C15 UNL     1      34.188   5.060  47.854  1.00  0.00     0.019 A 
HETATM   26  C16 UNL     1      33.166   5.697  48.521  1.00  0.00     0.011 A 
ENDBRANCH   4  20
TORSDOF 4
ENDMDL
