MODEL 1
REMARK VINA RESULT:      -8.3      0.000      0.000
REMARK  5 active torsions:
REMARK  status: ('A' for Active; 'I' for Inactive)
REMARK    1  A    between atoms: N1_1  and  C1_2 
REMARK    2  A    between atoms: C1_2  and  O1_3 
REMARK    3  A    between atoms: C2_4  and  N2_5 
REMARK    4  A    between atoms: C3_7  and  C4_8 
REMARK    5  A    between atoms: C11_16  and  C12_17 
ROOT
HETATM    1  N2  UNL     1      23.654   1.713  52.109  1.00  0.00    -0.268 N 
HETATM    2  N3  UNL     1      22.250   1.627  51.930  1.00  0.00    -0.176 NA
HETATM    3  C3  UNL     1      21.809   0.511  52.403  1.00  0.00     0.067 C 
HETATM    4  C10 UNL     1      22.962  -0.277  52.966  1.00  0.00     0.094 C 
HETATM    5  C11 UNL     1      23.926   0.853  53.256  1.00  0.00     0.148 C 
ENDROOT
BRANCH   1   6
HETATM    6  C2  UNL     1      24.396   2.535  51.218  1.00  0.00     0.162 C 
HETATM    7  C1  UNL     1      24.594   3.809  51.516  1.00  0.00     0.129 C 
BRANCH   7   8
HETATM    8  N1  UNL     1      23.978   4.152  52.773  1.00  0.00    -0.282 NA
HETATM    9  H1  UNL     1      23.177   3.976  53.414  1.00  0.00     0.126 HD
HETATM   10  H2  UNL     1      23.075   3.674  53.047  1.00  0.00     0.126 HD
ENDBRANCH   7   8
BRANCH   7  11
HETATM   11  O1  UNL     1      25.307   4.647  50.685  1.00  0.00    -0.350 OA
HETATM   12  H3  UNL     1      25.992   5.323  51.010  1.00  0.00     0.218 HD
ENDBRANCH   7  11
ENDBRANCH   1   6
BRANCH   5  13
HETATM   13  C12 UNL     1      25.324   0.437  53.370  1.00  0.00    -0.033 A 
HETATM   14  C13 UNL     1      26.238   1.128  54.157  1.00  0.00     0.011 A 
HETATM   15  C14 UNL     1      27.568   0.696  54.237  1.00  0.00     0.019 A 
HETATM   16  C15 UNL     1      27.989  -0.410  53.544  1.00  0.00     0.011 A 
HETATM   17 BR1  UNL     1      29.815  -1.009  53.651  1.00  0.00    -0.051 Br
HETATM   18  C16 UNL     1      27.065  -1.096  52.758  1.00  0.00     0.019 A 
HETATM   19  C17 UNL     1      25.756  -0.674  52.677  1.00  0.00     0.011 A 
ENDBRANCH   5  13
BRANCH   3  20
HETATM   20  C4  UNL     1      20.425   0.046  52.412  1.00  0.00    -0.010 A 
HETATM   21  C5  UNL     1      19.897  -0.695  53.439  1.00  0.00     0.015 A 
HETATM   22  C6  UNL     1      18.569  -1.096  53.365  1.00  0.00     0.024 A 
HETATM   23  C7  UNL     1      17.738  -0.778  52.286  1.00  0.00     0.034 A 
HETATM   24 CL1  UNL     1      16.078  -1.328  52.283  1.00  0.00    -0.084 Cl
HETATM   25  C8  UNL     1      18.295  -0.033  51.270  1.00  0.00     0.024 A 
HETATM   26  C9  UNL     1      19.607   0.364  51.340  1.00  0.00     0.015 A 
ENDBRANCH   3  20
TORSDOF 5
ENDMDL
MODEL 2
REMARK VINA RESULT:      -8.0      3.015      4.460
REMARK  5 active torsions:
REMARK  status: ('A' for Active; 'I' for Inactive)
REMARK    1  A    between atoms: N1_1  and  C1_2 
REMARK    2  A    between atoms: C1_2  and  O1_3 
REMARK    3  A    between atoms: C2_4  and  N2_5 
REMARK    4  A    between atoms: C3_7  and  C4_8 
REMARK    5  A    between atoms: C11_16  and  C12_17 
ROOT
HETATM    1  N2  UNL     1      25.272   1.940  52.593  1.00  0.00    -0.268 N 
HETATM    2  N3  UNL     1      24.328   1.070  53.195  1.00  0.00    -0.176 NA
HETATM    3  C3  UNL     1      23.205   1.127  52.563  1.00  0.00     0.067 C 
HETATM    4  C10 UNL     1      23.328   2.103  51.423  1.00  0.00     0.094 C 
HETATM    5  C11 UNL     1      24.825   2.056  51.208  1.00  0.00     0.148 C 
ENDROOT
BRANCH   1   6
HETATM    6  C2  UNL     1      26.328   2.448  53.397  1.00  0.00     0.162 C 
HETATM    7  C1  UNL     1      27.447   1.752  53.522  1.00  0.00     0.129 C 
BRANCH   7   8
HETATM    8  N1  UNL     1      27.384   0.524  52.767  1.00  0.00    -0.282 NA
HETATM    9  H1  UNL     1      26.986  -0.436  52.721  1.00  0.00     0.126 HD
HETATM   10  H2  UNL     1      26.795  -0.273  53.138  1.00  0.00     0.126 HD
ENDBRANCH   7   8
BRANCH   7  11
HETATM   11  O1  UNL     1      28.500   2.200  54.290  1.00  0.00    -0.350 OA
HETATM   12  H3  UNL     1      29.475   1.988  54.099  1.00  0.00     0.218 HD
ENDBRANCH   7  11
ENDBRANCH   1   6
BRANCH   5  13
HETATM   13  C12 UNL     1      25.367   3.218  50.504  1.00  0.00    -0.033 A 
HETATM   14  C13 UNL     1      26.529   3.145  49.744  1.00  0.00     0.011 A 
HETATM   15  C14 UNL     1      27.015   4.281  49.086  1.00  0.00     0.019 A 
HETATM   16  C15 UNL     1      26.356   5.480  49.178  1.00  0.00     0.011 A 
HETATM   17 BR1  UNL     1      27.018   7.045  48.276  1.00  0.00    -0.051 Br
HETATM   18  C16 UNL     1      25.192   5.544  49.942  1.00  0.00     0.019 A 
HETATM   19  C17 UNL     1      24.712   4.427  50.590  1.00  0.00     0.011 A 
ENDBRANCH   5  13
BRANCH   3  20
HETATM   20  C4  UNL     1      21.985   0.384  52.871  1.00  0.00    -0.010 A 
HETATM   21  C5  UNL     1      21.928  -0.574  53.852  1.00  0.00     0.015 A 
HETATM   22  C6  UNL     1      20.724  -1.232  54.077  1.00  0.00     0.024 A 
HETATM   23  C7  UNL     1      19.563  -0.964  53.347  1.00  0.00     0.034 A 
HETATM   24 CL1  UNL     1      18.095  -1.845  53.704  1.00  0.00    -0.084 Cl
HETATM   25  C8  UNL     1      19.651   0.002  52.369  1.00  0.00     0.024 A 
HETATM   26  C9  UNL     1      20.838   0.653  52.144  1.00  0.00     0.015 A 
ENDBRANCH   3  20
TORSDOF 5
ENDMDL
MODEL 3
REMARK VINA RESULT:      -7.9      5.636      8.632
REMARK  5 active torsions:
REMARK  status: ('A' for Active; 'I' for Inactive)
REMARK    1  A    between atoms: N1_1  and  C1_2 
REMARK    2  A    between atoms: C1_2  and  O1_3 
REMARK    3  A    between atoms: C2_4  and  N2_5 
REMARK    4  A    between atoms: C3_7  and  C4_8 
REMARK    5  A    between atoms: C11_16  and  C12_17 
ROOT
HETATM    1  N2  UNL     1      24.061   5.021  49.531  1.00  0.00    -0.268 N 
HETATM    2  N3  UNL     1      24.997   5.842  48.853  1.00  0.00    -0.176 NA
HETATM    3  C3  UNL     1      26.185   5.352  48.970  1.00  0.00     0.067 C 
HETATM    4  C10 UNL     1      26.120   4.089  49.788  1.00  0.00     0.094 C 
HETATM    5  C11 UNL     1      24.679   3.699  49.540  1.00  0.00     0.148 C 
ENDROOT
BRANCH   1   6
HETATM    6  C2  UNL     1      22.858   5.616  49.998  1.00  0.00     0.162 C 
HETATM    7  C1  UNL     1      22.875   6.339  51.107  1.00  0.00     0.129 C 
BRANCH   7   8
HETATM    8  N1  UNL     1      24.199   6.392  51.675  1.00  0.00    -0.282 NA
HETATM    9  H1  UNL     1      25.176   6.039  51.611  1.00  0.00     0.126 HD
HETATM   10  H2  UNL     1      24.964   5.802  51.242  1.00  0.00     0.126 HD
ENDBRANCH   7   8
BRANCH   7  11
HETATM   11  O1  UNL     1      21.736   6.937  51.602  1.00  0.00    -0.350 OA
HETATM   12  H3  UNL     1      20.793   6.606  51.419  1.00  0.00     0.218 HD
ENDBRANCH   7  11
ENDBRANCH   1   6
BRANCH   5  13
HETATM   13  C12 UNL     1      24.122   2.788  50.541  1.00  0.00    -0.033 A 
HETATM   14  C13 UNL     1      24.679   2.652  51.807  1.00  0.00     0.011 A 
HETATM   15  C14 UNL     1      24.115   1.768  52.734  1.00  0.00     0.019 A 
HETATM   16  C15 UNL     1      23.008   1.026  52.412  1.00  0.00     0.011 A 
HETATM   17 BR1  UNL     1      22.227  -0.190  53.683  1.00  0.00    -0.051 Br
HETATM   18  C16 UNL     1      22.456   1.170  51.140  1.00  0.00     0.019 A 
HETATM   19  C17 UNL     1      23.010   2.038  50.226  1.00  0.00     0.011 A 
ENDBRANCH   5  13
BRANCH   3  20
HETATM   20  C4  UNL     1      27.420   5.901  48.417  1.00  0.00    -0.010 A 
HETATM   21  C5  UNL     1      27.486   7.143  47.838  1.00  0.00     0.015 A 
HETATM   22  C6  UNL     1      28.704   7.587  47.337  1.00  0.00     0.024 A 
HETATM   23  C7  UNL     1      29.873   6.822  47.395  1.00  0.00     0.034 A 
HETATM   24 CL1  UNL     1      31.361   7.467  46.737  1.00  0.00    -0.084 Cl
HETATM   25  C8  UNL     1      29.777   5.580  47.982  1.00  0.00     0.024 A 
HETATM   26  C9  UNL     1      28.575   5.139  48.477  1.00  0.00     0.015 A 
ENDBRANCH   3  20
TORSDOF 5
ENDMDL
MODEL 4
REMARK VINA RESULT:      -7.8      4.907      7.643
REMARK  5 active torsions:
REMARK  status: ('A' for Active; 'I' for Inactive)
REMARK    1  A    between atoms: N1_1  and  C1_2 
REMARK    2  A    between atoms: C1_2  and  O1_3 
REMARK    3  A    between atoms: C2_4  and  N2_5 
REMARK    4  A    between atoms: C3_7  and  C4_8 
REMARK    5  A    between atoms: C11_16  and  C12_17 
ROOT
HETATM    1  N2  UNL     1      22.243   0.404  52.943  1.00  0.00    -0.268 N 
HETATM    2  N3  UNL     1      23.428  -0.225  53.404  1.00  0.00    -0.176 NA
HETATM    3  C3  UNL     1      24.464   0.407  52.967  1.00  0.00     0.067 C 
HETATM    4  C10 UNL     1      24.015   1.574  52.129  1.00  0.00     0.094 C 
HETATM    5  C11 UNL     1      22.636   1.790  52.711  1.00  0.00     0.148 C 
ENDROOT
BRANCH   1   6
HETATM    6  C2  UNL     1      21.066  -0.384  52.825  1.00  0.00     0.162 C 
HETATM    7  C1  UNL     1      20.273  -0.536  53.874  1.00  0.00     0.129 C 
BRANCH   7   8
HETATM    8  N1  UNL     1      20.784   0.173  55.020  1.00  0.00    -0.282 NA
HETATM    9  H1  UNL     1      21.581   0.720  55.408  1.00  0.00     0.126 HD
HETATM   10  H2  UNL     1      21.742   0.618  54.960  1.00  0.00     0.126 HD
ENDBRANCH   7   8
BRANCH   7  11
HETATM   11  O1  UNL     1      19.121  -1.290  53.811  1.00  0.00    -0.350 OA
HETATM   12  H3  UNL     1      18.779  -1.872  54.570  1.00  0.00     0.218 HD
ENDBRANCH   7  11
ENDBRANCH   1   6
BRANCH   5  13
HETATM   13  C12 UNL     1      21.723   2.529  51.838  1.00  0.00    -0.033 A 
HETATM   14  C13 UNL     1      20.649   3.257  52.338  1.00  0.00     0.011 A 
HETATM   15  C14 UNL     1      19.800   3.949  51.468  1.00  0.00     0.019 A 
HETATM   16  C15 UNL     1      20.010   3.921  50.113  1.00  0.00     0.011 A 
HETATM   17 BR1  UNL     1      18.846   4.871  48.911  1.00  0.00    -0.051 Br
HETATM   18  C16 UNL     1      21.089   3.189  49.621  1.00  0.00     0.019 A 
HETATM   19  C17 UNL     1      21.927   2.507  50.475  1.00  0.00     0.011 A 
ENDBRANCH   5  13
BRANCH   3  20
HETATM   20  C4  UNL     1      25.865   0.076  53.218  1.00  0.00    -0.010 A 
HETATM   21  C5  UNL     1      26.664   0.818  54.052  1.00  0.00     0.015 A 
HETATM   22  C6  UNL     1      27.986   0.431  54.234  1.00  0.00     0.024 A 
HETATM   23  C7  UNL     1      28.545  -0.685  53.604  1.00  0.00     0.034 A 
HETATM   24 CL1  UNL     1      30.221  -1.093  53.896  1.00  0.00    -0.084 Cl
HETATM   25  C8  UNL     1      27.719  -1.410  52.773  1.00  0.00     0.024 A 
HETATM   26  C9  UNL     1      26.413  -1.030  52.591  1.00  0.00     0.015 A 
ENDBRANCH   3  20
TORSDOF 5
ENDMDL
MODEL 5
REMARK VINA RESULT:      -7.8      4.308      7.257
REMARK  5 active torsions:
REMARK  status: ('A' for Active; 'I' for Inactive)
REMARK    1  A    between atoms: N1_1  and  C1_2 
REMARK    2  A    between atoms: C1_2  and  O1_3 
REMARK    3  A    between atoms: C2_4  and  N2_5 
REMARK    4  A    between atoms: C3_7  and  C4_8 
REMARK    5  A    between atoms: C11_16  and  C12_17 
ROOT
HETATM    1  N2  UNL     1      22.831   2.197  52.078  1.00  0.00    -0.268 N 
HETATM    2  N3  UNL     1      24.234   2.194  52.285  1.00  0.00    -0.176 NA
HETATM    3  C3  UNL     1      24.634   1.009  52.603  1.00  0.00     0.067 C 
HETATM    4  C10 UNL     1      23.449   0.080  52.636  1.00  0.00     0.094 C 
HETATM    5  C11 UNL     1      22.518   0.822  51.702  1.00  0.00     0.148 C 
ENDROOT
BRANCH   1   6
HETATM    6  C2  UNL     1      22.126   3.416  52.267  1.00  0.00     0.162 C 
HETATM    7  C1  UNL     1      22.205   4.366  51.348  1.00  0.00     0.129 C 
BRANCH   7   8
HETATM    8  N1  UNL     1      23.050   3.961  50.252  1.00  0.00    -0.282 NA
HETATM    9  H1  UNL     1      23.118   3.384  49.388  1.00  0.00     0.126 HD
HETATM   10  H2  UNL     1      22.664   3.287  49.533  1.00  0.00     0.126 HD
ENDBRANCH   7   8
BRANCH   7  11
HETATM   11  O1  UNL     1      21.541   5.566  51.485  1.00  0.00    -0.350 OA
HETATM   12  H3  UNL     1      21.201   5.932  52.369  1.00  0.00     0.218 HD
ENDBRANCH   7  11
ENDBRANCH   1   6
BRANCH   5  13
HETATM   13  C12 UNL     1      21.106   0.470  51.856  1.00  0.00    -0.033 A 
HETATM   14  C13 UNL     1      20.167   0.732  50.865  1.00  0.00     0.011 A 
HETATM   15  C14 UNL     1      18.826   0.380  51.053  1.00  0.00     0.019 A 
HETATM   16  C15 UNL     1      18.416  -0.228  52.212  1.00  0.00     0.011 A 
HETATM   17 BR1  UNL     1      16.573  -0.716  52.477  1.00  0.00    -0.051 Br
HETATM   18  C16 UNL     1      19.365  -0.488  53.200  1.00  0.00     0.019 A 
HETATM   19  C17 UNL     1      20.685  -0.141  53.017  1.00  0.00     0.011 A 
ENDBRANCH   5  13
BRANCH   3  20
HETATM   20  C4  UNL     1      26.003   0.593  52.896  1.00  0.00    -0.010 A 
HETATM   21  C5  UNL     1      26.962   1.464  53.347  1.00  0.00     0.015 A 
HETATM   22  C6  UNL     1      28.241   0.982  53.600  1.00  0.00     0.024 A 
HETATM   23  C7  UNL     1      28.598  -0.357  53.417  1.00  0.00     0.034 A 
HETATM   24 CL1  UNL     1      30.234  -0.871  53.765  1.00  0.00    -0.084 Cl
HETATM   25  C8  UNL     1      27.613  -1.208  52.964  1.00  0.00     0.024 A 
HETATM   26  C9  UNL     1      26.351  -0.735  52.712  1.00  0.00     0.015 A 
ENDBRANCH   3  20
TORSDOF 5
ENDMDL
MODEL 6
REMARK VINA RESULT:      -7.7      4.726      7.549
REMARK  5 active torsions:
REMARK  status: ('A' for Active; 'I' for Inactive)
REMARK    1  A    between atoms: N1_1  and  C1_2 
REMARK    2  A    between atoms: C1_2  and  O1_3 
REMARK    3  A    between atoms: C2_4  and  N2_5 
REMARK    4  A    between atoms: C3_7  and  C4_8 
REMARK    5  A    between atoms: C11_16  and  C12_17 
ROOT
HETATM    1  N2  UNL     1      24.726   1.429  52.322  1.00  0.00    -0.268 N 
HETATM    2  N3  UNL     1      25.678   2.279  51.705  1.00  0.00    -0.176 NA
HETATM    3  C3  UNL     1      25.085   3.119  50.926  1.00  0.00     0.067 C 
HETATM    4  C10 UNL     1      23.600   2.871  50.970  1.00  0.00     0.094 C 
HETATM    5  C11 UNL     1      23.493   2.210  52.327  1.00  0.00     0.148 C 
ENDROOT
BRANCH   1   6
HETATM    6  C2  UNL     1      25.150   0.141  52.749  1.00  0.00     0.162 C 
HETATM    7  C1  UNL     1      25.926   0.029  53.815  1.00  0.00     0.129 C 
BRANCH   7   8
HETATM    8  N1  UNL     1      26.217   1.321  54.386  1.00  0.00    -0.282 NA
HETATM    9  H1  UNL     1      26.797   1.846  55.073  1.00  0.00     0.126 HD
HETATM   10  H2  UNL     1      26.960   1.392  55.136  1.00  0.00     0.126 HD
ENDBRANCH   7   8
BRANCH   7  11
HETATM   11  O1  UNL     1      26.364  -1.196  54.270  1.00  0.00    -0.350 OA
HETATM   12  H3  UNL     1      27.007  -1.796  53.760  1.00  0.00     0.218 HD
ENDBRANCH   7  11
ENDBRANCH   1   6
BRANCH   5  13
HETATM   13  C12 UNL     1      22.282   1.410  52.513  1.00  0.00    -0.033 A 
HETATM   14  C13 UNL     1      21.982   0.793  53.722  1.00  0.00     0.011 A 
HETATM   15  C14 UNL     1      20.813   0.036  53.856  1.00  0.00     0.019 A 
HETATM   16  C15 UNL     1      19.947  -0.111  52.802  1.00  0.00     0.011 A 
HETATM   17 BR1  UNL     1      18.338  -1.151  52.981  1.00  0.00    -0.051 Br
HETATM   18  C16 UNL     1      20.256   0.511  51.594  1.00  0.00     0.019 A 
HETATM   19  C17 UNL     1      21.406   1.257  51.459  1.00  0.00     0.011 A 
ENDBRANCH   5  13
BRANCH   3  20
HETATM   20  C4  UNL     1      25.712   4.157  50.113  1.00  0.00    -0.010 A 
HETATM   21  C5  UNL     1      25.189   5.420  49.989  1.00  0.00     0.015 A 
HETATM   22  C6  UNL     1      25.853   6.347  49.193  1.00  0.00     0.024 A 
HETATM   23  C7  UNL     1      27.036   6.052  48.510  1.00  0.00     0.034 A 
HETATM   24 CL1  UNL     1      27.799   7.286  47.533  1.00  0.00    -0.084 Cl
HETATM   25  C8  UNL     1      27.538   4.777  48.654  1.00  0.00     0.024 A 
HETATM   26  C9  UNL     1      26.884   3.860  49.437  1.00  0.00     0.015 A 
ENDBRANCH   3  20
TORSDOF 5
ENDMDL
MODEL 7
REMARK VINA RESULT:      -7.6      5.484      8.451
REMARK  5 active torsions:
REMARK  status: ('A' for Active; 'I' for Inactive)
REMARK    1  A    between atoms: N1_1  and  C1_2 
REMARK    2  A    between atoms: C1_2  and  O1_3 
REMARK    3  A    between atoms: C2_4  and  N2_5 
REMARK    4  A    between atoms: C3_7  and  C4_8 
REMARK    5  A    between atoms: C11_16  and  C12_17 
ROOT
HETATM    1  N2  UNL     1      26.005   2.593  51.066  1.00  0.00    -0.268 N 
HETATM    2  N3  UNL     1      26.993   3.422  50.475  1.00  0.00    -0.176 NA
HETATM    3  C3  UNL     1      26.442   4.263  49.666  1.00  0.00     0.067 C 
HETATM    4  C10 UNL     1      24.953   4.039  49.659  1.00  0.00     0.094 C 
HETATM    5  C11 UNL     1      24.786   3.394  51.018  1.00  0.00     0.148 C 
ENDROOT
BRANCH   1   6
HETATM    6  C2  UNL     1      26.393   1.304  51.520  1.00  0.00     0.162 C 
HETATM    7  C1  UNL     1      27.063   1.186  52.656  1.00  0.00     0.129 C 
BRANCH   7   8
HETATM    8  N1  UNL     1      27.291   2.474  53.263  1.00  0.00    -0.282 NA
HETATM    9  H1  UNL     1      27.930   3.044  53.854  1.00  0.00     0.126 HD
HETATM   10  H2  UNL     1      28.165   2.618  53.841  1.00  0.00     0.126 HD
ENDBRANCH   7   8
BRANCH   7  11
HETATM   11  O1  UNL     1      27.462  -0.041  53.140  1.00  0.00    -0.350 OA
HETATM   12  H3  UNL     1      27.659  -0.231  54.118  1.00  0.00     0.218 HD
ENDBRANCH   7  11
ENDBRANCH   1   6
BRANCH   5  13
HETATM   13  C12 UNL     1      23.556   2.615  51.167  1.00  0.00    -0.033 A 
HETATM   14  C13 UNL     1      22.895   2.063  50.076  1.00  0.00     0.011 A 
HETATM   15  C14 UNL     1      21.721   1.324  50.263  1.00  0.00     0.019 A 
HETATM   16  C15 UNL     1      21.205   1.133  51.519  1.00  0.00     0.011 A 
HETATM   17 BR1  UNL     1      19.591   0.118  51.782  1.00  0.00    -0.051 Br
HETATM   18  C16 UNL     1      21.875   1.690  52.606  1.00  0.00     0.019 A 
HETATM   19  C17 UNL     1      23.030   2.418  52.425  1.00  0.00     0.011 A 
ENDBRANCH   5  13
BRANCH   3  20
HETATM   20  C4  UNL     1      27.115   5.283  48.866  1.00  0.00    -0.010 A 
HETATM   21  C5  UNL     1      28.439   5.195  48.514  1.00  0.00     0.015 A 
HETATM   22  C6  UNL     1      28.999   6.212  47.750  1.00  0.00     0.024 A 
HETATM   23  C7  UNL     1      28.273   7.327  47.321  1.00  0.00     0.034 A 
HETATM   24 CL1  UNL     1      29.066   8.557  46.361  1.00  0.00    -0.084 Cl
HETATM   25  C8  UNL     1      26.947   7.388  47.689  1.00  0.00     0.024 A 
HETATM   26  C9  UNL     1      26.392   6.386  48.444  1.00  0.00     0.015 A 
ENDBRANCH   3  20
TORSDOF 5
ENDMDL
MODEL 8
REMARK VINA RESULT:      -7.5      0.939      1.677
REMARK  5 active torsions:
REMARK  status: ('A' for Active; 'I' for Inactive)
REMARK    1  A    between atoms: N1_1  and  C1_2 
REMARK    2  A    between atoms: C1_2  and  O1_3 
REMARK    3  A    between atoms: C2_4  and  N2_5 
REMARK    4  A    between atoms: C3_7  and  C4_8 
REMARK    5  A    between atoms: C11_16  and  C12_17 
ROOT
HETATM    1  N2  UNL     1      22.980   1.787  51.561  1.00  0.00    -0.268 N 
HETATM    2  N3  UNL     1      21.590   1.582  51.367  1.00  0.00    -0.176 NA
HETATM    3  C3  UNL     1      21.189   0.569  52.059  1.00  0.00     0.067 C 
HETATM    4  C10 UNL     1      22.359  -0.011  52.808  1.00  0.00     0.094 C 
HETATM    5  C11 UNL     1      23.251   1.209  52.873  1.00  0.00     0.148 C 
ENDROOT
BRANCH   1   6
HETATM    6  C2  UNL     1      23.712   2.440  50.533  1.00  0.00     0.162 C 
HETATM    7  C1  UNL     1      23.675   3.760  50.442  1.00  0.00     0.129 C 
BRANCH   7   8
HETATM    8  N1  UNL     1      22.840   4.330  51.471  1.00  0.00    -0.282 NA
HETATM    9  H1  UNL     1      21.990   4.201  52.057  1.00  0.00     0.126 HD
HETATM   10  H2  UNL     1      21.987   3.793  51.792  1.00  0.00     0.126 HD
ENDBRANCH   7   8
BRANCH   7  11
HETATM   11  O1  UNL     1      24.367   4.441  49.464  1.00  0.00    -0.350 OA
HETATM   12  H3  UNL     1      23.976   4.697  48.562  1.00  0.00     0.218 HD
ENDBRANCH   7  11
ENDBRANCH   1   6
BRANCH   5  13
HETATM   13  C12 UNL     1      24.663   0.910  53.111  1.00  0.00    -0.033 A 
HETATM   14  C13 UNL     1      25.188  -0.365  52.938  1.00  0.00     0.011 A 
HETATM   15  C14 UNL     1      26.545  -0.608  53.178  1.00  0.00     0.019 A 
HETATM   16  C15 UNL     1      27.378   0.403  53.585  1.00  0.00     0.011 A 
HETATM   17 BR1  UNL     1      29.245   0.075  53.915  1.00  0.00    -0.051 Br
HETATM   18  C16 UNL     1      26.843   1.679  53.755  1.00  0.00     0.019 A 
HETATM   19  C17 UNL     1      25.507   1.920  53.521  1.00  0.00     0.011 A 
ENDBRANCH   5  13
BRANCH   3  20
HETATM   20  C4  UNL     1      19.831   0.036  52.131  1.00  0.00    -0.010 A 
HETATM   21  C5  UNL     1      18.889   0.273  51.162  1.00  0.00     0.015 A 
HETATM   22  C6  UNL     1      17.620  -0.274  51.311  1.00  0.00     0.024 A 
HETATM   23  C7  UNL     1      17.256  -1.060  52.408  1.00  0.00     0.034 A 
HETATM   24 CL1  UNL     1      15.633  -1.706  52.507  1.00  0.00    -0.084 Cl
HETATM   25  C8  UNL     1      18.223  -1.282  53.364  1.00  0.00     0.024 A 
HETATM   26  C9  UNL     1      19.476  -0.742  53.220  1.00  0.00     0.015 A 
ENDBRANCH   3  20
TORSDOF 5
ENDMDL
MODEL 9
REMARK VINA RESULT:      -7.1      4.543      7.601
REMARK  5 active torsions:
REMARK  status: ('A' for Active; 'I' for Inactive)
REMARK    1  A    between atoms: N1_1  and  C1_2 
REMARK    2  A    between atoms: C1_2  and  O1_3 
REMARK    3  A    between atoms: C2_4  and  N2_5 
REMARK    4  A    between atoms: C3_7  and  C4_8 
REMARK    5  A    between atoms: C11_16  and  C12_17 
ROOT
HETATM    1  N2  UNL     1      20.478   1.863  51.890  1.00  0.00    -0.268 N 
HETATM    2  N3  UNL     1      21.841   2.084  52.215  1.00  0.00    -0.176 NA
HETATM    3  C3  UNL     1      22.346   1.026  52.753  1.00  0.00     0.067 C 
HETATM    4  C10 UNL     1      21.288  -0.042  52.832  1.00  0.00     0.094 C 
HETATM    5  C11 UNL     1      20.378   0.418  51.714  1.00  0.00     0.148 C 
ENDROOT
BRANCH   1   6
HETATM    6  C2  UNL     1      19.613   2.988  51.818  1.00  0.00     0.162 C 
HETATM    7  C1  UNL     1      19.527   3.676  50.691  1.00  0.00     0.129 C 
BRANCH   7   8
HETATM    8  N1  UNL     1      20.385   3.120  49.674  1.00  0.00    -0.282 NA
HETATM    9  H1  UNL     1      20.493   2.378  48.953  1.00  0.00     0.126 HD
HETATM   10  H2  UNL     1      20.053   2.274  49.132  1.00  0.00     0.126 HD
ENDBRANCH   7   8
BRANCH   7  11
HETATM   11  O1  UNL     1      18.704   4.775  50.571  1.00  0.00    -0.350 OA
HETATM   12  H3  UNL     1      19.037   5.731  50.495  1.00  0.00     0.218 HD
ENDBRANCH   7  11
ENDBRANCH   1   6
BRANCH   5  13
HETATM   13  C12 UNL     1      19.011  -0.098  51.800  1.00  0.00    -0.033 A 
HETATM   14  C13 UNL     1      18.096   0.059  50.766  1.00  0.00     0.011 A 
HETATM   15  C14 UNL     1      16.797  -0.449  50.890  1.00  0.00     0.019 A 
HETATM   16  C15 UNL     1      16.408  -1.109  52.027  1.00  0.00     0.011 A 
HETATM   17 BR1  UNL     1      14.624  -1.811  52.203  1.00  0.00    -0.051 Br
HETATM   18  C16 UNL     1      17.333  -1.262  53.058  1.00  0.00     0.019 A 
HETATM   19  C17 UNL     1      18.610  -0.763  52.940  1.00  0.00     0.011 A 
ENDBRANCH   5  13
BRANCH   3  20
HETATM   20  C4  UNL     1      23.716   0.850  53.226  1.00  0.00    -0.010 A 
HETATM   21  C5  UNL     1      24.657   1.847  53.163  1.00  0.00     0.015 A 
HETATM   22  C6  UNL     1      25.939   1.592  53.637  1.00  0.00     0.024 A 
HETATM   23  C7  UNL     1      26.317   0.361  54.178  1.00  0.00     0.034 A 
HETATM   24 CL1  UNL     1      27.956   0.135  54.750  1.00  0.00    -0.084 Cl
HETATM   25  C8  UNL     1      25.352  -0.621  54.229  1.00  0.00     0.024 A 
HETATM   26  C9  UNL     1      24.086  -0.373  53.762  1.00  0.00     0.015 A 
ENDBRANCH   3  20
TORSDOF 5
ENDMDL
