MODEL 1
REMARK VINA RESULT:      -7.8      0.000      0.000
REMARK  8 active torsions:
REMARK  status: ('A' for Active; 'I' for Inactive)
REMARK    1  A    between atoms: C8_8  and  C9_9 
REMARK    2  A    between atoms: C9_9  and  N1_10 
REMARK    3  A    between atoms: N1_10  and  C10_11 
REMARK    4  A    between atoms: N2_12  and  C11_13 
REMARK    5  A    between atoms: N3_14  and  C12_15 
REMARK    6  A    between atoms: C12_15  and  C13_16 
REMARK    7  A    between atoms: C15_18  and  N4_19 
REMARK    8  A    between atoms: C16_20  and  C17_21 
ROOT
HETATM    1  C11 UNL     1      23.981   4.611  51.583  1.00  0.00     0.228 C 
HETATM    2  N3  UNL     1      22.963   3.818  51.571  1.00  0.00    -0.278 NA
ENDROOT
BRANCH   1   3
HETATM    3  N2  UNL     1      24.685   4.112  50.497  1.00  0.00    -0.238 NA
HETATM    4  C10 UNL     1      25.802   3.540  50.416  1.00  0.00     0.203 C 
BRANCH   4   5
HETATM    5  N1  UNL     1      26.796   3.161  51.329  1.00  0.00    -0.384 N 
HETATM    6  H14 UNL     1      27.346   3.978  51.652  1.00  0.00     0.160 HD
BRANCH   5   7
HETATM    7  C9  UNL     1      26.775   1.750  51.565  1.00  0.00     0.129 C 
BRANCH   7   8
HETATM    8  C8  UNL     1      27.005   1.447  53.051  1.00  0.00     0.036 C 
HETATM    9  C3  UNL     1      28.017   0.368  53.199  1.00  0.00    -0.057 C 
HETATM   10  C2  UNL     1      29.265   0.529  53.576  1.00  0.00    -0.024 C 
HETATM   11  C4  UNL     1      27.503  -0.975  52.879  1.00  0.00     0.003 C 
HETATM   12  C1  UNL     1      30.110  -0.677  53.660  1.00  0.00     0.036 C 
HETATM   13  C5  UNL     1      26.189  -1.251  52.888  1.00  0.00    -0.026 C 
HETATM   14  C6  UNL     1      25.155  -0.248  53.213  1.00  0.00     0.028 C 
HETATM   15  C7  UNL     1      25.703   1.065  53.690  1.00  0.00     0.015 C 
ENDBRANCH   7   8
ENDBRANCH   5   7
ENDBRANCH   4   5
ENDBRANCH   1   3
BRANCH   2  16
HETATM   16  C12 UNL     1      22.726   2.758  50.652  1.00  0.00     0.188 C 
BRANCH  16  17
HETATM   17  C13 UNL     1      21.909   1.648  51.244  1.00  0.00    -0.039 A 
HETATM   18  C14 UNL     1      20.996   0.777  50.840  1.00  0.00     0.022 A 
HETATM   19  C15 UNL     1      20.580  -0.076  51.966  1.00  0.00     0.279 A 
HETATM   20  C16 UNL     1      21.400   0.437  53.093  1.00  0.00     0.062 A 
HETATM   21  C18 UNL     1      22.152   1.418  52.667  1.00  0.00     0.023 A 
BRANCH  19  22
HETATM   22  N4  UNL     1      19.160   0.124  52.257  1.00  0.00     0.090 N 
HETATM   23  H21 UNL     1      18.694   0.490  51.405  1.00  0.00     0.314 HD
HETATM   24  H22 UNL     1      18.760  -0.791  52.499  1.00  0.00     0.314 HD
ENDBRANCH  19  22
BRANCH  20  25
HETATM   25  C17 UNL     1      21.232  -0.219  54.434  1.00  0.00     0.416 C 
HETATM   26  F1  UNL     1      20.454   0.592  55.256  1.00  0.00    -0.166 F 
HETATM   27  F2  UNL     1      20.551  -1.417  54.292  1.00  0.00    -0.166 F 
HETATM   28  F3  UNL     1      22.448  -0.372  55.039  1.00  0.00    -0.166 F 
ENDBRANCH  20  25
ENDBRANCH  16  17
ENDBRANCH   2  16
TORSDOF 8
ENDMDL
MODEL 2
REMARK VINA RESULT:      -7.8      3.045      6.683
REMARK  8 active torsions:
REMARK  status: ('A' for Active; 'I' for Inactive)
REMARK    1  A    between atoms: C8_8  and  C9_9 
REMARK    2  A    between atoms: C9_9  and  N1_10 
REMARK    3  A    between atoms: N1_10  and  C10_11 
REMARK    4  A    between atoms: N2_12  and  C11_13 
REMARK    5  A    between atoms: N3_14  and  C12_15 
REMARK    6  A    between atoms: C12_15  and  C13_16 
REMARK    7  A    between atoms: C15_18  and  N4_19 
REMARK    8  A    between atoms: C16_20  and  C17_21 
ROOT
HETATM    1  C11 UNL     1      23.486   3.473  50.345  1.00  0.00     0.228 C 
HETATM    2  N3  UNL     1      24.520   2.839  50.788  1.00  0.00    -0.278 NA
ENDROOT
BRANCH   1   3
HETATM    3  N2  UNL     1      23.028   4.037  51.527  1.00  0.00    -0.238 NA
HETATM    4  C10 UNL     1      21.912   3.979  52.104  1.00  0.00     0.203 C 
BRANCH   4   5
HETATM    5  N1  UNL     1      20.686   3.354  51.839  1.00  0.00    -0.384 N 
HETATM    6  H14 UNL     1      20.176   3.830  51.071  1.00  0.00     0.160 HD
BRANCH   5   7
HETATM    7  C9  UNL     1      20.476   2.232  52.701  1.00  0.00     0.129 C 
BRANCH   7   8
HETATM    8  C8  UNL     1      20.408   0.932  51.889  1.00  0.00     0.036 C 
HETATM    9  C3  UNL     1      19.629  -0.092  52.633  1.00  0.00    -0.057 C 
HETATM   10  C2  UNL     1      18.401  -0.473  52.362  1.00  0.00    -0.024 C 
HETATM   11  C4  UNL     1      20.364  -0.692  53.760  1.00  0.00     0.003 C 
HETATM   12  C1  UNL     1      17.806  -1.509  53.227  1.00  0.00     0.036 C 
HETATM   13  C5  UNL     1      21.704  -0.650  53.835  1.00  0.00    -0.026 C 
HETATM   14  C6  UNL     1      22.550  -0.009  52.809  1.00  0.00     0.028 C 
HETATM   15  C7  UNL     1      21.799   0.453  51.595  1.00  0.00     0.015 C 
ENDBRANCH   7   8
ENDBRANCH   5   7
ENDBRANCH   4   5
ENDBRANCH   1   3
BRANCH   2  16
HETATM   16  C12 UNL     1      24.975   2.797  52.135  1.00  0.00     0.188 C 
BRANCH  16  17
HETATM   17  C13 UNL     1      25.954   1.688  52.383  1.00  0.00    -0.039 A 
HETATM   18  C14 UNL     1      26.151   0.443  51.975  1.00  0.00     0.022 A 
HETATM   19  C15 UNL     1      27.345  -0.118  52.630  1.00  0.00     0.279 A 
HETATM   20  C16 UNL     1      27.815   1.003  53.484  1.00  0.00     0.062 A 
HETATM   21  C18 UNL     1      27.013   2.024  53.333  1.00  0.00     0.023 A 
BRANCH  19  22
HETATM   22  N4  UNL     1      26.976  -1.258  53.470  1.00  0.00     0.090 N 
HETATM   23  H21 UNL     1      26.632  -0.901  54.382  1.00  0.00     0.314 HD
HETATM   24  H22 UNL     1      26.218  -1.762  52.994  1.00  0.00     0.314 HD
ENDBRANCH  19  22
BRANCH  20  25
HETATM   25  C17 UNL     1      29.045   0.779  54.315  1.00  0.00     0.416 C 
HETATM   26  F1  UNL     1      29.987   0.069  53.576  1.00  0.00    -0.166 F 
HETATM   27  F2  UNL     1      29.624   1.995  54.639  1.00  0.00    -0.166 F 
HETATM   28  F3  UNL     1      28.740   0.032  55.418  1.00  0.00    -0.166 F 
ENDBRANCH  20  25
ENDBRANCH  16  17
ENDBRANCH   2  16
TORSDOF 8
ENDMDL
MODEL 3
REMARK VINA RESULT:      -7.7      1.902      4.859
REMARK  8 active torsions:
REMARK  status: ('A' for Active; 'I' for Inactive)
REMARK    1  A    between atoms: C8_8  and  C9_9 
REMARK    2  A    between atoms: C9_9  and  N1_10 
REMARK    3  A    between atoms: N1_10  and  C10_11 
REMARK    4  A    between atoms: N2_12  and  C11_13 
REMARK    5  A    between atoms: N3_14  and  C12_15 
REMARK    6  A    between atoms: C12_15  and  C13_16 
REMARK    7  A    between atoms: C15_18  and  N4_19 
REMARK    8  A    between atoms: C16_20  and  C17_21 
ROOT
HETATM    1  C11 UNL     1      27.140   1.497  53.814  1.00  0.00     0.228 C 
HETATM    2  N3  UNL     1      26.517   0.522  54.386  1.00  0.00    -0.278 NA
ENDROOT
BRANCH   1   3
HETATM    3  N2  UNL     1      26.936   1.163  52.483  1.00  0.00    -0.238 NA
HETATM    4  C10 UNL     1      26.720   1.871  51.466  1.00  0.00     0.203 C 
BRANCH   4   5
HETATM    5  N1  UNL     1      26.596   3.245  51.218  1.00  0.00    -0.384 N 
HETATM    6  H14 UNL     1      27.448   3.762  51.506  1.00  0.00     0.160 HD
BRANCH   5   7
HETATM    7  C9  UNL     1      25.327   3.556  50.635  1.00  0.00     0.129 C 
BRANCH   7   8
HETATM    8  C8  UNL     1      24.191   2.900  51.430  1.00  0.00     0.036 C 
HETATM    9  C3  UNL     1      22.996   2.728  50.563  1.00  0.00    -0.057 C 
HETATM   10  C2  UNL     1      22.580   1.597  50.039  1.00  0.00    -0.024 C 
HETATM   11  C4  UNL     1      22.261   3.980  50.312  1.00  0.00     0.003 C 
HETATM   12  C1  UNL     1      21.365   1.643  49.203  1.00  0.00     0.036 C 
HETATM   13  C5  UNL     1      22.388   5.049  51.116  1.00  0.00    -0.026 C 
HETATM   14  C6  UNL     1      23.262   5.066  52.305  1.00  0.00     0.028 C 
HETATM   15  C7  UNL     1      23.876   3.737  52.635  1.00  0.00     0.015 C 
ENDBRANCH   7   8
ENDBRANCH   5   7
ENDBRANCH   4   5
ENDBRANCH   1   3
BRANCH   2  16
HETATM   16  C12 UNL     1      25.842  -0.549  53.737  1.00  0.00     0.188 C 
BRANCH  16  17
HETATM   17  C13 UNL     1      24.400  -0.652  54.136  1.00  0.00    -0.039 A 
HETATM   18  C14 UNL     1      23.675  -1.295  55.041  1.00  0.00     0.022 A 
HETATM   19  C15 UNL     1      22.254  -0.940  54.891  1.00  0.00     0.279 A 
HETATM   20  C16 UNL     1      22.266   0.014  53.754  1.00  0.00     0.062 A 
HETATM   21  C18 UNL     1      23.495   0.168  53.334  1.00  0.00     0.023 A 
BRANCH  19  22
HETATM   22  N4  UNL     1      21.470  -2.124  54.534  1.00  0.00     0.090 N 
HETATM   23  H21 UNL     1      21.715  -2.894  55.185  1.00  0.00     0.314 HD
HETATM   24  H22 UNL     1      20.477  -1.885  54.646  1.00  0.00     0.314 HD
ENDBRANCH  19  22
BRANCH  20  25
HETATM   25  C17 UNL     1      20.953   0.595  53.315  1.00  0.00     0.416 C 
HETATM   26  F1  UNL     1      21.111   1.950  53.034  1.00  0.00    -0.166 F 
HETATM   27  F2  UNL     1      20.536  -0.011  52.142  1.00  0.00    -0.166 F 
HETATM   28  F3  UNL     1      20.031   0.489  54.319  1.00  0.00    -0.166 F 
ENDBRANCH  20  25
ENDBRANCH  16  17
ENDBRANCH   2  16
TORSDOF 8
ENDMDL
MODEL 4
REMARK VINA RESULT:      -7.7      3.553      6.249
REMARK  8 active torsions:
REMARK  status: ('A' for Active; 'I' for Inactive)
REMARK    1  A    between atoms: C8_8  and  C9_9 
REMARK    2  A    between atoms: C9_9  and  N1_10 
REMARK    3  A    between atoms: N1_10  and  C10_11 
REMARK    4  A    between atoms: N2_12  and  C11_13 
REMARK    5  A    between atoms: N3_14  and  C12_15 
REMARK    6  A    between atoms: C12_15  and  C13_16 
REMARK    7  A    between atoms: C15_18  and  N4_19 
REMARK    8  A    between atoms: C16_20  and  C17_21 
ROOT
HETATM    1  C11 UNL     1      22.467   3.460  52.059  1.00  0.00     0.228 C 
HETATM    2  N3  UNL     1      23.348   2.575  52.386  1.00  0.00    -0.278 NA
ENDROOT
BRANCH   1   3
HETATM    3  N2  UNL     1      23.007   4.577  52.680  1.00  0.00    -0.238 NA
HETATM    4  C10 UNL     1      23.421   5.671  52.221  1.00  0.00     0.203 C 
BRANCH   4   5
HETATM    5  N1  UNL     1      23.522   6.241  50.944  1.00  0.00    -0.384 N 
HETATM    6  H14 UNL     1      22.600   6.571  50.602  1.00  0.00     0.160 HD
BRANCH   5   7
HETATM    7  C9  UNL     1      24.869   6.209  50.464  1.00  0.00     0.129 C 
BRANCH   7   8
HETATM    8  C8  UNL     1      24.916   5.705  49.016  1.00  0.00     0.036 C 
HETATM    9  C3  UNL     1      24.320   4.346  48.931  1.00  0.00    -0.057 C 
HETATM   10  C2  UNL     1      23.136   4.053  48.444  1.00  0.00    -0.024 C 
HETATM   11  C4  UNL     1      25.193   3.283  49.458  1.00  0.00     0.003 C 
HETATM   12  C1  UNL     1      22.731   2.634  48.452  1.00  0.00     0.036 C 
HETATM   13  C5  UNL     1      26.519   3.452  49.584  1.00  0.00    -0.026 C 
HETATM   14  C6  UNL     1      27.212   4.701  49.212  1.00  0.00     0.028 C 
HETATM   15  C7  UNL     1      26.336   5.710  48.530  1.00  0.00     0.015 C 
ENDBRANCH   7   8
ENDBRANCH   5   7
ENDBRANCH   4   5
ENDBRANCH   1   3
BRANCH   2  16
HETATM   16  C12 UNL     1      24.515   2.792  53.171  1.00  0.00     0.188 C 
BRANCH  16  17
HETATM   17  C13 UNL     1      25.537   1.708  53.002  1.00  0.00    -0.039 A 
HETATM   18  C14 UNL     1      25.668   0.578  52.321  1.00  0.00     0.022 A 
HETATM   19  C15 UNL     1      26.972  -0.039  52.615  1.00  0.00     0.279 A 
HETATM   20  C16 UNL     1      27.582   0.914  53.577  1.00  0.00     0.062 A 
HETATM   21  C18 UNL     1      26.753   1.903  53.789  1.00  0.00     0.023 A 
BRANCH  19  22
HETATM   22  N4  UNL     1      26.784  -1.339  53.259  1.00  0.00     0.090 N 
HETATM   23  H21 UNL     1      27.273  -1.331  54.175  1.00  0.00     0.314 HD
HETATM   24  H22 UNL     1      25.776  -1.468  53.412  1.00  0.00     0.314 HD
ENDBRANCH  19  22
BRANCH  20  25
HETATM   25  C17 UNL     1      28.952   0.594  54.103  1.00  0.00     0.416 C 
HETATM   26  F1  UNL     1      28.842  -0.198  55.244  1.00  0.00    -0.166 F 
HETATM   27  F2  UNL     1      29.657  -0.146  53.169  1.00  0.00    -0.166 F 
HETATM   28  F3  UNL     1      29.600   1.743  54.462  1.00  0.00    -0.166 F 
ENDBRANCH  20  25
ENDBRANCH  16  17
ENDBRANCH   2  16
TORSDOF 8
ENDMDL
MODEL 5
REMARK VINA RESULT:      -7.5      3.439      6.481
REMARK  8 active torsions:
REMARK  status: ('A' for Active; 'I' for Inactive)
REMARK    1  A    between atoms: C8_8  and  C9_9 
REMARK    2  A    between atoms: C9_9  and  N1_10 
REMARK    3  A    between atoms: N1_10  and  C10_11 
REMARK    4  A    between atoms: N2_12  and  C11_13 
REMARK    5  A    between atoms: N3_14  and  C12_15 
REMARK    6  A    between atoms: C12_15  and  C13_16 
REMARK    7  A    between atoms: C15_18  and  N4_19 
REMARK    8  A    between atoms: C16_20  and  C17_21 
ROOT
HETATM    1  C11 UNL     1      22.781   2.757  51.357  1.00  0.00     0.228 C 
HETATM    2  N3  UNL     1      23.857   2.127  51.024  1.00  0.00    -0.278 NA
ENDROOT
BRANCH   1   3
HETATM    3  N2  UNL     1      23.292   3.605  52.328  1.00  0.00    -0.238 NA
HETATM    4  C10 UNL     1      23.471   4.850  52.341  1.00  0.00     0.203 C 
BRANCH   4   5
HETATM    5  N1  UNL     1      23.248   5.897  51.436  1.00  0.00    -0.384 N 
HETATM    6  H14 UNL     1      22.258   6.206  51.448  1.00  0.00     0.160 HD
BRANCH   5   7
HETATM    7  C9  UNL     1      24.450   6.252  50.745  1.00  0.00     0.129 C 
BRANCH   7   8
HETATM    8  C8  UNL     1      24.635   5.376  49.499  1.00  0.00     0.036 C 
HETATM    9  C3  UNL     1      26.000   5.566  48.942  1.00  0.00    -0.057 C 
HETATM   10  C2  UNL     1      27.000   4.721  49.046  1.00  0.00    -0.024 C 
HETATM   11  C4  UNL     1      26.173   6.840  48.222  1.00  0.00     0.003 C 
HETATM   12  C1  UNL     1      28.280   5.102  48.418  1.00  0.00     0.036 C 
HETATM   13  C5  UNL     1      25.126   7.532  47.744  1.00  0.00    -0.026 C 
HETATM   14  C6  UNL     1      23.727   7.086  47.896  1.00  0.00     0.028 C 
HETATM   15  C7  UNL     1      23.581   5.715  48.488  1.00  0.00     0.015 C 
ENDBRANCH   7   8
ENDBRANCH   5   7
ENDBRANCH   4   5
ENDBRANCH   1   3
BRANCH   2  16
HETATM   16  C12 UNL     1      25.158   2.327  51.565  1.00  0.00     0.188 C 
BRANCH  16  17
HETATM   17  C13 UNL     1      25.664   1.131  52.316  1.00  0.00    -0.039 A 
HETATM   18  C14 UNL     1      25.174   0.008  52.820  1.00  0.00     0.022 A 
HETATM   19  C15 UNL     1      26.249  -0.767  53.462  1.00  0.00     0.279 A 
HETATM   20  C16 UNL     1      27.446   0.085  53.249  1.00  0.00     0.062 A 
HETATM   21  C18 UNL     1      27.098   1.162  52.596  1.00  0.00     0.023 A 
BRANCH  19  22
HETATM   22  N4  UNL     1      25.989  -0.905  54.896  1.00  0.00     0.090 N 
HETATM   23  H21 UNL     1      26.437  -1.778  55.233  1.00  0.00     0.314 HD
HETATM   24  H22 UNL     1      26.415  -0.097  55.368  1.00  0.00     0.314 HD
ENDBRANCH  19  22
BRANCH  20  25
HETATM   25  C17 UNL     1      28.759  -0.409  53.787  1.00  0.00     0.416 C 
HETATM   26  F1  UNL     1      29.805   0.235  53.132  1.00  0.00    -0.166 F 
HETATM   27  F2  UNL     1      28.870  -0.089  55.130  1.00  0.00    -0.166 F 
HETATM   28  F3  UNL     1      28.890  -1.749  53.553  1.00  0.00    -0.166 F 
ENDBRANCH  20  25
ENDBRANCH  16  17
ENDBRANCH   2  16
TORSDOF 8
ENDMDL
MODEL 6
REMARK VINA RESULT:      -7.4      3.441      6.507
REMARK  8 active torsions:
REMARK  status: ('A' for Active; 'I' for Inactive)
REMARK    1  A    between atoms: C8_8  and  C9_9 
REMARK    2  A    between atoms: C9_9  and  N1_10 
REMARK    3  A    between atoms: N1_10  and  C10_11 
REMARK    4  A    between atoms: N2_12  and  C11_13 
REMARK    5  A    between atoms: N3_14  and  C12_15 
REMARK    6  A    between atoms: C12_15  and  C13_16 
REMARK    7  A    between atoms: C15_18  and  N4_19 
REMARK    8  A    between atoms: C16_20  and  C17_21 
ROOT
HETATM    1  C11 UNL     1      23.132   2.617  52.653  1.00  0.00     0.228 C 
HETATM    2  N3  UNL     1      23.913   1.745  53.196  1.00  0.00    -0.278 NA
ENDROOT
BRANCH   1   3
HETATM    3  N2  UNL     1      22.700   1.897  51.550  1.00  0.00    -0.238 NA
HETATM    4  C10 UNL     1      22.610   2.203  50.333  1.00  0.00     0.203 C 
BRANCH   4   5
HETATM    5  N1  UNL     1      22.890   3.346  49.572  1.00  0.00    -0.384 N 
HETATM    6  H14 UNL     1      22.038   3.914  49.412  1.00  0.00     0.160 HD
BRANCH   5   7
HETATM    7  C9  UNL     1      24.277   3.414  49.226  1.00  0.00     0.129 C 
BRANCH   7   8
HETATM    8  C8  UNL     1      25.080   4.093  50.342  1.00  0.00     0.036 C 
HETATM    9  C3  UNL     1      24.907   5.568  50.270  1.00  0.00    -0.057 C 
HETATM   10  C2  UNL     1      24.166   6.297  51.073  1.00  0.00    -0.024 C 
HETATM   11  C4  UNL     1      25.663   6.200  49.174  1.00  0.00     0.003 C 
HETATM   12  C1  UNL     1      24.129   7.751  50.829  1.00  0.00     0.036 C 
HETATM   13  C5  UNL     1      26.716   5.596  48.599  1.00  0.00    -0.026 C 
HETATM   14  C6  UNL     1      27.203   4.264  49.007  1.00  0.00     0.028 C 
HETATM   15  C7  UNL     1      26.525   3.707  50.224  1.00  0.00     0.015 C 
ENDBRANCH   7   8
ENDBRANCH   5   7
ENDBRANCH   4   5
ENDBRANCH   1   3
BRANCH   2  16
HETATM   16  C12 UNL     1      24.185   0.434  52.713  1.00  0.00     0.188 C 
BRANCH  16  17
HETATM   17  C13 UNL     1      25.642   0.086  52.768  1.00  0.00    -0.039 A 
HETATM   18  C14 UNL     1      26.434  -0.895  52.358  1.00  0.00     0.022 A 
HETATM   19  C15 UNL     1      27.826  -0.616  52.749  1.00  0.00     0.279 A 
HETATM   20  C16 UNL     1      27.719   0.688  53.452  1.00  0.00     0.062 A 
HETATM   21  C18 UNL     1      26.470   1.075  53.455  1.00  0.00     0.023 A 
BRANCH  19  22
HETATM   22  N4  UNL     1      28.307  -1.639  53.678  1.00  0.00     0.090 N 
HETATM   23  H21 UNL     1      29.224  -1.990  53.341  1.00  0.00     0.314 HD
HETATM   24  H22 UNL     1      28.429  -1.194  54.596  1.00  0.00     0.314 HD
ENDBRANCH  19  22
BRANCH  20  25
HETATM   25  C17 UNL     1      28.981   1.292  53.999  1.00  0.00     0.416 C 
HETATM   26  F1  UNL     1      28.962   2.671  53.806  1.00  0.00    -0.166 F 
HETATM   27  F2  UNL     1      29.052   1.079  55.366  1.00  0.00    -0.166 F 
HETATM   28  F3  UNL     1      30.067   0.799  53.332  1.00  0.00    -0.166 F 
ENDBRANCH  20  25
ENDBRANCH  16  17
ENDBRANCH   2  16
TORSDOF 8
ENDMDL
MODEL 7
REMARK VINA RESULT:      -7.4      3.133      5.879
REMARK  8 active torsions:
REMARK  status: ('A' for Active; 'I' for Inactive)
REMARK    1  A    between atoms: C8_8  and  C9_9 
REMARK    2  A    between atoms: C9_9  and  N1_10 
REMARK    3  A    between atoms: N1_10  and  C10_11 
REMARK    4  A    between atoms: N2_12  and  C11_13 
REMARK    5  A    between atoms: N3_14  and  C12_15 
REMARK    6  A    between atoms: C12_15  and  C13_16 
REMARK    7  A    between atoms: C15_18  and  N4_19 
REMARK    8  A    between atoms: C16_20  and  C17_21 
ROOT
HETATM    1  C11 UNL     1      20.790   0.909  53.255  1.00  0.00     0.228 C 
HETATM    2  N3  UNL     1      21.702   0.366  53.991  1.00  0.00    -0.278 NA
ENDROOT
BRANCH   1   3
HETATM    3  N2  UNL     1      20.853   0.080  52.145  1.00  0.00    -0.238 NA
HETATM    4  C10 UNL     1      21.015   0.329  50.923  1.00  0.00     0.203 C 
BRANCH   4   5
HETATM    5  N1  UNL     1      21.198   1.490  50.160  1.00  0.00    -0.384 N 
HETATM    6  H14 UNL     1      20.291   1.903  49.873  1.00  0.00     0.160 HD
BRANCH   5   7
HETATM    7  C9  UNL     1      22.587   1.786  49.987  1.00  0.00     0.129 C 
BRANCH   7   8
HETATM    8  C8  UNL     1      22.793   3.284  49.732  1.00  0.00     0.036 C 
HETATM    9  C3  UNL     1      24.190   3.670  50.065  1.00  0.00    -0.057 C 
HETATM   10  C2  UNL     1      25.146   3.924  49.201  1.00  0.00    -0.024 C 
HETATM   11  C4  UNL     1      24.451   3.757  51.512  1.00  0.00     0.003 C 
HETATM   12  C1  UNL     1      26.469   4.291  49.740  1.00  0.00     0.036 C 
HETATM   13  C5  UNL     1      23.458   3.908  52.404  1.00  0.00    -0.026 C 
HETATM   14  C6  UNL     1      22.036   3.999  52.020  1.00  0.00     0.028 C 
HETATM   15  C7  UNL     1      21.803   4.070  50.539  1.00  0.00     0.015 C 
ENDBRANCH   7   8
ENDBRANCH   5   7
ENDBRANCH   4   5
ENDBRANCH   1   3
BRANCH   2  16
HETATM   16  C12 UNL     1      22.493  -0.769  53.658  1.00  0.00     0.188 C 
BRANCH  16  17
HETATM   17  C13 UNL     1      23.961  -0.529  53.849  1.00  0.00    -0.039 A 
HETATM   18  C14 UNL     1      24.902  -0.847  54.726  1.00  0.00     0.022 A 
HETATM   19  C15 UNL     1      26.192  -0.273  54.309  1.00  0.00     0.279 A 
HETATM   20  C16 UNL     1      25.852   0.430  53.046  1.00  0.00     0.062 A 
HETATM   21  C18 UNL     1      24.578   0.275  52.796  1.00  0.00     0.023 A 
BRANCH  19  22
HETATM   22  N4  UNL     1      26.662   0.695  55.302  1.00  0.00     0.090 N 
HETATM   23  H21 UNL     1      26.333   1.640  55.027  1.00  0.00     0.314 HD
HETATM   24  H22 UNL     1      26.246   0.439  56.206  1.00  0.00     0.314 HD
ENDBRANCH  19  22
BRANCH  20  25
HETATM   25  C17 UNL     1      26.959   1.147  52.326  1.00  0.00     0.416 C 
HETATM   26  F1  UNL     1      26.648   1.247  50.972  1.00  0.00    -0.166 F 
HETATM   27  F2  UNL     1      27.075   2.440  52.808  1.00  0.00    -0.166 F 
HETATM   28  F3  UNL     1      28.124   0.440  52.429  1.00  0.00    -0.166 F 
ENDBRANCH  20  25
ENDBRANCH  16  17
ENDBRANCH   2  16
TORSDOF 8
ENDMDL
MODEL 8
REMARK VINA RESULT:      -7.3      3.010      5.903
REMARK  8 active torsions:
REMARK  status: ('A' for Active; 'I' for Inactive)
REMARK    1  A    between atoms: C8_8  and  C9_9 
REMARK    2  A    between atoms: C9_9  and  N1_10 
REMARK    3  A    between atoms: N1_10  and  C10_11 
REMARK    4  A    between atoms: N2_12  and  C11_13 
REMARK    5  A    between atoms: N3_14  and  C12_15 
REMARK    6  A    between atoms: C12_15  and  C13_16 
REMARK    7  A    between atoms: C15_18  and  N4_19 
REMARK    8  A    between atoms: C16_20  and  C17_21 
ROOT
HETATM    1  C11 UNL     1      24.056   3.149  49.761  1.00  0.00     0.228 C 
HETATM    2  N3  UNL     1      25.173   2.989  50.389  1.00  0.00    -0.278 NA
ENDROOT
BRANCH   1   3
HETATM    3  N2  UNL     1      23.173   3.108  50.829  1.00  0.00    -0.238 NA
HETATM    4  C10 UNL     1      22.263   2.294  51.132  1.00  0.00     0.203 C 
BRANCH   4   5
HETATM    5  N1  UNL     1      21.750   1.119  50.566  1.00  0.00    -0.384 N 
HETATM    6  H14 UNL     1      21.461   1.267  49.581  1.00  0.00     0.160 HD
BRANCH   5   7
HETATM    7  C9  UNL     1      21.768   0.038  51.503  1.00  0.00     0.129 C 
BRANCH   7   8
HETATM    8  C8  UNL     1      21.775   0.571  52.942  1.00  0.00     0.036 C 
HETATM    9  C3  UNL     1      22.537  -0.353  53.823  1.00  0.00    -0.057 C 
HETATM   10  C2  UNL     1      23.745  -0.148  54.294  1.00  0.00    -0.024 C 
HETATM   11  C4  UNL     1      21.807  -1.590  54.155  1.00  0.00     0.003 C 
HETATM   12  C1  UNL     1      24.325  -1.196  55.156  1.00  0.00     0.036 C 
HETATM   13  C5  UNL     1      20.471  -1.674  54.050  1.00  0.00    -0.026 C 
HETATM   14  C6  UNL     1      19.624  -0.552  53.599  1.00  0.00     0.028 C 
HETATM   15  C7  UNL     1      20.363   0.741  53.420  1.00  0.00     0.015 C 
ENDBRANCH   7   8
ENDBRANCH   5   7
ENDBRANCH   4   5
ENDBRANCH   1   3
BRANCH   2  16
HETATM   16  C12 UNL     1      25.339   2.826  51.792  1.00  0.00     0.188 C 
BRANCH  16  17
HETATM   17  C13 UNL     1      26.257   1.693  52.140  1.00  0.00    -0.039 A 
HETATM   18  C14 UNL     1      26.443   0.432  51.776  1.00  0.00     0.022 A 
HETATM   19  C15 UNL     1      27.563  -0.151  52.535  1.00  0.00     0.279 A 
HETATM   20  C16 UNL     1      28.002   0.974  53.398  1.00  0.00     0.062 A 
HETATM   21  C18 UNL     1      27.250   2.017  53.163  1.00  0.00     0.023 A 
BRANCH  19  22
HETATM   22  N4  UNL     1      27.090  -1.258  53.368  1.00  0.00     0.090 N 
HETATM   23  H21 UNL     1      26.947  -0.909  54.335  1.00  0.00     0.314 HD
HETATM   24  H22 UNL     1      26.192  -1.575  52.983  1.00  0.00     0.314 HD
ENDBRANCH  19  22
BRANCH  20  25
HETATM   25  C17 UNL     1      29.156   0.731  54.329  1.00  0.00     0.416 C 
HETATM   26  F1  UNL     1      28.724  -0.008  55.427  1.00  0.00    -0.166 F 
HETATM   27  F2  UNL     1      30.125  -0.026  53.693  1.00  0.00    -0.166 F 
HETATM   28  F3  UNL     1      29.641   1.920  54.799  1.00  0.00    -0.166 F 
ENDBRANCH  20  25
ENDBRANCH  16  17
ENDBRANCH   2  16
TORSDOF 8
ENDMDL
MODEL 9
REMARK VINA RESULT:      -7.2      6.036      8.392
REMARK  8 active torsions:
REMARK  status: ('A' for Active; 'I' for Inactive)
REMARK    1  A    between atoms: C8_8  and  C9_9 
REMARK    2  A    between atoms: C9_9  and  N1_10 
REMARK    3  A    between atoms: N1_10  and  C10_11 
REMARK    4  A    between atoms: N2_12  and  C11_13 
REMARK    5  A    between atoms: N3_14  and  C12_15 
REMARK    6  A    between atoms: C12_15  and  C13_16 
REMARK    7  A    between atoms: C15_18  and  N4_19 
REMARK    8  A    between atoms: C16_20  and  C17_21 
ROOT
HETATM    1  C11 UNL     1      25.391   6.039  50.280  1.00  0.00     0.228 C 
HETATM    2  N3  UNL     1      26.047   6.733  49.411  1.00  0.00    -0.278 NA
ENDROOT
BRANCH   1   3
HETATM    3  N2  UNL     1      25.574   4.767  49.758  1.00  0.00    -0.238 NA
HETATM    4  C10 UNL     1      25.796   3.660  50.310  1.00  0.00     0.203 C 
BRANCH   4   5
HETATM    5  N1  UNL     1      25.951   3.221  51.632  1.00  0.00    -0.384 N 
HETATM    6  H14 UNL     1      25.381   3.784  52.290  1.00  0.00     0.160 HD
BRANCH   5   7
HETATM    7  C9  UNL     1      26.855   2.114  51.710  1.00  0.00     0.129 C 
BRANCH   7   8
HETATM    8  C8  UNL     1      27.093   1.712  53.171  1.00  0.00     0.036 C 
HETATM    9  C3  UNL     1      27.991   0.529  53.234  1.00  0.00    -0.057 C 
HETATM   10  C2  UNL     1      29.259   0.541  53.576  1.00  0.00    -0.024 C 
HETATM   11  C4  UNL     1      27.330  -0.736  52.867  1.00  0.00     0.003 C 
HETATM   12  C1  UNL     1      29.975  -0.749  53.574  1.00  0.00     0.036 C 
HETATM   13  C5  UNL     1      25.995  -0.875  52.905  1.00  0.00    -0.026 C 
HETATM   14  C6  UNL     1      25.082   0.211  53.313  1.00  0.00     0.028 C 
HETATM   15  C7  UNL     1      25.776   1.434  53.835  1.00  0.00     0.015 C 
ENDBRANCH   7   8
ENDBRANCH   5   7
ENDBRANCH   4   5
ENDBRANCH   1   3
BRANCH   2  16
HETATM   16  C12 UNL     1      26.732   6.231  48.270  1.00  0.00     0.188 C 
BRANCH  16  17
HETATM   17  C13 UNL     1      28.214   6.449  48.339  1.00  0.00    -0.039 A 
HETATM   18  C14 UNL     1      29.317   5.715  48.312  1.00  0.00     0.022 A 
HETATM   19  C15 UNL     1      30.502   6.582  48.428  1.00  0.00     0.279 A 
HETATM   20  C16 UNL     1      29.912   7.941  48.525  1.00  0.00     0.062 A 
HETATM   21  C18 UNL     1      28.608   7.850  48.474  1.00  0.00     0.023 A 
BRANCH  19  22
HETATM   22  N4  UNL     1      31.238   6.274  49.655  1.00  0.00     0.090 N 
HETATM   23  H21 UNL     1      30.939   5.341  49.997  1.00  0.00     0.314 HD
HETATM   24  H22 UNL     1      32.238   6.246  49.418  1.00  0.00     0.314 HD
ENDBRANCH  19  22
BRANCH  20  25
HETATM   25  C17 UNL     1      30.853   9.103  48.658  1.00  0.00     0.416 C 
HETATM   26  F1  UNL     1      31.066   9.382  50.006  1.00  0.00    -0.166 F 
HETATM   27  F2  UNL     1      32.086   8.777  48.118  1.00  0.00    -0.166 F 
HETATM   28  F3  UNL     1      30.308  10.220  48.089  1.00  0.00    -0.166 F 
ENDBRANCH  20  25
ENDBRANCH  16  17
ENDBRANCH   2  16
TORSDOF 8
ENDMDL
