MODEL 1
REMARK VINA RESULT:      -7.9      0.000      0.000
REMARK  3 active torsions:
REMARK  status: ('A' for Active; 'I' for Inactive)
REMARK       I    between atoms: C1_2  and  N1_3 
REMARK    1  A    between atoms: C1_2  and  C8_10 
REMARK    2  A    between atoms: N1_3  and  C2_4 
REMARK    3  A    between atoms: C8_10  and  C9_11 
ROOT
HETATM    1  C8  UNL     1      24.816   2.707  52.168  1.00  0.00     0.105 C 
HETATM    2  C10 UNL     1      25.810   2.721  51.077  1.00  0.00     0.109 C 
HETATM    3  N2  UNL     1      26.917   2.251  51.477  1.00  0.00    -0.287 NA
HETATM    4  C11 UNL     1      26.882   1.848  52.853  1.00  0.00     0.091 A 
HETATM    5  C12 UNL     1      28.081   2.367  53.588  1.00  0.00     0.122 A 
HETATM    6  N3  UNL     1      29.083   1.826  54.238  1.00  0.00    -0.275 NA
HETATM    7  C13 UNL     1      29.099   0.383  54.302  1.00  0.00     0.112 A 
HETATM    8  C14 UNL     1      28.045  -0.108  53.658  1.00  0.00    -0.005 A 
HETATM    9  C15 UNL     1      26.853   0.339  52.894  1.00  0.00     0.067 A 
HETATM   10  C16 UNL     1      25.613   2.444  53.422  1.00  0.00     0.069 C 
ENDROOT
BRANCH   1  11
HETATM   11  C1  UNL     1      23.740   1.725  52.012  1.00  0.00     0.240 C 
HETATM   12  O1  UNL     1      23.190   1.191  51.012  1.00  0.00    -0.272 OA
HETATM   13  N1  UNL     1      23.222   1.301  53.274  1.00  0.00    -0.326 N 
HETATM   14  H1  UNL     1      23.503   1.591  54.247  1.00  0.00     0.169 HD
BRANCH  13  15
HETATM   15  C2  UNL     1      22.183   0.368  53.500  1.00  0.00     0.034 A 
HETATM   16  C3  UNL     1      22.530  -0.871  54.035  1.00  0.00     0.029 A 
HETATM   17  C4  UNL     1      21.553  -1.835  54.282  1.00  0.00     0.002 A 
HETATM   18  C5  UNL     1      20.211  -1.596  54.005  1.00  0.00     0.000 A 
HETATM   19  C6  UNL     1      19.873  -0.374  53.476  1.00  0.00     0.002 A 
HETATM   20  C7  UNL     1      20.844   0.556  53.243  1.00  0.00     0.029 A 
ENDBRANCH  13  15
ENDBRANCH   1  11
BRANCH   1  21
HETATM   21  C9  UNL     1      24.273   4.104  52.298  1.00  0.00     0.079 C 
HETATM   22  S1  UNL     1      23.086   4.770  51.852  1.00  0.00    -0.096 SA
ENDBRANCH   1  21
TORSDOF 3
ENDMDL
MODEL 2
REMARK VINA RESULT:      -7.7      2.724      5.811
REMARK  3 active torsions:
REMARK  status: ('A' for Active; 'I' for Inactive)
REMARK       I    between atoms: C1_2  and  N1_3 
REMARK    1  A    between atoms: C1_2  and  C8_10 
REMARK    2  A    between atoms: N1_3  and  C2_4 
REMARK    3  A    between atoms: C8_10  and  C9_11 
ROOT
HETATM    1  C8  UNL     1      23.621   2.703  51.716  1.00  0.00     0.105 C 
HETATM    2  C10 UNL     1      24.209   3.184  52.982  1.00  0.00     0.109 C 
HETATM    3  N2  UNL     1      24.983   2.310  53.474  1.00  0.00    -0.287 NA
HETATM    4  C11 UNL     1      25.061   1.124  52.670  1.00  0.00     0.091 A 
HETATM    5  C12 UNL     1      24.913  -0.103  53.519  1.00  0.00     0.122 A 
HETATM    6  N3  UNL     1      25.660  -1.145  53.789  1.00  0.00    -0.275 NA
HETATM    7  C13 UNL     1      26.952  -1.190  53.146  1.00  0.00     0.112 A 
HETATM    8  C14 UNL     1      27.114  -0.113  52.383  1.00  0.00    -0.005 A 
HETATM    9  C15 UNL     1      26.400   1.123  51.973  1.00  0.00     0.067 A 
HETATM   10  C16 UNL     1      23.919   1.225  51.681  1.00  0.00     0.069 C 
ENDROOT
BRANCH   1  11
HETATM   11  C1  UNL     1      24.118   3.369  50.510  1.00  0.00     0.240 C 
HETATM   12  O1  UNL     1      23.781   3.333  49.296  1.00  0.00    -0.272 OA
HETATM   13  N1  UNL     1      25.217   4.237  50.797  1.00  0.00    -0.326 N 
HETATM   14  H1  UNL     1      25.686   4.444  51.717  1.00  0.00     0.169 HD
BRANCH  13  15
HETATM   15  C2  UNL     1      25.939   5.033  49.877  1.00  0.00     0.034 A 
HETATM   16  C3  UNL     1      27.092   4.490  49.316  1.00  0.00     0.029 A 
HETATM   17  C4  UNL     1      27.849   5.224  48.402  1.00  0.00     0.002 A 
HETATM   18  C5  UNL     1      27.482   6.510  48.024  1.00  0.00     0.000 A 
HETATM   19  C6  UNL     1      26.344   7.043  48.580  1.00  0.00     0.002 A 
HETATM   20  C7  UNL     1      25.617   6.309  49.472  1.00  0.00     0.029 A 
ENDBRANCH  13  15
ENDBRANCH   1  11
BRANCH   1  21
HETATM   21  C9  UNL     1      22.127   2.829  51.839  1.00  0.00     0.079 C 
HETATM   22  S1  UNL     1      21.216   3.927  51.979  1.00  0.00    -0.096 SA
ENDBRANCH   1  21
TORSDOF 3
ENDMDL
MODEL 3
REMARK VINA RESULT:      -7.3      2.136      5.920
REMARK  3 active torsions:
REMARK  status: ('A' for Active; 'I' for Inactive)
REMARK       I    between atoms: C1_2  and  N1_3 
REMARK    1  A    between atoms: C1_2  and  C8_10 
REMARK    2  A    between atoms: N1_3  and  C2_4 
REMARK    3  A    between atoms: C8_10  and  C9_11 
ROOT
HETATM    1  C8  UNL     1      24.614   3.707  50.768  1.00  0.00     0.105 C 
HETATM    2  C10 UNL     1      23.955   4.167  52.006  1.00  0.00     0.109 C 
HETATM    3  N2  UNL     1      22.905   3.494  52.228  1.00  0.00    -0.287 NA
HETATM    4  C11 UNL     1      22.666   2.494  51.227  1.00  0.00     0.091 A 
HETATM    5  C12 UNL     1      21.237   2.529  50.774  1.00  0.00     0.122 A 
HETATM    6  N3  UNL     1      20.237   1.683  50.781  1.00  0.00    -0.275 NA
HETATM    7  C13 UNL     1      20.504   0.381  51.346  1.00  0.00     0.112 A 
HETATM    8  C14 UNL     1      21.766   0.319  51.758  1.00  0.00    -0.005 A 
HETATM    9  C15 UNL     1      22.996   1.149  51.826  1.00  0.00     0.067 A 
HETATM   10  C16 UNL     1      23.594   2.835  50.080  1.00  0.00     0.069 C 
ENDROOT
BRANCH   1  11
HETATM   11  C1  UNL     1      25.874   2.986  50.968  1.00  0.00     0.240 C 
HETATM   12  O1  UNL     1      26.821   2.662  50.203  1.00  0.00    -0.272 OA
HETATM   13  N1  UNL     1      26.038   2.573  52.326  1.00  0.00    -0.326 N 
HETATM   14  H1  UNL     1      25.402   2.715  53.153  1.00  0.00     0.169 HD
BRANCH  13  15
HETATM   15  C2  UNL     1      27.129   1.858  52.875  1.00  0.00     0.034 A 
HETATM   16  C3  UNL     1      27.122   0.470  52.750  1.00  0.00     0.029 A 
HETATM   17  C4  UNL     1      28.168  -0.292  53.269  1.00  0.00     0.002 A 
HETATM   18  C5  UNL     1      29.243   0.299  53.924  1.00  0.00     0.000 A 
HETATM   19  C6  UNL     1      29.245   1.668  54.046  1.00  0.00     0.002 A 
HETATM   20  C7  UNL     1      28.213   2.396  53.531  1.00  0.00     0.029 A 
ENDBRANCH  13  15
ENDBRANCH   1  11
BRANCH   1  21
HETATM   21  C9  UNL     1      24.803   4.911  49.886  1.00  0.00     0.079 C 
HETATM   22  S1  UNL     1      25.312   6.236  50.084  1.00  0.00    -0.096 SA
ENDBRANCH   1  21
TORSDOF 3
ENDMDL
MODEL 4
REMARK VINA RESULT:      -6.9      2.922      5.619
REMARK  3 active torsions:
REMARK  status: ('A' for Active; 'I' for Inactive)
REMARK       I    between atoms: C1_2  and  N1_3 
REMARK    1  A    between atoms: C1_2  and  C8_10 
REMARK    2  A    between atoms: N1_3  and  C2_4 
REMARK    3  A    between atoms: C8_10  and  C9_11 
ROOT
HETATM    1  C8  UNL     1      24.876   2.150  51.700  1.00  0.00     0.105 C 
HETATM    2  C10 UNL     1      24.700   2.847  52.989  1.00  0.00     0.109 C 
HETATM    3  N2  UNL     1      25.557   2.448  53.833  1.00  0.00    -0.287 NA
HETATM    4  C11 UNL     1      26.437   1.450  53.297  1.00  0.00     0.091 A 
HETATM    5  C12 UNL     1      26.572   0.298  54.248  1.00  0.00     0.122 A 
HETATM    6  N3  UNL     1      27.561  -0.260  54.902  1.00  0.00    -0.275 NA
HETATM    7  C13 UNL     1      28.868   0.325  54.706  1.00  0.00     0.112 A 
HETATM    8  C14 UNL     1      28.781   1.351  53.866  1.00  0.00    -0.005 A 
HETATM    9  C15 UNL     1      27.781   2.095  53.059  1.00  0.00     0.067 A 
HETATM   10  C16 UNL     1      25.801   0.996  52.001  1.00  0.00     0.069 C 
ENDROOT
BRANCH   1  11
HETATM   11  C1  UNL     1      25.407   2.979  50.615  1.00  0.00     0.240 C 
HETATM   12  O1  UNL     1      26.347   2.832  49.790  1.00  0.00    -0.272 OA
HETATM   13  N1  UNL     1      24.688   4.207  50.487  1.00  0.00    -0.326 N 
HETATM   14  H1  UNL     1      23.871   4.569  51.045  1.00  0.00     0.169 HD
BRANCH  13  15
HETATM   15  C2  UNL     1      24.926   5.241  49.551  1.00  0.00     0.034 A 
HETATM   16  C3  UNL     1      26.233   5.701  49.411  1.00  0.00     0.029 A 
HETATM   17  C4  UNL     1      26.534   6.718  48.506  1.00  0.00     0.002 A 
HETATM   18  C5  UNL     1      25.549   7.304  47.719  1.00  0.00     0.000 A 
HETATM   19  C6  UNL     1      24.260   6.849  47.861  1.00  0.00     0.002 A 
HETATM   20  C7  UNL     1      23.986   5.852  48.751  1.00  0.00     0.029 A 
ENDBRANCH  13  15
ENDBRANCH   1  11
BRANCH   1  21
HETATM   21  C9  UNL     1      23.550   1.543  51.332  1.00  0.00     0.079 C 
HETATM   22  S1  UNL     1      22.328   1.287  52.037  1.00  0.00    -0.096 SA
ENDBRANCH   1  21
TORSDOF 3
ENDMDL
MODEL 5
REMARK VINA RESULT:      -6.9      1.646      2.072
REMARK  3 active torsions:
REMARK  status: ('A' for Active; 'I' for Inactive)
REMARK       I    between atoms: C1_2  and  N1_3 
REMARK    1  A    between atoms: C1_2  and  C8_10 
REMARK    2  A    between atoms: N1_3  and  C2_4 
REMARK    3  A    between atoms: C8_10  and  C9_11 
ROOT
HETATM    1  C8  UNL     1      23.179   2.477  51.749  1.00  0.00     0.105 C 
HETATM    2  C10 UNL     1      24.348   2.458  50.848  1.00  0.00     0.109 C 
HETATM    3  N2  UNL     1      25.360   1.978  51.440  1.00  0.00    -0.287 NA
HETATM    4  C11 UNL     1      25.079   1.597  52.795  1.00  0.00     0.091 A 
HETATM    5  C12 UNL     1      26.141   2.110  53.721  1.00  0.00     0.122 A 
HETATM    6  N3  UNL     1      27.004   1.565  54.542  1.00  0.00    -0.275 NA
HETATM    7  C13 UNL     1      26.983   0.124  54.628  1.00  0.00     0.112 A 
HETATM    8  C14 UNL     1      26.049  -0.363  53.816  1.00  0.00    -0.005 A 
HETATM    9  C15 UNL     1      25.017   0.090  52.850  1.00  0.00     0.067 A 
HETATM   10  C16 UNL     1      23.740   2.221  53.125  1.00  0.00     0.069 C 
ENDROOT
BRANCH   1  11
HETATM   11  C1  UNL     1      22.129   1.509  51.420  1.00  0.00     0.240 C 
HETATM   12  O1  UNL     1      21.909   0.771  50.422  1.00  0.00    -0.272 OA
HETATM   13  N1  UNL     1      21.165   1.396  52.468  1.00  0.00    -0.326 N 
HETATM   14  H1  UNL     1      21.119   1.895  53.395  1.00  0.00     0.169 HD
BRANCH  13  15
HETATM   15  C2  UNL     1      20.022   0.562  52.491  1.00  0.00     0.034 A 
HETATM   16  C3  UNL     1      20.016  -0.504  53.388  1.00  0.00     0.029 A 
HETATM   17  C4  UNL     1      18.920  -1.363  53.460  1.00  0.00     0.002 A 
HETATM   18  C5  UNL     1      17.806  -1.188  52.646  1.00  0.00     0.000 A 
HETATM   19  C6  UNL     1      17.817  -0.137  51.762  1.00  0.00     0.002 A 
HETATM   20  C7  UNL     1      18.898   0.693  51.707  1.00  0.00     0.029 A 
ENDBRANCH  13  15
ENDBRANCH   1  11
BRANCH   1  21
HETATM   21  C9  UNL     1      22.646   3.883  51.764  1.00  0.00     0.079 C 
HETATM   22  S1  UNL     1      23.172   5.165  51.396  1.00  0.00    -0.096 SA
ENDBRANCH   1  21
TORSDOF 3
ENDMDL
MODEL 6
REMARK VINA RESULT:      -6.9      3.421      6.234
REMARK  3 active torsions:
REMARK  status: ('A' for Active; 'I' for Inactive)
REMARK       I    between atoms: C1_2  and  N1_3 
REMARK    1  A    between atoms: C1_2  and  C8_10 
REMARK    2  A    between atoms: N1_3  and  C2_4 
REMARK    3  A    between atoms: C8_10  and  C9_11 
ROOT
HETATM    1  C8  UNL     1      20.866   1.503  50.821  1.00  0.00     0.105 C 
HETATM    2  C10 UNL     1      20.606   2.351  52.001  1.00  0.00     0.109 C 
HETATM    3  N2  UNL     1      20.896   1.731  53.068  1.00  0.00    -0.287 NA
HETATM    4  C11 UNL     1      21.385   0.405  52.822  1.00  0.00     0.091 A 
HETATM    5  C12 UNL     1      20.708  -0.585  53.721  1.00  0.00     0.122 A 
HETATM    6  N3  UNL     1      21.102  -1.425  54.647  1.00  0.00    -0.275 NA
HETATM    7  C13 UNL     1      22.520  -1.458  54.919  1.00  0.00     0.112 A 
HETATM    8  C14 UNL     1      23.150  -0.589  54.135  1.00  0.00    -0.005 A 
HETATM    9  C15 UNL     1      22.875   0.406  53.068  1.00  0.00     0.067 A 
HETATM   10  C16 UNL     1      21.062   0.112  51.372  1.00  0.00     0.069 C 
ENDROOT
BRANCH   1  11
HETATM   11  C1  UNL     1      22.012   1.912  50.005  1.00  0.00     0.240 C 
HETATM   12  O1  UNL     1      22.403   1.612  48.845  1.00  0.00    -0.272 OA
HETATM   13  N1  UNL     1      22.845   2.847  50.692  1.00  0.00    -0.326 N 
HETATM   14  H1  UNL     1      22.743   3.254  51.657  1.00  0.00     0.169 HD
BRANCH  13  15
HETATM   15  C2  UNL     1      24.031   3.449  50.208  1.00  0.00     0.034 A 
HETATM   16  C3  UNL     1      25.242   2.834  50.516  1.00  0.00     0.029 A 
HETATM   17  C4  UNL     1      26.446   3.377  50.069  1.00  0.00     0.002 A 
HETATM   18  C5  UNL     1      26.480   4.541  49.309  1.00  0.00     0.000 A 
HETATM   19  C6  UNL     1      25.283   5.146  49.009  1.00  0.00     0.002 A 
HETATM   20  C7  UNL     1      24.116   4.598  49.454  1.00  0.00     0.029 A 
ENDBRANCH  13  15
ENDBRANCH   1  11
BRANCH   1  21
HETATM   21  C9  UNL     1      19.599   1.461  50.011  1.00  0.00     0.079 C 
HETATM   22  S1  UNL     1      18.290   0.915  50.214  1.00  0.00    -0.096 SA
ENDBRANCH   1  21
TORSDOF 3
ENDMDL
MODEL 7
REMARK VINA RESULT:      -6.8      2.888      5.749
REMARK  3 active torsions:
REMARK  status: ('A' for Active; 'I' for Inactive)
REMARK       I    between atoms: C1_2  and  N1_3 
REMARK    1  A    between atoms: C1_2  and  C8_10 
REMARK    2  A    between atoms: N1_3  and  C2_4 
REMARK    3  A    between atoms: C8_10  and  C9_11 
ROOT
HETATM    1  C8  UNL     1      23.466   3.107  51.192  1.00  0.00     0.105 C 
HETATM    2  C10 UNL     1      23.598   2.483  49.861  1.00  0.00     0.109 C 
HETATM    3  N2  UNL     1      24.058   3.315  49.022  1.00  0.00    -0.287 NA
HETATM    4  C11 UNL     1      24.312   4.602  49.603  1.00  0.00     0.091 A 
HETATM    5  C12 UNL     1      23.756   5.692  48.737  1.00  0.00     0.122 A 
HETATM    6  N3  UNL     1      24.255   6.720  48.096  1.00  0.00    -0.275 NA
HETATM    7  C13 UNL     1      25.683   6.910  48.205  1.00  0.00     0.112 A 
HETATM    8  C14 UNL     1      26.207   5.956  48.969  1.00  0.00    -0.005 A 
HETATM    9  C15 UNL     1      25.806   4.758  49.750  1.00  0.00     0.067 A 
HETATM   10  C16 UNL     1      23.620   4.588  50.949  1.00  0.00     0.069 C 
ENDROOT
BRANCH   1  11
HETATM   11  C1  UNL     1      24.425   2.636  52.195  1.00  0.00     0.240 C 
HETATM   12  O1  UNL     1      24.541   2.816  53.437  1.00  0.00    -0.272 OA
HETATM   13  N1  UNL     1      25.428   1.799  51.617  1.00  0.00    -0.326 N 
HETATM   14  H1  UNL     1      25.556   1.497  50.617  1.00  0.00     0.169 HD
BRANCH  13  15
HETATM   15  C2  UNL     1      26.506   1.173  52.287  1.00  0.00     0.034 A 
HETATM   16  C3  UNL     1      26.462  -0.212  52.432  1.00  0.00     0.029 A 
HETATM   17  C4  UNL     1      27.493  -0.889  53.082  1.00  0.00     0.002 A 
HETATM   18  C5  UNL     1      28.591  -0.213  53.603  1.00  0.00     0.000 A 
HETATM   19  C6  UNL     1      28.630   1.153  53.459  1.00  0.00     0.002 A 
HETATM   20  C7  UNL     1      27.612   1.798  52.819  1.00  0.00     0.029 A 
ENDBRANCH  13  15
ENDBRANCH   1  11
BRANCH   1  21
HETATM   21  C9  UNL     1      22.047   2.899  51.646  1.00  0.00     0.079 C 
HETATM   22  S1  UNL     1      21.013   3.755  52.148  1.00  0.00    -0.096 SA
ENDBRANCH   1  21
TORSDOF 3
ENDMDL
MODEL 8
REMARK VINA RESULT:      -6.8      3.352      4.203
REMARK  3 active torsions:
REMARK  status: ('A' for Active; 'I' for Inactive)
REMARK       I    between atoms: C1_2  and  N1_3 
REMARK    1  A    between atoms: C1_2  and  C8_10 
REMARK    2  A    between atoms: N1_3  and  C2_4 
REMARK    3  A    between atoms: C8_10  and  C9_11 
ROOT
HETATM    1  C8  UNL     1      22.989   4.516  51.015  1.00  0.00     0.105 C 
HETATM    2  C10 UNL     1      22.756   3.993  49.655  1.00  0.00     0.109 C 
HETATM    3  N2  UNL     1      23.772   4.188  48.922  1.00  0.00    -0.287 NA
HETATM    4  C11 UNL     1      24.837   4.851  49.618  1.00  0.00     0.091 A 
HETATM    5  C12 UNL     1      25.384   5.980  48.798  1.00  0.00     0.122 A 
HETATM    6  N3  UNL     1      26.550   6.276  48.280  1.00  0.00    -0.275 NA
HETATM    7  C13 UNL     1      27.614   5.329  48.517  1.00  0.00     0.112 A 
HETATM    8  C14 UNL     1      27.160   4.313  49.244  1.00  0.00    -0.005 A 
HETATM    9  C15 UNL     1      25.915   3.831  49.895  1.00  0.00     0.067 A 
HETATM   10  C16 UNL     1      24.224   5.374  50.900  1.00  0.00     0.069 C 
ENDROOT
BRANCH   1  11
HETATM   11  C1  UNL     1      23.153   3.493  52.052  1.00  0.00     0.240 C 
HETATM   12  O1  UNL     1      23.929   3.372  53.037  1.00  0.00    -0.272 OA
HETATM   13  N1  UNL     1      22.227   2.418  51.887  1.00  0.00    -0.326 N 
HETATM   14  H1  UNL     1      21.484   2.278  51.155  1.00  0.00     0.169 HD
BRANCH  13  15
HETATM   15  C2  UNL     1      22.103   1.267  52.700  1.00  0.00     0.034 A 
HETATM   16  C3  UNL     1      20.963   1.153  53.492  1.00  0.00     0.029 A 
HETATM   17  C4  UNL     1      20.780   0.042  54.316  1.00  0.00     0.002 A 
HETATM   18  C5  UNL     1      21.721  -0.980  54.376  1.00  0.00     0.000 A 
HETATM   19  C6  UNL     1      22.845  -0.863  53.595  1.00  0.00     0.002 A 
HETATM   20  C7  UNL     1      23.005   0.231  52.794  1.00  0.00     0.029 A 
ENDBRANCH  13  15
ENDBRANCH   1  11
BRANCH   1  21
HETATM   21  C9  UNL     1      21.855   5.450  51.337  1.00  0.00     0.079 C 
HETATM   22  S1  UNL     1      21.472   6.760  50.901  1.00  0.00    -0.096 SA
ENDBRANCH   1  21
TORSDOF 3
ENDMDL
MODEL 9
REMARK VINA RESULT:      -6.5      3.407      6.810
REMARK  3 active torsions:
REMARK  status: ('A' for Active; 'I' for Inactive)
REMARK       I    between atoms: C1_2  and  N1_3 
REMARK    1  A    between atoms: C1_2  and  C8_10 
REMARK    2  A    between atoms: N1_3  and  C2_4 
REMARK    3  A    between atoms: C8_10  and  C9_11 
ROOT
HETATM    1  C8  UNL     1      22.453   3.805  50.497  1.00  0.00     0.105 C 
HETATM    2  C10 UNL     1      21.584   3.982  51.676  1.00  0.00     0.109 C 
HETATM    3  N2  UNL     1      21.628   2.956  52.421  1.00  0.00    -0.287 NA
HETATM    4  C11 UNL     1      22.498   1.938  51.907  1.00  0.00     0.091 A 
HETATM    5  C12 UNL     1      21.828   0.597  51.951  1.00  0.00     0.122 A 
HETATM    6  N3  UNL     1      22.073  -0.548  52.539  1.00  0.00    -0.275 NA
HETATM    7  C13 UNL     1      23.261  -0.605  53.359  1.00  0.00     0.112 A 
HETATM    8  C14 UNL     1      23.879   0.572  53.340  1.00  0.00    -0.005 A 
HETATM    9  C15 UNL     1      23.750   1.928  52.750  1.00  0.00     0.067 A 
HETATM   10  C16 UNL     1      22.794   2.336  50.477  1.00  0.00     0.069 C 
ENDROOT
BRANCH   1  11
HETATM   11  C1  UNL     1      23.665   4.628  50.492  1.00  0.00     0.240 C 
HETATM   12  O1  UNL     1      24.196   5.397  51.337  1.00  0.00    -0.272 OA
HETATM   13  N1  UNL     1      24.377   4.517  49.258  1.00  0.00    -0.326 N 
HETATM   14  H1  UNL     1      24.150   3.949  48.401  1.00  0.00     0.169 HD
BRANCH  13  15
HETATM   15  C2  UNL     1      25.582   5.168  48.907  1.00  0.00     0.034 A 
HETATM   16  C3  UNL     1      26.765   4.438  49.003  1.00  0.00     0.029 A 
HETATM   17  C4  UNL     1      27.987   5.022  48.671  1.00  0.00     0.002 A 
HETATM   18  C5  UNL     1      28.068   6.341  48.238  1.00  0.00     0.000 A 
HETATM   19  C6  UNL     1      26.899   7.058  48.145  1.00  0.00     0.002 A 
HETATM   20  C7  UNL     1      25.713   6.468  48.473  1.00  0.00     0.029 A 
ENDBRANCH  13  15
ENDBRANCH   1  11
BRANCH   1  21
HETATM   21  C9  UNL     1      21.610   4.059  49.276  1.00  0.00     0.079 C 
HETATM   22  S1  UNL     1      20.202   4.077  49.010  1.00  0.00    -0.096 SA
ENDBRANCH   1  21
TORSDOF 3
ENDMDL
