MODEL 1
REMARK VINA RESULT:      -8.0      0.000      0.000
REMARK  1 active torsions:
REMARK  status: ('A' for Active; 'I' for Inactive)
REMARK       I    between atoms: C2_2  and  N1_4 
REMARK    1  A    between atoms: N1_4  and  C3_5 
ROOT
HETATM    1  C3  UNL     1      21.890   0.639  52.065  1.00  0.00     0.027 A 
HETATM    2  C4  UNL     1      21.239   0.491  50.896  1.00  0.00     0.028 A 
HETATM    3  C5  UNL     1      21.011   1.806  50.257  1.00  0.00     0.028 A 
HETATM    4  C6  UNL     1      21.537   2.706  51.075  1.00  0.00     0.026 A 
HETATM    5  N2  UNL     1      21.553   4.150  50.856  1.00  0.00    -0.342 N 
HETATM    6  C7  UNL     1      22.599   5.011  51.368  1.00  0.00     0.144 C 
HETATM    7  C8  UNL     1      23.337   4.752  52.474  1.00  0.00     0.167 C 
HETATM    8  N3  UNL     1      24.154   3.575  52.640  1.00  0.00    -0.265 NA
HETATM    9  C9  UNL     1      23.561   2.439  52.516  1.00  0.00     0.028 C 
HETATM   10  C10 UNL     1      24.635   1.433  52.627  1.00  0.00     0.061 C 
HETATM   11  C11 UNL     1      25.861   1.594  51.813  1.00  0.00     0.004 C 
HETATM   12  C12 UNL     1      25.734   2.730  51.076  1.00  0.00     0.022 C 
HETATM   13  C13 UNL     1      26.650   3.377  50.091  1.00  0.00    -0.001 C 
HETATM   14  C14 UNL     1      25.920   4.475  49.729  1.00  0.00     0.009 A 
HETATM   15 CL1  UNL     1      26.427   5.700  48.565  1.00  0.00    -0.178 Cl
HETATM   16  C15 UNL     1      24.850   5.348  49.729  1.00  0.00     0.177 A 
HETATM   17  C16 UNL     1      23.801   6.243  49.737  1.00  0.00     0.110 C 
HETATM   18  N4  UNL     1      22.704   6.135  50.497  1.00  0.00    -0.245 NA
HETATM   19  C17 UNL     1      22.136   2.041  52.307  1.00  0.00     0.133 A 
HETATM   20  H7  UNL     1      20.779   4.515  50.312  1.00  0.00     0.167 HD
ENDROOT
BRANCH   1  21
HETATM   21  N1  UNL     1      22.116  -0.631  52.690  1.00  0.00    -0.330 N 
HETATM   22  C2  UNL     1      21.688  -0.771  54.048  1.00  0.00     0.217 C 
HETATM   23  C1  UNL     1      21.809  -1.961  54.895  1.00  0.00     0.117 C 
HETATM   24  O1  UNL     1      21.142   0.241  54.596  1.00  0.00    -0.274 OA
HETATM   25  H4  UNL     1      22.558  -1.475  52.268  1.00  0.00     0.168 HD
ENDBRANCH   1  21
TORSDOF 1
ENDMDL
MODEL 2
REMARK VINA RESULT:      -7.8      2.735      4.138
REMARK  1 active torsions:
REMARK  status: ('A' for Active; 'I' for Inactive)
REMARK       I    between atoms: C2_2  and  N1_4 
REMARK    1  A    between atoms: N1_4  and  C3_5 
ROOT
HETATM    1  C3  UNL     1      25.048   0.957  52.998  1.00  0.00     0.027 A 
HETATM    2  C4  UNL     1      24.445  -0.246  52.967  1.00  0.00     0.028 A 
HETATM    3  C5  UNL     1      22.974  -0.090  52.990  1.00  0.00     0.028 A 
HETATM    4  C6  UNL     1      22.744   1.214  53.035  1.00  0.00     0.026 A 
HETATM    5  N2  UNL     1      21.428   1.846  53.069  1.00  0.00    -0.342 N 
HETATM    6  C7  UNL     1      21.173   3.158  52.511  1.00  0.00     0.144 C 
HETATM    7  C8  UNL     1      22.100   4.138  52.392  1.00  0.00     0.167 C 
HETATM    8  N3  UNL     1      23.325   4.002  51.642  1.00  0.00    -0.265 NA
HETATM    9  C9  UNL     1      24.097   3.025  51.972  1.00  0.00     0.028 C 
HETATM   10  C10 UNL     1      25.199   3.062  50.992  1.00  0.00     0.061 C 
HETATM   11  C11 UNL     1      24.880   3.152  49.548  1.00  0.00     0.004 C 
HETATM   12  C12 UNL     1      23.527   3.189  49.416  1.00  0.00     0.022 C 
HETATM   13  C13 UNL     1      22.653   3.277  48.208  1.00  0.00    -0.001 C 
HETATM   14  C14 UNL     1      21.410   3.273  48.778  1.00  0.00     0.009 A 
HETATM   15 CL1  UNL     1      19.883   3.356  47.897  1.00  0.00    -0.178 Cl
HETATM   16  C15 UNL     1      20.477   3.244  49.795  1.00  0.00     0.177 A 
HETATM   17  C16 UNL     1      19.532   3.242  50.800  1.00  0.00     0.110 C 
HETATM   18  N4  UNL     1      19.805   3.203  52.111  1.00  0.00    -0.245 NA
HETATM   19  C17 UNL     1      24.049   1.998  53.055  1.00  0.00     0.133 A 
HETATM   20  H7  UNL     1      20.695   1.300  53.507  1.00  0.00     0.167 HD
ENDROOT
BRANCH   1  21
HETATM   21  N1  UNL     1      26.474   0.816  52.976  1.00  0.00    -0.330 N 
HETATM   22  C2  UNL     1      27.143   0.770  54.240  1.00  0.00     0.217 C 
HETATM   23  C1  UNL     1      28.582   0.632  54.475  1.00  0.00     0.117 C 
HETATM   24  O1  UNL     1      26.421   0.858  55.286  1.00  0.00    -0.274 OA
HETATM   25  H4  UNL     1      27.091   0.741  52.138  1.00  0.00     0.168 HD
ENDBRANCH   1  21
TORSDOF 1
ENDMDL
MODEL 3
REMARK VINA RESULT:      -7.8      3.341      5.505
REMARK  1 active torsions:
REMARK  status: ('A' for Active; 'I' for Inactive)
REMARK       I    between atoms: C2_2  and  N1_4 
REMARK    1  A    between atoms: N1_4  and  C3_5 
ROOT
HETATM    1  C3  UNL     1      23.678   2.907  51.025  1.00  0.00     0.027 A 
HETATM    2  C4  UNL     1      24.286   2.978  49.827  1.00  0.00     0.028 A 
HETATM    3  C5  UNL     1      25.756   3.028  49.992  1.00  0.00     0.028 A 
HETATM    4  C6  UNL     1      25.979   2.986  51.297  1.00  0.00     0.026 A 
HETATM    5  N2  UNL     1      27.292   3.009  51.938  1.00  0.00    -0.342 N 
HETATM    6  C7  UNL     1      27.557   2.366  53.208  1.00  0.00     0.144 C 
HETATM    7  C8  UNL     1      26.629   2.153  54.172  1.00  0.00     0.167 C 
HETATM    8  N3  UNL     1      25.425   1.383  53.975  1.00  0.00    -0.265 NA
HETATM    9  C9  UNL     1      24.648   1.761  53.020  1.00  0.00     0.028 C 
HETATM   10  C10 UNL     1      23.572   0.752  52.982  1.00  0.00     0.061 C 
HETATM   11  C11 UNL     1      23.930  -0.685  52.971  1.00  0.00     0.004 C 
HETATM   12  C12 UNL     1      25.286  -0.784  53.005  1.00  0.00     0.022 C 
HETATM   13  C13 UNL     1      26.191  -1.971  53.011  1.00  0.00    -0.001 C 
HETATM   14  C14 UNL     1      27.419  -1.370  53.056  1.00  0.00     0.009 A 
HETATM   15 CL1  UNL     1      28.968  -2.214  53.084  1.00  0.00    -0.178 Cl
HETATM   16  C15 UNL     1      28.325  -0.330  53.104  1.00  0.00     0.177 A 
HETATM   17  C16 UNL     1      29.242   0.697  53.179  1.00  0.00     0.110 C 
HETATM   18  N4  UNL     1      28.935   2.000  53.232  1.00  0.00    -0.245 NA
HETATM   19  C17 UNL     1      24.671   2.916  52.073  1.00  0.00     0.133 A 
HETATM   20  H7  UNL     1      28.015   3.504  51.428  1.00  0.00     0.167 HD
ENDROOT
BRANCH   1  21
HETATM   21  N1  UNL     1      22.253   2.857  50.875  1.00  0.00    -0.330 N 
HETATM   22  C2  UNL     1      21.502   3.930  51.451  1.00  0.00     0.217 C 
HETATM   23  C1  UNL     1      20.047   4.101  51.430  1.00  0.00     0.117 C 
HETATM   24  O1  UNL     1      22.154   4.844  52.051  1.00  0.00    -0.274 OA
HETATM   25  H4  UNL     1      21.693   2.125  50.390  1.00  0.00     0.168 HD
ENDBRANCH   1  21
TORSDOF 1
ENDMDL
MODEL 4
REMARK VINA RESULT:      -7.7      2.696      4.089
REMARK  1 active torsions:
REMARK  status: ('A' for Active; 'I' for Inactive)
REMARK       I    between atoms: C2_2  and  N1_4 
REMARK    1  A    between atoms: N1_4  and  C3_5 
ROOT
HETATM    1  C3  UNL     1      20.464   1.460  50.529  1.00  0.00     0.027 A 
HETATM    2  C4  UNL     1      20.776   1.032  49.291  1.00  0.00     0.028 A 
HETATM    3  C5  UNL     1      22.100   1.548  48.881  1.00  0.00     0.028 A 
HETATM    4  C6  UNL     1      22.541   2.275  49.897  1.00  0.00     0.026 A 
HETATM    5  N2  UNL     1      23.817   2.984  49.947  1.00  0.00    -0.342 N 
HETATM    6  C7  UNL     1      24.535   3.221  51.183  1.00  0.00     0.144 C 
HETATM    7  C8  UNL     1      23.956   3.325  52.402  1.00  0.00     0.167 C 
HETATM    8  N3  UNL     1      23.159   2.285  53.007  1.00  0.00    -0.265 NA
HETATM    9  C9  UNL     1      22.144   1.870  52.330  1.00  0.00     0.028 C 
HETATM   10  C10 UNL     1      21.587   0.758  53.123  1.00  0.00     0.061 C 
HETATM   11  C11 UNL     1      22.494  -0.305  53.614  1.00  0.00     0.004 C 
HETATM   12  C12 UNL     1      23.755  -0.008  53.202  1.00  0.00     0.022 C 
HETATM   13  C13 UNL     1      25.054  -0.718  53.403  1.00  0.00    -0.001 C 
HETATM   14  C14 UNL     1      25.916   0.111  52.738  1.00  0.00     0.009 A 
HETATM   15 CL1  UNL     1      27.654  -0.142  52.577  1.00  0.00    -0.178 Cl
HETATM   16  C15 UNL     1      26.310   1.209  52.000  1.00  0.00     0.177 A 
HETATM   17  C16 UNL     1      26.724   2.313  51.286  1.00  0.00     0.110 C 
HETATM   18  N4  UNL     1      25.924   3.304  50.870  1.00  0.00    -0.245 NA
HETATM   19  C17 UNL     1      21.530   2.292  51.036  1.00  0.00     0.133 A 
HETATM   20  H7  UNL     1      24.176   3.297  49.052  1.00  0.00     0.167 HD
ENDROOT
BRANCH   1  21
HETATM   21  N1  UNL     1      19.183   0.964  50.936  1.00  0.00    -0.330 N 
HETATM   22  C2  UNL     1      18.132   1.924  51.085  1.00  0.00     0.217 C 
HETATM   23  C1  UNL     1      16.748   1.664  51.487  1.00  0.00     0.117 C 
HETATM   24  O1  UNL     1      18.416   3.142  50.847  1.00  0.00    -0.274 OA
HETATM   25  H4  UNL     1      18.920  -0.025  51.137  1.00  0.00     0.168 HD
ENDBRANCH   1  21
TORSDOF 1
ENDMDL
MODEL 5
REMARK VINA RESULT:      -7.7      3.552      6.479
REMARK  1 active torsions:
REMARK  status: ('A' for Active; 'I' for Inactive)
REMARK       I    between atoms: C2_2  and  N1_4 
REMARK    1  A    between atoms: N1_4  and  C3_5 
ROOT
HETATM    1  C3  UNL     1      25.743   6.394  49.668  1.00  0.00     0.027 A 
HETATM    2  C4  UNL     1      25.317   7.233  50.631  1.00  0.00     0.028 A 
HETATM    3  C5  UNL     1      23.914   6.934  50.997  1.00  0.00     0.028 A 
HETATM    4  C6  UNL     1      23.545   5.918  50.231  1.00  0.00     0.026 A 
HETATM    5  N2  UNL     1      22.233   5.275  50.243  1.00  0.00    -0.342 N 
HETATM    6  C7  UNL     1      22.041   3.878  49.913  1.00  0.00     0.144 C 
HETATM    7  C8  UNL     1      22.844   3.164  49.089  1.00  0.00     0.167 C 
HETATM    8  N3  UNL     1      24.256   2.968  49.312  1.00  0.00    -0.265 NA
HETATM    9  C9  UNL     1      24.974   4.031  49.430  1.00  0.00     0.028 C 
HETATM   10  C10 UNL     1      26.329   3.543  49.749  1.00  0.00     0.061 C 
HETATM   11  C11 UNL     1      26.501   2.544  50.829  1.00  0.00     0.004 C 
HETATM   12  C12 UNL     1      25.273   2.258  51.340  1.00  0.00     0.022 C 
HETATM   13  C13 UNL     1      24.848   1.334  52.433  1.00  0.00    -0.001 C 
HETATM   14  C14 UNL     1      23.494   1.525  52.432  1.00  0.00     0.009 A 
HETATM   15 CL1  UNL     1      22.349   0.720  53.507  1.00  0.00    -0.178 Cl
HETATM   16  C15 UNL     1      22.284   2.051  52.027  1.00  0.00     0.177 A 
HETATM   17  C16 UNL     1      21.064   2.548  51.617  1.00  0.00     0.110 C 
HETATM   18  N4  UNL     1      20.887   3.419  50.615  1.00  0.00    -0.245 NA
HETATM   19  C17 UNL     1      24.678   5.490  49.308  1.00  0.00     0.133 A 
HETATM   20  H7  UNL     1      21.459   5.874  50.507  1.00  0.00     0.167 HD
ENDROOT
BRANCH   1  21
HETATM   21  N1  UNL     1      27.102   6.676  49.308  1.00  0.00    -0.330 N 
HETATM   22  C2  UNL     1      27.324   7.275  48.028  1.00  0.00     0.217 C 
HETATM   23  C1  UNL     1      28.611   7.653  47.440  1.00  0.00     0.117 C 
HETATM   24  O1  UNL     1      26.300   7.511  47.308  1.00  0.00    -0.274 OA
HETATM   25  H4  UNL     1      27.958   6.495  49.875  1.00  0.00     0.168 HD
ENDBRANCH   1  21
TORSDOF 1
ENDMDL
MODEL 6
REMARK VINA RESULT:      -7.6      3.366      5.708
REMARK  1 active torsions:
REMARK  status: ('A' for Active; 'I' for Inactive)
REMARK       I    between atoms: C2_2  and  N1_4 
REMARK    1  A    between atoms: N1_4  and  C3_5 
ROOT
HETATM    1  C3  UNL     1      24.162   3.052  52.647  1.00  0.00     0.027 A 
HETATM    2  C4  UNL     1      23.547   4.172  53.070  1.00  0.00     0.028 A 
HETATM    3  C5  UNL     1      22.319   4.420  52.284  1.00  0.00     0.028 A 
HETATM    4  C6  UNL     1      22.240   3.430  51.407  1.00  0.00     0.026 A 
HETATM    5  N2  UNL     1      21.183   3.254  50.414  1.00  0.00    -0.342 N 
HETATM    6  C7  UNL     1      20.769   1.953  49.931  1.00  0.00     0.144 C 
HETATM    7  C8  UNL     1      21.565   0.858  49.887  1.00  0.00     0.167 C 
HETATM    8  N3  UNL     1      22.206   0.281  51.043  1.00  0.00    -0.265 NA
HETATM    9  C9  UNL     1      22.965   1.062  51.731  1.00  0.00     0.028 C 
HETATM   10  C10 UNL     1      23.394   0.253  52.888  1.00  0.00     0.061 C 
HETATM   11  C11 UNL     1      22.376  -0.486  53.671  1.00  0.00     0.004 C 
HETATM   12  C12 UNL     1      21.160  -0.249  53.111  1.00  0.00     0.022 C 
HETATM   13  C13 UNL     1      19.793  -0.727  53.478  1.00  0.00    -0.001 C 
HETATM   14  C14 UNL     1      19.032  -0.123  52.515  1.00  0.00     0.009 A 
HETATM   15 CL1  UNL     1      17.281  -0.267  52.358  1.00  0.00    -0.178 Cl
HETATM   16  C15 UNL     1      18.767   0.656  51.406  1.00  0.00     0.177 A 
HETATM   17  C16 UNL     1      18.487   1.409  50.285  1.00  0.00     0.110 C 
HETATM   18  N4  UNL     1      19.400   2.048  49.542  1.00  0.00    -0.245 NA
HETATM   19  C17 UNL     1      23.416   2.474  51.555  1.00  0.00     0.133 A 
HETATM   20  H7  UNL     1      20.749   4.110  50.085  1.00  0.00     0.167 HD
ENDROOT
BRANCH   1  21
HETATM   21  N1  UNL     1      25.353   2.804  53.405  1.00  0.00    -0.330 N 
HETATM   22  C2  UNL     1      26.494   2.327  52.684  1.00  0.00     0.217 C 
HETATM   23  C1  UNL     1      27.813   2.003  53.232  1.00  0.00     0.117 C 
HETATM   24  O1  UNL     1      26.363   2.160  51.428  1.00  0.00    -0.274 OA
HETATM   25  H4  UNL     1      25.490   2.931  54.431  1.00  0.00     0.168 HD
ENDBRANCH   1  21
TORSDOF 1
ENDMDL
MODEL 7
REMARK VINA RESULT:      -7.3      2.504      3.614
REMARK  1 active torsions:
REMARK  status: ('A' for Active; 'I' for Inactive)
REMARK       I    between atoms: C2_2  and  N1_4 
REMARK    1  A    between atoms: N1_4  and  C3_5 
ROOT
HETATM    1  C3  UNL     1      22.524   3.037  48.927  1.00  0.00     0.027 A 
HETATM    2  C4  UNL     1      22.187   3.108  47.625  1.00  0.00     0.028 A 
HETATM    3  C5  UNL     1      22.353   4.489  47.120  1.00  0.00     0.028 A 
HETATM    4  C6  UNL     1      22.786   5.205  48.146  1.00  0.00     0.026 A 
HETATM    5  N2  UNL     1      23.094   6.633  48.120  1.00  0.00    -0.342 N 
HETATM    6  C7  UNL     1      24.095   7.236  48.975  1.00  0.00     0.144 C 
HETATM    7  C8  UNL     1      24.464   6.756  50.186  1.00  0.00     0.167 C 
HETATM    8  N3  UNL     1      25.006   5.436  50.398  1.00  0.00    -0.265 NA
HETATM    9  C9  UNL     1      24.288   4.446  49.993  1.00  0.00     0.028 C 
HETATM   10  C10 UNL     1      25.117   3.250  50.236  1.00  0.00     0.061 C 
HETATM   11  C11 UNL     1      26.523   3.239  49.772  1.00  0.00     0.004 C 
HETATM   12  C12 UNL     1      26.781   4.432  49.174  1.00  0.00     0.022 C 
HETATM   13  C13 UNL     1      28.017   4.970  48.531  1.00  0.00    -0.001 C 
HETATM   14  C14 UNL     1      27.596   6.212  48.141  1.00  0.00     0.009 A 
HETATM   15 CL1  UNL     1      28.583   7.406  47.298  1.00  0.00    -0.178 Cl
HETATM   16  C15 UNL     1      26.721   7.268  47.989  1.00  0.00     0.177 A 
HETATM   17  C16 UNL     1      25.867   8.343  47.852  1.00  0.00     0.110 C 
HETATM   18  N4  UNL     1      24.607   8.385  48.303  1.00  0.00    -0.245 NA
HETATM   19  C17 UNL     1      22.924   4.343  49.395  1.00  0.00     0.133 A 
HETATM   20  H7  UNL     1      22.560   7.179  47.453  1.00  0.00     0.167 HD
ENDROOT
BRANCH   1  21
HETATM   21  N1  UNL     1      22.368   1.703  49.425  1.00  0.00    -0.330 N 
HETATM   22  C2  UNL     1      21.441   1.515  50.499  1.00  0.00     0.217 C 
HETATM   23  C1  UNL     1      21.111   0.256  51.172  1.00  0.00     0.117 C 
HETATM   24  O1  UNL     1      20.828   2.545  50.929  1.00  0.00    -0.274 OA
HETATM   25  H4  UNL     1      22.853   0.842  49.094  1.00  0.00     0.168 HD
ENDBRANCH   1  21
TORSDOF 1
ENDMDL
MODEL 8
REMARK VINA RESULT:      -7.3      9.677     11.772
REMARK  1 active torsions:
REMARK  status: ('A' for Active; 'I' for Inactive)
REMARK       I    between atoms: C2_2  and  N1_4 
REMARK    1  A    between atoms: N1_4  and  C3_5 
ROOT
HETATM    1  C3  UNL     1      33.409   5.174  47.925  1.00  0.00     0.027 A 
HETATM    2  C4  UNL     1      34.413   5.491  48.764  1.00  0.00     0.028 A 
HETATM    3  C5  UNL     1      34.932   6.845  48.466  1.00  0.00     0.028 A 
HETATM    4  C6  UNL     1      34.214   7.296  47.448  1.00  0.00     0.026 A 
HETATM    5  N2  UNL     1      34.368   8.600  46.809  1.00  0.00    -0.342 N 
HETATM    6  C7  UNL     1      33.267   9.302  46.183  1.00  0.00     0.144 C 
HETATM    7  C8  UNL     1      32.177   8.704  45.645  1.00  0.00     0.167 C 
HETATM    8  N3  UNL     1      31.279   7.851  46.385  1.00  0.00    -0.265 NA
HETATM    9  C9  UNL     1      31.805   6.834  46.974  1.00  0.00     0.028 C 
HETATM   10  C10 UNL     1      30.696   6.213  47.725  1.00  0.00     0.061 C 
HETATM   11  C11 UNL     1      29.839   7.064  48.582  1.00  0.00     0.004 C 
HETATM   12  C12 UNL     1      30.286   8.345  48.488  1.00  0.00     0.022 C 
HETATM   13  C13 UNL     1      29.810   9.608  49.128  1.00  0.00    -0.001 C 
HETATM   14  C14 UNL     1      30.690  10.517  48.609  1.00  0.00     0.009 A 
HETATM   15 CL1  UNL     1      30.696  12.246  48.960  1.00  0.00    -0.178 Cl
HETATM   16  C15 UNL     1      31.748  10.972  47.847  1.00  0.00     0.177 A 
HETATM   17  C16 UNL     1      32.784  11.448  47.072  1.00  0.00     0.110 C 
HETATM   18  N4  UNL     1      33.542  10.700  46.259  1.00  0.00    -0.245 NA
HETATM   19  C17 UNL     1      33.185   6.264  47.006  1.00  0.00     0.133 A 
HETATM   20  H7  UNL     1      35.304   8.989  46.836  1.00  0.00     0.167 HD
ENDROOT
BRANCH   1  21
HETATM   21  N1  UNL     1      32.901   3.864  48.208  1.00  0.00    -0.330 N 
HETATM   22  C2  UNL     1      33.198   2.834  47.260  1.00  0.00     0.217 C 
HETATM   23  C1  UNL     1      32.792   1.428  47.327  1.00  0.00     0.117 C 
HETATM   24  O1  UNL     1      33.890   3.159  46.242  1.00  0.00    -0.274 OA
HETATM   25  H4  UNL     1      32.333   3.568  49.031  1.00  0.00     0.168 HD
ENDBRANCH   1  21
TORSDOF 1
ENDMDL
MODEL 9
REMARK VINA RESULT:      -7.2      1.926      3.578
REMARK  1 active torsions:
REMARK  status: ('A' for Active; 'I' for Inactive)
REMARK       I    between atoms: C2_2  and  N1_4 
REMARK    1  A    between atoms: N1_4  and  C3_5 
ROOT
HETATM    1  C3  UNL     1      23.751   1.516  52.778  1.00  0.00     0.027 A 
HETATM    2  C4  UNL     1      24.832   1.571  53.578  1.00  0.00     0.028 A 
HETATM    3  C5  UNL     1      26.008   2.066  52.828  1.00  0.00     0.028 A 
HETATM    4  C6  UNL     1      25.587   2.291  51.593  1.00  0.00     0.026 A 
HETATM    5  N2  UNL     1      26.405   2.793  50.492  1.00  0.00    -0.342 N 
HETATM    6  C7  UNL     1      25.863   3.589  49.410  1.00  0.00     0.144 C 
HETATM    7  C8  UNL     1      24.580   3.531  48.980  1.00  0.00     0.167 C 
HETATM    8  N3  UNL     1      23.436   3.799  49.817  1.00  0.00    -0.265 NA
HETATM    9  C9  UNL     1      23.328   3.091  50.888  1.00  0.00     0.028 C 
HETATM   10  C10 UNL     1      22.151   3.639  51.589  1.00  0.00     0.061 C 
HETATM   11  C11 UNL     1      22.047   5.103  51.790  1.00  0.00     0.004 C 
HETATM   12  C12 UNL     1      23.145   5.685  51.236  1.00  0.00     0.022 C 
HETATM   13  C13 UNL     1      23.565   7.115  51.142  1.00  0.00    -0.001 C 
HETATM   14  C14 UNL     1      24.751   7.001  50.469  1.00  0.00     0.009 A 
HETATM   15 CL1  UNL     1      25.801   8.344  50.017  1.00  0.00    -0.178 Cl
HETATM   16  C15 UNL     1      25.788   6.362  49.820  1.00  0.00     0.177 A 
HETATM   17  C16 UNL     1      26.819   5.743  49.145  1.00  0.00     0.110 C 
HETATM   18  N4  UNL     1      26.908   4.426  48.919  1.00  0.00    -0.245 NA
HETATM   19  C17 UNL     1      24.110   1.949  51.448  1.00  0.00     0.133 A 
HETATM   20  H7  UNL     1      27.389   2.551  50.537  1.00  0.00     0.167 HD
ENDROOT
BRANCH   1  21
HETATM   21  N1  UNL     1      22.606   1.038  53.496  1.00  0.00    -0.330 N 
HETATM   22  C2  UNL     1      22.477  -0.379  53.645  1.00  0.00     0.217 C 
HETATM   23  C1  UNL     1      21.404  -1.102  54.332  1.00  0.00     0.117 C 
HETATM   24  O1  UNL     1      23.388  -1.106  53.129  1.00  0.00    -0.274 OA
HETATM   25  H4  UNL     1      21.847   1.607  53.929  1.00  0.00     0.168 HD
ENDBRANCH   1  21
TORSDOF 1
ENDMDL
