MODEL 1
REMARK VINA RESULT:      -7.8      0.000      0.000
REMARK  2 active torsions:
REMARK  status: ('A' for Active; 'I' for Inactive)
REMARK    1  A    between atoms: O1_2  and  C2_3 
REMARK    2  A    between atoms: N2_25  and  N3_26 
ROOT
HETATM    1  C2  UNL     1      21.095   2.494  51.328  1.00  0.00     0.077 A 
HETATM    2  C3  UNL     1      21.298   1.950  52.597  1.00  0.00     0.068 A 
HETATM    3  C4  UNL     1      21.415   0.575  52.700  1.00  0.00     0.053 A 
HETATM    4  C5  UNL     1      21.345  -0.301  51.656  1.00  0.00     0.032 A 
HETATM    5  C6  UNL     1      21.146   0.260  50.422  1.00  0.00     0.013 A 
HETATM    6  C7  UNL     1      21.023   1.603  50.236  1.00  0.00    -0.015 A 
HETATM    7  C8  UNL     1      20.871   2.241  48.900  1.00  0.00     0.121 C 
HETATM    8  S1  UNL     1      22.506   2.393  48.102  1.00  0.00    -0.124 SA
HETATM    9  C9  UNL     1      23.548   3.504  49.077  1.00  0.00     0.011 A 
HETATM   10  C10 UNL     1      23.603   4.819  48.673  1.00  0.00     0.019 A 
HETATM   11  C11 UNL     1      24.341   5.806  49.295  1.00  0.00     0.001 A 
HETATM   12  C12 UNL     1      25.080   5.418  50.419  1.00  0.00     0.001 A 
HETATM   13  C13 UNL     1      25.012   4.095  50.807  1.00  0.00     0.013 A 
HETATM   14  C14 UNL     1      24.275   3.113  50.183  1.00  0.00    -0.020 A 
HETATM   15  C15 UNL     1      24.383   1.822  50.796  1.00  0.00     0.010 C 
HETATM   16  C16 UNL     1      24.534   1.535  52.079  1.00  0.00    -0.009 C 
HETATM   17  C17 UNL     1      24.622   0.108  52.452  1.00  0.00     0.112 A 
HETATM   18  C18 UNL     1      26.075  -0.293  52.576  1.00  0.00     0.135 A 
HETATM   19  N1  UNL     1      26.294  -0.772  53.727  1.00  0.00    -0.144 NA
HETATM   20  O2  UNL     1      25.175  -0.785  54.503  1.00  0.00    -0.216 OA
HETATM   21  C19 UNL     1      24.091  -0.244  53.769  1.00  0.00     0.108 A 
HETATM   22  C20 UNL     1      22.963  -0.210  54.442  1.00  0.00     0.146 C 
HETATM   23  N2  UNL     1      21.659   0.249  54.085  1.00  0.00    -0.288 N 
ENDROOT
BRANCH  23  24
HETATM   24  N3  UNL     1      20.548   0.440  54.887  1.00  0.00    -0.243 NA
HETATM   25  H18 UNL     1      19.838   0.990  54.367  1.00  0.00     0.143 HD
HETATM   26  H19 UNL     1      20.773   1.013  55.738  1.00  0.00     0.143 HD
ENDBRANCH  23  24
BRANCH   1  27
HETATM   27  O1  UNL     1      20.964   3.880  51.115  1.00  0.00    -0.355 OA
HETATM   28  C1  UNL     1      21.570   4.822  51.956  1.00  0.00     0.210 C 
ENDBRANCH   1  27
TORSDOF 2
ENDMDL
MODEL 2
REMARK VINA RESULT:      -7.7      1.871      4.293
REMARK  2 active torsions:
REMARK  status: ('A' for Active; 'I' for Inactive)
REMARK    1  A    between atoms: O1_2  and  C2_3 
REMARK    2  A    between atoms: N2_25  and  N3_26 
ROOT
HETATM    1  C2  UNL     1      23.937   3.057  50.698  1.00  0.00     0.077 A 
HETATM    2  C3  UNL     1      24.429   1.816  51.104  1.00  0.00     0.068 A 
HETATM    3  C4  UNL     1      24.788   1.667  52.432  1.00  0.00     0.053 A 
HETATM    4  C5  UNL     1      24.702   2.640  53.385  1.00  0.00     0.032 A 
HETATM    5  C6  UNL     1      24.215   3.848  52.959  1.00  0.00     0.013 A 
HETATM    6  C7  UNL     1      23.838   4.075  51.671  1.00  0.00    -0.015 A 
HETATM    7  C8  UNL     1      23.247   5.356  51.197  1.00  0.00     0.121 C 
HETATM    8  S1  UNL     1      21.469   5.401  51.607  1.00  0.00    -0.124 SA
HETATM    9  C9  UNL     1      20.613   4.085  50.707  1.00  0.00     0.011 A 
HETATM   10  C10 UNL     1      20.005   4.437  49.523  1.00  0.00     0.019 A 
HETATM   11  C11 UNL     1      19.311   3.570  48.704  1.00  0.00     0.001 A 
HETATM   12  C12 UNL     1      19.233   2.237  49.128  1.00  0.00     0.001 A 
HETATM   13  C13 UNL     1      19.849   1.906  50.319  1.00  0.00     0.013 A 
HETATM   14  C14 UNL     1      20.541   2.775  51.133  1.00  0.00    -0.020 A 
HETATM   15  C15 UNL     1      21.083   2.166  52.312  1.00  0.00     0.010 C 
HETATM   16  C16 UNL     1      21.547   0.935  52.458  1.00  0.00    -0.009 C 
HETATM   17  C17 UNL     1      22.054   0.553  53.791  1.00  0.00     0.112 A 
HETATM   18  C18 UNL     1      20.966  -0.169  54.557  1.00  0.00     0.135 A 
HETATM   19  N1  UNL     1      21.378  -1.309  54.922  1.00  0.00    -0.144 NA
HETATM   20  O2  UNL     1      22.658  -1.548  54.524  1.00  0.00    -0.216 OA
HETATM   21  C19 UNL     1      23.142  -0.425  53.808  1.00  0.00     0.108 A 
HETATM   22  C20 UNL     1      24.375  -0.566  53.376  1.00  0.00     0.146 C 
HETATM   23  N2  UNL     1      25.224   0.304  52.628  1.00  0.00    -0.288 N 
ENDROOT
BRANCH  23  24
HETATM   24  N3  UNL     1      26.445   0.039  52.035  1.00  0.00    -0.243 NA
HETATM   25  H18 UNL     1      26.737  -0.929  52.266  1.00  0.00     0.143 HD
HETATM   26  H19 UNL     1      27.207   0.655  52.415  1.00  0.00     0.143 HD
ENDBRANCH  23  24
BRANCH   1  27
HETATM   27  O1  UNL     1      23.544   3.313  49.370  1.00  0.00    -0.355 OA
HETATM   28  C1  UNL     1      23.013   2.312  48.546  1.00  0.00     0.210 C 
ENDBRANCH   1  27
TORSDOF 2
ENDMDL
MODEL 3
REMARK VINA RESULT:      -7.4      2.188      4.121
REMARK  2 active torsions:
REMARK  status: ('A' for Active; 'I' for Inactive)
REMARK    1  A    between atoms: O1_2  and  C2_3 
REMARK    2  A    between atoms: N2_25  and  N3_26 
ROOT
HETATM    1  C2  UNL     1      24.659   4.496  50.771  1.00  0.00     0.077 A 
HETATM    2  C3  UNL     1      25.315   3.448  51.418  1.00  0.00     0.068 A 
HETATM    3  C4  UNL     1      24.975   3.187  52.734  1.00  0.00     0.053 A 
HETATM    4  C5  UNL     1      24.046   3.877  53.458  1.00  0.00     0.032 A 
HETATM    5  C6  UNL     1      23.418   4.900  52.798  1.00  0.00     0.013 A 
HETATM    6  C7  UNL     1      23.693   5.219  51.503  1.00  0.00    -0.015 A 
HETATM    7  C8  UNL     1      22.980   6.282  50.745  1.00  0.00     0.121 C 
HETATM    8  S1  UNL     1      21.388   5.636  50.129  1.00  0.00    -0.124 SA
HETATM    9  C9  UNL     1      21.700   4.297  48.952  1.00  0.00     0.011 A 
HETATM   10  C10 UNL     1      21.697   4.632  47.616  1.00  0.00     0.019 A 
HETATM   11  C11 UNL     1      21.917   3.747  46.580  1.00  0.00     0.001 A 
HETATM   12  C12 UNL     1      22.161   2.415  46.938  1.00  0.00     0.001 A 
HETATM   13  C13 UNL     1      22.160   2.101  48.283  1.00  0.00     0.013 A 
HETATM   14  C14 UNL     1      21.939   2.988  49.313  1.00  0.00    -0.020 A 
HETATM   15  C15 UNL     1      21.994   2.395  50.617  1.00  0.00     0.010 C 
HETATM   16  C16 UNL     1      22.756   1.394  51.029  1.00  0.00    -0.009 C 
HETATM   17  C17 UNL     1      22.618   0.969  52.437  1.00  0.00     0.112 A 
HETATM   18  C18 UNL     1      21.675  -0.211  52.517  1.00  0.00     0.135 A 
HETATM   19  N1  UNL     1      22.250  -1.187  53.083  1.00  0.00    -0.144 NA
HETATM   20  O2  UNL     1      23.529  -0.892  53.446  1.00  0.00    -0.216 OA
HETATM   21  C19 UNL     1      23.826   0.440  53.069  1.00  0.00     0.108 A 
HETATM   22  C20 UNL     1      25.048   0.815  53.376  1.00  0.00     0.146 C 
HETATM   23  N2  UNL     1      25.741   2.047  53.176  1.00  0.00    -0.288 N 
ENDROOT
BRANCH  23  24
HETATM   24  N3  UNL     1      27.084   2.333  53.345  1.00  0.00    -0.243 NA
HETATM   25  H18 UNL     1      27.401   2.961  52.582  1.00  0.00     0.143 HD
HETATM   26  H19 UNL     1      27.681   1.474  53.261  1.00  0.00     0.143 HD
ENDBRANCH  23  24
BRANCH   1  27
HETATM   27  O1  UNL     1      24.932   4.843  49.433  1.00  0.00    -0.355 OA
HETATM   28  C1  UNL     1      26.230   5.119  48.986  1.00  0.00     0.210 C 
ENDBRANCH   1  27
TORSDOF 2
ENDMDL
MODEL 4
REMARK VINA RESULT:      -7.3      9.117     11.149
REMARK  2 active torsions:
REMARK  status: ('A' for Active; 'I' for Inactive)
REMARK    1  A    between atoms: O1_2  and  C2_3 
REMARK    2  A    between atoms: N2_25  and  N3_26 
ROOT
HETATM    1  C2  UNL     1      29.606   8.520  48.665  1.00  0.00     0.077 A 
HETATM    2  C3  UNL     1      30.613   7.688  49.155  1.00  0.00     0.068 A 
HETATM    3  C4  UNL     1      30.554   6.343  48.834  1.00  0.00     0.053 A 
HETATM    4  C5  UNL     1      29.583   5.758  48.074  1.00  0.00     0.032 A 
HETATM    5  C6  UNL     1      28.607   6.598  47.606  1.00  0.00     0.013 A 
HETATM    6  C7  UNL     1      28.595   7.933  47.874  1.00  0.00    -0.015 A 
HETATM    7  C8  UNL     1      27.584   8.876  47.325  1.00  0.00     0.121 C 
HETATM    8  S1  UNL     1      28.037   9.338  45.619  1.00  0.00    -0.124 SA
HETATM    9  C9  UNL     1      29.609  10.234  45.637  1.00  0.00     0.011 A 
HETATM   10  C10 UNL     1      29.539  11.610  45.632  1.00  0.00     0.019 A 
HETATM   11  C11 UNL     1      30.629  12.456  45.647  1.00  0.00     0.001 A 
HETATM   12  C12 UNL     1      31.891  11.847  45.670  1.00  0.00     0.001 A 
HETATM   13  C13 UNL     1      31.939  10.468  45.674  1.00  0.00     0.013 A 
HETATM   14  C14 UNL     1      30.847   9.628  45.659  1.00  0.00    -0.020 A 
HETATM   15  C15 UNL     1      31.181   8.234  45.668  1.00  0.00     0.010 C 
HETATM   16  C16 UNL     1      32.207   7.643  46.261  1.00  0.00    -0.009 C 
HETATM   17  C17 UNL     1      32.325   6.177  46.114  1.00  0.00     0.112 A 
HETATM   18  C18 UNL     1      33.278   5.859  44.983  1.00  0.00     0.135 A 
HETATM   19  N1  UNL     1      34.217   5.120  45.404  1.00  0.00    -0.144 NA
HETATM   20  O2  UNL     1      34.094   4.834  46.729  1.00  0.00    -0.216 OA
HETATM   21  C19 UNL     1      32.934   5.467  47.238  1.00  0.00     0.108 A 
HETATM   22  C20 UNL     1      32.735   5.251  48.519  1.00  0.00     0.146 C 
HETATM   23  N2  UNL     1      31.709   5.695  49.408  1.00  0.00    -0.288 N 
ENDROOT
BRANCH  23  24
HETATM   24  N3  UNL     1      31.643   5.599  50.786  1.00  0.00    -0.243 NA
HETATM   25  H18 UNL     1      31.851   6.525  51.207  1.00  0.00     0.143 HD
HETATM   26  H19 UNL     1      32.376   4.951  51.170  1.00  0.00     0.143 HD
ENDBRANCH  23  24
BRANCH   1  27
HETATM   27  O1  UNL     1      29.575   9.903  48.933  1.00  0.00    -0.355 OA
HETATM   28  C1  UNL     1      30.737  10.632  49.214  1.00  0.00     0.210 C 
ENDBRANCH   1  27
TORSDOF 2
ENDMDL
MODEL 5
REMARK VINA RESULT:      -7.0      8.940     11.825
REMARK  2 active torsions:
REMARK  status: ('A' for Active; 'I' for Inactive)
REMARK    1  A    between atoms: O1_2  and  C2_3 
REMARK    2  A    between atoms: N2_25  and  N3_26 
ROOT
HETATM    1  C2  UNL     1      31.051   8.760  45.860  1.00  0.00     0.077 A 
HETATM    2  C3  UNL     1      31.625   7.811  45.012  1.00  0.00     0.068 A 
HETATM    3  C4  UNL     1      32.952   7.480  45.219  1.00  0.00     0.053 A 
HETATM    4  C5  UNL     1      33.754   8.010  46.187  1.00  0.00     0.032 A 
HETATM    5  C6  UNL     1      33.165   8.938  47.005  1.00  0.00     0.013 A 
HETATM    6  C7  UNL     1      31.865   9.317  46.869  1.00  0.00    -0.015 A 
HETATM    7  C8  UNL     1      31.184  10.274  47.783  1.00  0.00     0.121 C 
HETATM    8  S1  UNL     1      30.656   9.406  49.300  1.00  0.00    -0.124 SA
HETATM    9  C9  UNL     1      29.426   8.149  48.875  1.00  0.00     0.011 A 
HETATM   10  C10 UNL     1      28.103   8.502  49.020  1.00  0.00     0.019 A 
HETATM   11  C11 UNL     1      27.031   7.678  48.742  1.00  0.00     0.001 A 
HETATM   12  C12 UNL     1      27.336   6.392  48.279  1.00  0.00     0.001 A 
HETATM   13  C13 UNL     1      28.669   6.059  48.141  1.00  0.00     0.013 A 
HETATM   14  C14 UNL     1      29.735   6.885  48.420  1.00  0.00    -0.020 A 
HETATM   15  C15 UNL     1      31.015   6.285  48.187  1.00  0.00     0.010 C 
HETATM   16  C16 UNL     1      31.350   5.403  47.258  1.00  0.00    -0.009 C 
HETATM   17  C17 UNL     1      32.752   4.938  47.234  1.00  0.00     0.112 A 
HETATM   18  C18 UNL     1      32.862   3.628  47.983  1.00  0.00     0.135 A 
HETATM   19  N1  UNL     1      33.362   2.741  47.232  1.00  0.00    -0.144 NA
HETATM   20  O2  UNL     1      33.648   3.218  45.989  1.00  0.00    -0.216 OA
HETATM   21  C19 UNL     1      33.289   4.586  45.920  1.00  0.00     0.108 A 
HETATM   22  C20 UNL     1      33.525   5.135  44.749  1.00  0.00     0.146 C 
HETATM   23  N2  UNL     1      33.313   6.460  44.262  1.00  0.00    -0.288 N 
ENDROOT
BRANCH  23  24
HETATM   24  N3  UNL     1      33.401   6.942  42.969  1.00  0.00    -0.243 NA
HETATM   25  H18 UNL     1      34.398   7.104  42.728  1.00  0.00     0.143 HD
HETATM   26  H19 UNL     1      32.937   7.879  42.867  1.00  0.00     0.143 HD
ENDBRANCH  23  24
BRANCH   1  27
HETATM   27  O1  UNL     1      29.708   9.166  45.735  1.00  0.00    -0.355 OA
HETATM   28  C1  UNL     1      28.732   8.343  45.158  1.00  0.00     0.210 C 
ENDBRANCH   1  27
TORSDOF 2
ENDMDL
MODEL 6
REMARK VINA RESULT:      -6.7      4.104      6.860
REMARK  2 active torsions:
REMARK  status: ('A' for Active; 'I' for Inactive)
REMARK    1  A    between atoms: O1_2  and  C2_3 
REMARK    2  A    between atoms: N2_25  and  N3_26 
ROOT
HETATM    1  C2  UNL     1      21.228   5.208  51.046  1.00  0.00     0.077 A 
HETATM    2  C3  UNL     1      20.362   5.665  50.052  1.00  0.00     0.068 A 
HETATM    3  C4  UNL     1      20.880   6.496  49.075  1.00  0.00     0.053 A 
HETATM    4  C5  UNL     1      22.178   6.913  49.003  1.00  0.00     0.032 A 
HETATM    5  C6  UNL     1      23.006   6.451  49.992  1.00  0.00     0.013 A 
HETATM    6  C7  UNL     1      22.575   5.627  50.987  1.00  0.00    -0.015 A 
HETATM    7  C8  UNL     1      23.467   5.060  52.033  1.00  0.00     0.121 C 
HETATM    8  S1  UNL     1      24.350   3.607  51.368  1.00  0.00    -0.124 SA
HETATM    9  C9  UNL     1      23.153   2.311  50.965  1.00  0.00     0.011 A 
HETATM   10  C10 UNL     1      22.954   1.334  51.914  1.00  0.00     0.019 A 
HETATM   11  C11 UNL     1      22.082   0.272  51.784  1.00  0.00     0.001 A 
HETATM   12  C12 UNL     1      21.355   0.205  50.588  1.00  0.00     0.001 A 
HETATM   13  C13 UNL     1      21.570   1.195  49.650  1.00  0.00     0.013 A 
HETATM   14  C14 UNL     1      22.442   2.252  49.785  1.00  0.00    -0.020 A 
HETATM   15  C15 UNL     1      22.469   3.136  48.657  1.00  0.00     0.010 C 
HETATM   16  C16 UNL     1      21.472   3.464  47.851  1.00  0.00    -0.009 C 
HETATM   17  C17 UNL     1      21.768   4.405  46.750  1.00  0.00     0.112 A 
HETATM   18  C18 UNL     1      22.041   3.627  45.482  1.00  0.00     0.135 A 
HETATM   19  N1  UNL     1      21.254   4.006  44.565  1.00  0.00    -0.144 NA
HETATM   20  O2  UNL     1      20.406   4.986  44.984  1.00  0.00    -0.216 OA
HETATM   21  C19 UNL     1      20.670   5.282  46.343  1.00  0.00     0.108 A 
HETATM   22  C20 UNL     1      19.892   6.217  46.840  1.00  0.00     0.146 C 
HETATM   23  N2  UNL     1      19.823   6.802  48.141  1.00  0.00    -0.288 N 
ENDROOT
BRANCH  23  24
HETATM   24  N3  UNL     1      18.865   7.648  48.670  1.00  0.00    -0.243 NA
HETATM   25  H18 UNL     1      18.332   8.092  47.897  1.00  0.00     0.143 HD
HETATM   26  H19 UNL     1      19.297   8.446  49.200  1.00  0.00     0.143 HD
ENDBRANCH  23  24
BRANCH   1  27
HETATM   27  O1  UNL     1      20.801   4.358  52.085  1.00  0.00    -0.355 OA
HETATM   28  C1  UNL     1      19.725   3.476  51.928  1.00  0.00     0.210 C 
ENDBRANCH   1  27
TORSDOF 2
ENDMDL
MODEL 7
REMARK VINA RESULT:      -6.6      7.867     11.126
REMARK  2 active torsions:
REMARK  status: ('A' for Active; 'I' for Inactive)
REMARK    1  A    between atoms: O1_2  and  C2_3 
REMARK    2  A    between atoms: N2_25  and  N3_26 
ROOT
HETATM    1  C2  UNL     1      30.906  10.082  47.037  1.00  0.00     0.077 A 
HETATM    2  C3  UNL     1      31.196   8.718  46.979  1.00  0.00     0.068 A 
HETATM    3  C4  UNL     1      31.246   8.017  48.171  1.00  0.00     0.053 A 
HETATM    4  C5  UNL     1      31.038   8.553  49.408  1.00  0.00     0.032 A 
HETATM    5  C6  UNL     1      30.756   9.894  49.436  1.00  0.00     0.013 A 
HETATM    6  C7  UNL     1      30.686  10.653  48.309  1.00  0.00    -0.015 A 
HETATM    7  C8  UNL     1      30.318  12.095  48.307  1.00  0.00     0.121 C 
HETATM    8  S1  UNL     1      28.503  12.268  48.400  1.00  0.00    -0.124 SA
HETATM    9  C9  UNL     1      27.756  11.553  46.916  1.00  0.00     0.011 A 
HETATM   10  C10 UNL     1      27.448  12.423  45.895  1.00  0.00     0.019 A 
HETATM   11  C11 UNL     1      26.878  12.059  44.692  1.00  0.00     0.001 A 
HETATM   12  C12 UNL     1      26.601  10.697  44.519  1.00  0.00     0.001 A 
HETATM   13  C13 UNL     1      26.916   9.841  45.556  1.00  0.00     0.013 A 
HETATM   14  C14 UNL     1      27.485  10.210  46.754  1.00  0.00    -0.020 A 
HETATM   15  C15 UNL     1      27.708   9.118  47.656  1.00  0.00     0.010 C 
HETATM   16  C16 UNL     1      28.026   7.867  47.363  1.00  0.00    -0.009 C 
HETATM   17  C17 UNL     1      28.201   6.927  48.489  1.00  0.00     0.112 A 
HETATM   18  C18 UNL     1      26.918   6.155  48.705  1.00  0.00     0.135 A 
HETATM   19  N1  UNL     1      27.145   4.911  48.638  1.00  0.00    -0.144 NA
HETATM   20  O2  UNL     1      28.457   4.639  48.393  1.00  0.00    -0.216 OA
HETATM   21  C19 UNL     1      29.175   5.855  48.286  1.00  0.00     0.108 A 
HETATM   22  C20 UNL     1      30.456   5.692  48.044  1.00  0.00     0.146 C 
HETATM   23  N2  UNL     1      31.515   6.632  47.864  1.00  0.00    -0.288 N 
ENDROOT
BRANCH  23  24
HETATM   24  N3  UNL     1      32.809   6.420  47.425  1.00  0.00    -0.243 NA
HETATM   25  H18 UNL     1      32.798   5.757  46.626  1.00  0.00     0.143 HD
HETATM   26  H19 UNL     1      33.401   5.957  48.159  1.00  0.00     0.143 HD
ENDBRANCH  23  24
BRANCH   1  27
HETATM   27  O1  UNL     1      30.831  10.886  45.883  1.00  0.00    -0.355 OA
HETATM   28  C1  UNL     1      30.537  10.351  44.622  1.00  0.00     0.210 C 
ENDBRANCH   1  27
TORSDOF 2
ENDMDL
MODEL 8
REMARK VINA RESULT:      -6.5      4.389      6.348
REMARK  2 active torsions:
REMARK  status: ('A' for Active; 'I' for Inactive)
REMARK    1  A    between atoms: O1_2  and  C2_3 
REMARK    2  A    between atoms: N2_25  and  N3_26 
ROOT
HETATM    1  C2  UNL     1      21.906   5.809  50.300  1.00  0.00     0.077 A 
HETATM    2  C3  UNL     1      22.671   6.718  49.569  1.00  0.00     0.068 A 
HETATM    3  C4  UNL     1      23.780   7.271  50.185  1.00  0.00     0.053 A 
HETATM    4  C5  UNL     1      24.190   7.000  51.458  1.00  0.00     0.032 A 
HETATM    5  C6  UNL     1      23.421   6.104  52.152  1.00  0.00     0.013 A 
HETATM    6  C7  UNL     1      22.316   5.515  51.618  1.00  0.00    -0.015 A 
HETATM    7  C8  UNL     1      21.502   4.492  52.328  1.00  0.00     0.121 C 
HETATM    8  S1  UNL     1      22.304   2.858  52.183  1.00  0.00    -0.124 SA
HETATM    9  C9  UNL     1      22.341   2.360  50.444  1.00  0.00     0.011 A 
HETATM   10  C10 UNL     1      21.332   1.527  50.016  1.00  0.00     0.019 A 
HETATM   11  C11 UNL     1      21.196   1.048  48.729  1.00  0.00     0.001 A 
HETATM   12  C12 UNL     1      22.169   1.453  47.806  1.00  0.00     0.001 A 
HETATM   13  C13 UNL     1      23.172   2.288  48.256  1.00  0.00     0.013 A 
HETATM   14  C14 UNL     1      23.303   2.763  49.542  1.00  0.00    -0.020 A 
HETATM   15  C15 UNL     1      24.439   3.616  49.738  1.00  0.00     0.010 C 
HETATM   16  C16 UNL     1      24.984   4.462  48.879  1.00  0.00    -0.009 C 
HETATM   17  C17 UNL     1      26.162   5.229  49.334  1.00  0.00     0.112 A 
HETATM   18  C18 UNL     1      27.425   4.535  48.874  1.00  0.00     0.135 A 
HETATM   19  N1  UNL     1      28.132   5.331  48.190  1.00  0.00    -0.144 NA
HETATM   20  O2  UNL     1      27.556   6.559  48.069  1.00  0.00    -0.216 OA
HETATM   21  C19 UNL     1      26.319   6.565  48.759  1.00  0.00     0.108 A 
HETATM   22  C20 UNL     1      25.685   7.714  48.693  1.00  0.00     0.146 C 
HETATM   23  N2  UNL     1      24.433   8.139  49.234  1.00  0.00    -0.288 N 
ENDROOT
BRANCH  23  24
HETATM   24  N3  UNL     1      23.718   9.296  48.981  1.00  0.00    -0.243 NA
HETATM   25  H18 UNL     1      22.706   9.111  49.115  1.00  0.00     0.143 HD
HETATM   26  H19 UNL     1      23.813   9.605  47.982  1.00  0.00     0.143 HD
ENDBRANCH  23  24
BRANCH   1  27
HETATM   27  O1  UNL     1      20.758   5.190  49.766  1.00  0.00    -0.355 OA
HETATM   28  C1  UNL     1      20.583   5.011  48.388  1.00  0.00     0.210 C 
ENDBRANCH   1  27
TORSDOF 2
ENDMDL
MODEL 9
REMARK VINA RESULT:      -6.4      9.254     11.840
REMARK  2 active torsions:
REMARK  status: ('A' for Active; 'I' for Inactive)
REMARK    1  A    between atoms: O1_2  and  C2_3 
REMARK    2  A    between atoms: N2_25  and  N3_26 
ROOT
HETATM    1  C2  UNL     1      30.954   9.862  48.838  1.00  0.00     0.077 A 
HETATM    2  C3  UNL     1      29.735   9.392  49.330  1.00  0.00     0.068 A 
HETATM    3  C4  UNL     1      28.622  10.200  49.178  1.00  0.00     0.053 A 
HETATM    4  C5  UNL     1      28.618  11.429  48.586  1.00  0.00     0.032 A 
HETATM    5  C6  UNL     1      29.827  11.866  48.113  1.00  0.00     0.013 A 
HETATM    6  C7  UNL     1      30.967  11.131  48.221  1.00  0.00    -0.015 A 
HETATM    7  C8  UNL     1      32.279  11.554  47.659  1.00  0.00     0.121 C 
HETATM    8  S1  UNL     1      32.335  11.172  45.874  1.00  0.00    -0.124 SA
HETATM    9  C9  UNL     1      32.238   9.381  45.641  1.00  0.00     0.011 A 
HETATM   10  C10 UNL     1      33.430   8.711  45.478  1.00  0.00     0.019 A 
HETATM   11  C11 UNL     1      33.551   7.349  45.292  1.00  0.00     0.001 A 
HETATM   12  C12 UNL     1      32.359   6.614  45.270  1.00  0.00     0.001 A 
HETATM   13  C13 UNL     1      31.175   7.305  45.434  1.00  0.00     0.013 A 
HETATM   14  C14 UNL     1      31.060   8.664  45.620  1.00  0.00    -0.020 A 
HETATM   15  C15 UNL     1      29.710   9.122  45.765  1.00  0.00     0.010 C 
HETATM   16  C16 UNL     1      28.688   8.495  46.327  1.00  0.00    -0.009 C 
HETATM   17  C17 UNL     1      27.387   9.193  46.345  1.00  0.00     0.112 A 
HETATM   18  C18 UNL     1      26.546   8.726  45.178  1.00  0.00     0.135 A 
HETATM   19  N1  UNL     1      25.440   8.274  45.594  1.00  0.00    -0.144 NA
HETATM   20  O2  UNL     1      25.333   8.339  46.950  1.00  0.00    -0.216 OA
HETATM   21  C19 UNL     1      26.518   8.902  47.485  1.00  0.00     0.108 A 
HETATM   22  C20 UNL     1      26.510   9.000  48.796  1.00  0.00     0.146 C 
HETATM   23  N2  UNL     1      27.482   9.497  49.716  1.00  0.00    -0.288 N 
ENDROOT
BRANCH  23  24
HETATM   24  N3  UNL     1      27.507   9.407  51.096  1.00  0.00    -0.243 NA
HETATM   25  H18 UNL     1      26.966   8.574  51.397  1.00  0.00     0.143 HD
HETATM   26  H19 UNL     1      27.030  10.225  51.551  1.00  0.00     0.143 HD
ENDBRANCH  23  24
BRANCH   1  27
HETATM   27  O1  UNL     1      32.145   9.117  48.942  1.00  0.00    -0.355 OA
HETATM   28  C1  UNL     1      32.141   7.724  49.085  1.00  0.00     0.210 C 
ENDBRANCH   1  27
TORSDOF 2
ENDMDL
