MODEL 1
REMARK VINA RESULT:      -8.0      0.000      0.000
REMARK  3 active torsions:
REMARK  status: ('A' for Active; 'I' for Inactive)
REMARK       I    between atoms: C2_2  and  N1_4 
REMARK    1  A    between atoms: N1_4  and  C3_5 
REMARK    2  A    between atoms: C8_12  and  N4_13 
REMARK    3  A    between atoms: N4_13  and  C9_14 
ROOT
HETATM    1  C3  UNL     1      24.743   4.031  49.726  1.00  0.00     0.035 A 
HETATM    2  C4  UNL     1      23.681   3.432  49.055  1.00  0.00     0.032 A 
HETATM    3  C5  UNL     1      22.942   2.399  49.642  1.00  0.00     0.035 A 
HETATM    4  C6  UNL     1      23.300   1.988  50.914  1.00  0.00     0.072 A 
HETATM    5  N2  UNL     1      22.599   1.005  51.477  1.00  0.00    -0.241 NA
HETATM    6  C7  UNL     1      22.899   0.566  52.706  1.00  0.00     0.236 A 
HETATM    7  N3  UNL     1      23.928   1.118  53.405  1.00  0.00    -0.223 NA
HETATM    8  C8  UNL     1      24.649   2.119  52.845  1.00  0.00     0.143 A 
HETATM    9  C13 UNL     1      24.355   2.586  51.578  1.00  0.00     0.041 A 
HETATM   10  C14 UNL     1      25.080   3.604  50.993  1.00  0.00     0.047 A 
ENDROOT
BRANCH   8  11
HETATM   11  N4  UNL     1      25.723   2.682  53.595  1.00  0.00    -0.328 N 
HETATM   12  H8  UNL     1      25.630   3.615  54.073  1.00  0.00     0.169 HD
BRANCH  11  13
HETATM   13  C9  UNL     1      26.951   1.971  53.706  1.00  0.00     0.110 A 
HETATM   14  N5  UNL     1      28.030   2.499  54.181  1.00  0.00    -0.246 NA
HETATM   15  C10 UNL     1      29.064   1.516  54.149  1.00  0.00     0.133 A 
HETATM   16  C11 UNL     1      28.621   0.372  53.651  1.00  0.00     0.013 A 
HETATM   17 BR1  UNL     1      29.756  -1.154  53.470  1.00  0.00    -0.054 Br
HETATM   18  C12 UNL     1      27.192   0.567  53.315  1.00  0.00     0.126 A 
ENDBRANCH  11  13
ENDBRANCH   8  11
BRANCH   1  19
HETATM   19  N1  UNL     1      25.500   5.078  49.144  1.00  0.00    -0.327 N 
HETATM   20  C2  UNL     1      26.844   5.246  48.787  1.00  0.00     0.218 C 
HETATM   21  C1  UNL     1      27.280   6.530  48.180  1.00  0.00     0.117 C 
HETATM   22  O1  UNL     1      27.786   4.421  48.914  1.00  0.00    -0.274 OA
HETATM   23  H4  UNL     1      24.797   5.844  48.990  1.00  0.00     0.169 HD
ENDBRANCH   1  19
TORSDOF 3
ENDMDL
MODEL 2
REMARK VINA RESULT:      -7.7      3.826      4.517
REMARK  3 active torsions:
REMARK  status: ('A' for Active; 'I' for Inactive)
REMARK       I    between atoms: C2_2  and  N1_4 
REMARK    1  A    between atoms: N1_4  and  C3_5 
REMARK    2  A    between atoms: C8_12  and  N4_13 
REMARK    3  A    between atoms: N4_13  and  C9_14 
ROOT
HETATM    1  C3  UNL     1      20.622   0.839  51.550  1.00  0.00     0.035 A 
HETATM    2  C4  UNL     1      19.619   0.194  52.268  1.00  0.00     0.032 A 
HETATM    3  C5  UNL     1      19.917  -0.571  53.402  1.00  0.00     0.035 A 
HETATM    4  C6  UNL     1      21.242  -0.668  53.789  1.00  0.00     0.072 A 
HETATM    5  N2  UNL     1      21.530  -1.394  54.867  1.00  0.00    -0.241 NA
HETATM    6  C7  UNL     1      22.794  -1.523  55.289  1.00  0.00     0.236 A 
HETATM    7  N3  UNL     1      23.812  -0.912  54.622  1.00  0.00    -0.223 NA
HETATM    8  C8  UNL     1      23.533  -0.170  53.523  1.00  0.00     0.143 A 
HETATM    9  C13 UNL     1      22.235  -0.025  53.073  1.00  0.00     0.041 A 
HETATM   10  C14 UNL     1      21.934   0.728  51.955  1.00  0.00     0.047 A 
ENDROOT
BRANCH   8  11
HETATM   11  N4  UNL     1      24.614   0.460  52.840  1.00  0.00    -0.328 N 
HETATM   12  H8  UNL     1      24.454   1.048  51.982  1.00  0.00     0.169 HD
BRANCH  11  13
HETATM   13  C9  UNL     1      25.943   0.294  53.323  1.00  0.00     0.110 A 
HETATM   14  N5  UNL     1      26.405   0.935  54.345  1.00  0.00    -0.246 NA
HETATM   15  C10 UNL     1      27.759   0.533  54.553  1.00  0.00     0.133 A 
HETATM   16  C11 UNL     1      28.135  -0.363  53.653  1.00  0.00     0.013 A 
HETATM   17 BR1  UNL     1      29.895  -1.107  53.650  1.00  0.00    -0.054 Br
HETATM   18  C12 UNL     1      26.976  -0.601  52.764  1.00  0.00     0.126 A 
ENDBRANCH  11  13
ENDBRANCH   8  11
BRANCH   1  19
HETATM   19  N1  UNL     1      20.335   1.616  50.401  1.00  0.00    -0.327 N 
HETATM   20  C2  UNL     1      20.682   1.543  49.045  1.00  0.00     0.218 C 
HETATM   21  C1  UNL     1      20.172   2.576  48.107  1.00  0.00     0.117 C 
HETATM   22  O1  UNL     1      21.401   0.680  48.477  1.00  0.00    -0.274 OA
HETATM   23  H4  UNL     1      19.722   2.389  50.763  1.00  0.00     0.169 HD
ENDBRANCH   1  19
TORSDOF 3
ENDMDL
MODEL 3
REMARK VINA RESULT:      -7.6      3.343      6.026
REMARK  3 active torsions:
REMARK  status: ('A' for Active; 'I' for Inactive)
REMARK       I    between atoms: C2_2  and  N1_4 
REMARK    1  A    between atoms: N1_4  and  C3_5 
REMARK    2  A    between atoms: C8_12  and  N4_13 
REMARK    3  A    between atoms: N4_13  and  C9_14 
ROOT
HETATM    1  C3  UNL     1      25.138  -0.713  54.348  1.00  0.00     0.035 A 
HETATM    2  C4  UNL     1      24.419  -1.292  55.389  1.00  0.00     0.032 A 
HETATM    3  C5  UNL     1      23.021  -1.240  55.421  1.00  0.00     0.035 A 
HETATM    4  C6  UNL     1      22.372  -0.593  54.384  1.00  0.00     0.072 A 
HETATM    5  N2  UNL     1      21.042  -0.541  54.409  1.00  0.00    -0.241 NA
HETATM    6  C7  UNL     1      20.360   0.071  53.433  1.00  0.00     0.236 A 
HETATM    7  N3  UNL     1      21.017   0.653  52.392  1.00  0.00    -0.223 NA
HETATM    8  C8  UNL     1      22.371   0.608  52.353  1.00  0.00     0.143 A 
HETATM    9  C13 UNL     1      23.091  -0.020  53.351  1.00  0.00     0.041 A 
HETATM   10  C14 UNL     1      24.470  -0.074  53.326  1.00  0.00     0.047 A 
ENDROOT
BRANCH   8  11
HETATM   11  N4  UNL     1      23.037   1.225  51.254  1.00  0.00    -0.328 N 
HETATM   12  H8  UNL     1      23.297   0.679  50.392  1.00  0.00     0.169 HD
BRANCH  11  13
HETATM   13  C9  UNL     1      23.360   2.610  51.316  1.00  0.00     0.110 A 
HETATM   14  N5  UNL     1      22.973   3.381  52.277  1.00  0.00    -0.246 NA
HETATM   15  C10 UNL     1      23.469   4.696  52.026  1.00  0.00     0.133 A 
HETATM   16  C11 UNL     1      24.168   4.737  50.902  1.00  0.00     0.013 A 
HETATM   17 BR1  UNL     1      24.972   6.353  50.277  1.00  0.00    -0.054 Br
HETATM   18  C12 UNL     1      24.160   3.371  50.333  1.00  0.00     0.126 A 
ENDBRANCH  11  13
ENDBRANCH   8  11
BRANCH   1  19
HETATM   19  N1  UNL     1      26.554  -0.758  54.303  1.00  0.00    -0.327 N 
HETATM   20  C2  UNL     1      27.578   0.187  54.446  1.00  0.00     0.218 C 
HETATM   21  C1  UNL     1      28.994  -0.252  54.330  1.00  0.00     0.117 C 
HETATM   22  O1  UNL     1      27.466   1.420  54.671  1.00  0.00    -0.274 OA
HETATM   23  H4  UNL     1      26.770  -1.769  54.115  1.00  0.00     0.169 HD
ENDBRANCH   1  19
TORSDOF 3
ENDMDL
MODEL 4
REMARK VINA RESULT:      -7.3      2.524      2.882
REMARK  3 active torsions:
REMARK  status: ('A' for Active; 'I' for Inactive)
REMARK       I    between atoms: C2_2  and  N1_4 
REMARK    1  A    between atoms: N1_4  and  C3_5 
REMARK    2  A    between atoms: C8_12  and  N4_13 
REMARK    3  A    between atoms: N4_13  and  C9_14 
ROOT
HETATM    1  C3  UNL     1      22.492   1.995  50.175  1.00  0.00     0.035 A 
HETATM    2  C4  UNL     1      21.353   1.199  50.103  1.00  0.00     0.032 A 
HETATM    3  C5  UNL     1      21.080   0.233  51.079  1.00  0.00     0.035 A 
HETATM    4  C6  UNL     1      21.979   0.093  52.121  1.00  0.00     0.072 A 
HETATM    5  N2  UNL     1      21.724  -0.824  53.052  1.00  0.00    -0.241 NA
HETATM    6  C7  UNL     1      22.558  -1.005  54.084  1.00  0.00     0.236 A 
HETATM    7  N3  UNL     1      23.686  -0.252  54.201  1.00  0.00    -0.223 NA
HETATM    8  C8  UNL     1      23.958   0.686  53.261  1.00  0.00     0.143 A 
HETATM    9  C13 UNL     1      23.109   0.887  52.189  1.00  0.00     0.041 A 
HETATM   10  C14 UNL     1      23.373   1.837  51.223  1.00  0.00     0.047 A 
ENDROOT
BRANCH   8  11
HETATM   11  N4  UNL     1      25.146   1.462  53.403  1.00  0.00    -0.328 N 
HETATM   12  H8  UNL     1      25.136   2.507  53.281  1.00  0.00     0.169 HD
BRANCH  11  13
HETATM   13  C9  UNL     1      26.374   0.816  53.719  1.00  0.00     0.110 A 
HETATM   14  N5  UNL     1      27.011   1.015  54.825  1.00  0.00    -0.246 NA
HETATM   15  C10 UNL     1      28.193   0.215  54.814  1.00  0.00     0.133 A 
HETATM   16  C11 UNL     1      28.287  -0.484  53.693  1.00  0.00     0.013 A 
HETATM   17 BR1  UNL     1      29.756  -1.658  53.361  1.00  0.00    -0.054 Br
HETATM   18  C12 UNL     1      27.101  -0.153  52.872  1.00  0.00     0.126 A 
ENDBRANCH  11  13
ENDBRANCH   8  11
BRANCH   1  19
HETATM   19  N1  UNL     1      22.780   2.976  49.195  1.00  0.00    -0.327 N 
HETATM   20  C2  UNL     1      22.283   4.251  48.896  1.00  0.00     0.218 C 
HETATM   21  C1  UNL     1      22.856   5.005  47.750  1.00  0.00     0.117 C 
HETATM   22  O1  UNL     1      21.373   4.885  49.490  1.00  0.00    -0.274 OA
HETATM   23  H4  UNL     1      23.549   2.545  48.622  1.00  0.00     0.169 HD
ENDBRANCH   1  19
TORSDOF 3
ENDMDL
MODEL 5
REMARK VINA RESULT:      -7.3      3.669      6.128
REMARK  3 active torsions:
REMARK  status: ('A' for Active; 'I' for Inactive)
REMARK       I    between atoms: C2_2  and  N1_4 
REMARK    1  A    between atoms: N1_4  and  C3_5 
REMARK    2  A    between atoms: C8_12  and  N4_13 
REMARK    3  A    between atoms: N4_13  and  C9_14 
ROOT
HETATM    1  C3  UNL     1      26.052   0.240  52.774  1.00  0.00     0.035 A 
HETATM    2  C4  UNL     1      25.034  -0.593  53.228  1.00  0.00     0.032 A 
HETATM    3  C5  UNL     1      23.698  -0.179  53.211  1.00  0.00     0.035 A 
HETATM    4  C6  UNL     1      23.417   1.088  52.729  1.00  0.00     0.072 A 
HETATM    5  N2  UNL     1      22.147   1.486  52.711  1.00  0.00    -0.241 NA
HETATM    6  C7  UNL     1      21.815   2.701  52.256  1.00  0.00     0.236 A 
HETATM    7  N3  UNL     1      22.774   3.554  51.800  1.00  0.00    -0.223 NA
HETATM    8  C8  UNL     1      24.071   3.161  51.812  1.00  0.00     0.143 A 
HETATM    9  C13 UNL     1      24.432   1.912  52.279  1.00  0.00     0.041 A 
HETATM   10  C14 UNL     1      25.748   1.497  52.298  1.00  0.00     0.047 A 
ENDROOT
BRANCH   8  11
HETATM   11  N4  UNL     1      25.058   4.071  51.332  1.00  0.00    -0.328 N 
HETATM   12  H8  UNL     1      26.067   3.988  51.619  1.00  0.00     0.169 HD
BRANCH  11  13
HETATM   13  C9  UNL     1      24.677   5.116  50.444  1.00  0.00     0.110 A 
HETATM   14  N5  UNL     1      24.620   6.356  50.799  1.00  0.00    -0.246 NA
HETATM   15  C10 UNL     1      24.208   7.129  49.672  1.00  0.00     0.133 A 
HETATM   16  C11 UNL     1      24.009   6.360  48.612  1.00  0.00     0.013 A 
HETATM   17 BR1  UNL     1      23.449   7.084  46.936  1.00  0.00    -0.054 Br
HETATM   18  C12 UNL     1      24.300   4.968  49.023  1.00  0.00     0.126 A 
ENDBRANCH  11  13
ENDBRANCH   8  11
BRANCH   1  19
HETATM   19  N1  UNL     1      27.410  -0.167  52.784  1.00  0.00    -0.327 N 
HETATM   20  C2  UNL     1      28.364  -0.399  53.783  1.00  0.00     0.218 C 
HETATM   21  C1  UNL     1      29.733  -0.830  53.395  1.00  0.00     0.117 C 
HETATM   22  O1  UNL     1      28.222  -0.290  55.029  1.00  0.00    -0.274 OA
HETATM   23  H4  UNL     1      27.646  -0.291  51.768  1.00  0.00     0.169 HD
ENDBRANCH   1  19
TORSDOF 3
ENDMDL
MODEL 6
REMARK VINA RESULT:      -7.2      4.549      6.815
REMARK  3 active torsions:
REMARK  status: ('A' for Active; 'I' for Inactive)
REMARK       I    between atoms: C2_2  and  N1_4 
REMARK    1  A    between atoms: N1_4  and  C3_5 
REMARK    2  A    between atoms: C8_12  and  N4_13 
REMARK    3  A    between atoms: N4_13  and  C9_14 
ROOT
HETATM    1  C3  UNL     1      25.355  -0.270  54.295  1.00  0.00     0.035 A 
HETATM    2  C4  UNL     1      24.995  -1.031  55.404  1.00  0.00     0.032 A 
HETATM    3  C5  UNL     1      23.669  -1.426  55.613  1.00  0.00     0.035 A 
HETATM    4  C6  UNL     1      22.722  -1.036  54.682  1.00  0.00     0.072 A 
HETATM    5  N2  UNL     1      21.459  -1.410  54.876  1.00  0.00    -0.241 NA
HETATM    6  C7  UNL     1      20.500  -1.063  54.009  1.00  0.00     0.236 A 
HETATM    7  N3  UNL     1      20.799  -0.319  52.909  1.00  0.00    -0.223 NA
HETATM    8  C8  UNL     1      22.081   0.068  52.698  1.00  0.00     0.143 A 
HETATM    9  C13 UNL     1      23.084  -0.281  53.582  1.00  0.00     0.041 A 
HETATM   10  C14 UNL     1      24.394   0.105  53.381  1.00  0.00     0.047 A 
ENDROOT
BRANCH   8  11
HETATM   11  N4  UNL     1      22.371   0.847  51.539  1.00  0.00    -0.328 N 
HETATM   12  H8  UNL     1      23.057   0.516  50.813  1.00  0.00     0.169 HD
BRANCH  11  13
HETATM   13  C9  UNL     1      21.722   2.100  51.354  1.00  0.00     0.110 A 
HETATM   14  N5  UNL     1      22.001   3.148  52.055  1.00  0.00    -0.246 NA
HETATM   15  C10 UNL     1      21.171   4.221  51.611  1.00  0.00     0.133 A 
HETATM   16  C11 UNL     1      20.374   3.833  50.628  1.00  0.00     0.013 A 
HETATM   17 BR1  UNL     1      19.134   5.031  49.806  1.00  0.00    -0.054 Br
HETATM   18  C12 UNL     1      20.663   2.404  50.369  1.00  0.00     0.126 A 
ENDBRANCH  11  13
ENDBRANCH   8  11
BRANCH   1  19
HETATM   19  N1  UNL     1      26.694   0.136  54.071  1.00  0.00    -0.327 N 
HETATM   20  C2  UNL     1      27.871  -0.513  53.677  1.00  0.00     0.218 C 
HETATM   21  C1  UNL     1      29.126   0.274  53.546  1.00  0.00     0.117 C 
HETATM   22  O1  UNL     1      28.028  -1.731  53.404  1.00  0.00    -0.274 OA
HETATM   23  H4  UNL     1      26.684   1.167  54.275  1.00  0.00     0.169 HD
ENDBRANCH   1  19
TORSDOF 3
ENDMDL
MODEL 7
REMARK VINA RESULT:      -7.1      3.663      5.887
REMARK  3 active torsions:
REMARK  status: ('A' for Active; 'I' for Inactive)
REMARK       I    between atoms: C2_2  and  N1_4 
REMARK    1  A    between atoms: N1_4  and  C3_5 
REMARK    2  A    between atoms: C8_12  and  N4_13 
REMARK    3  A    between atoms: N4_13  and  C9_14 
ROOT
HETATM    1  C3  UNL     1      25.091   1.648  53.277  1.00  0.00     0.035 A 
HETATM    2  C4  UNL     1      24.176   0.607  53.153  1.00  0.00     0.032 A 
HETATM    3  C5  UNL     1      22.857   0.846  52.751  1.00  0.00     0.035 A 
HETATM    4  C6  UNL     1      22.488   2.152  52.480  1.00  0.00     0.072 A 
HETATM    5  N2  UNL     1      21.234   2.384  52.097  1.00  0.00    -0.241 NA
HETATM    6  C7  UNL     1      20.820   3.627  51.820  1.00  0.00     0.236 A 
HETATM    7  N3  UNL     1      21.677   4.680  51.926  1.00  0.00    -0.223 NA
HETATM    8  C8  UNL     1      22.956   4.458  52.314  1.00  0.00     0.143 A 
HETATM    9  C13 UNL     1      23.401   3.183  52.604  1.00  0.00     0.041 A 
HETATM   10  C14 UNL     1      24.701   2.940  53.001  1.00  0.00     0.047 A 
ENDROOT
BRANCH   8  11
HETATM   11  N4  UNL     1      23.835   5.576  52.419  1.00  0.00    -0.328 N 
HETATM   12  H8  UNL     1      24.225   5.883  53.347  1.00  0.00     0.169 HD
BRANCH  11  13
HETATM   13  C9  UNL     1      24.199   6.297  51.247  1.00  0.00     0.110 A 
HETATM   14  N5  UNL     1      25.012   5.831  50.358  1.00  0.00    -0.246 NA
HETATM   15  C10 UNL     1      25.153   6.804  49.323  1.00  0.00     0.133 A 
HETATM   16  C11 UNL     1      24.421   7.879  49.575  1.00  0.00     0.013 A 
HETATM   17 BR1  UNL     1      24.385   9.372  48.384  1.00  0.00    -0.054 Br
HETATM   18  C12 UNL     1      23.727   7.643  50.861  1.00  0.00     0.126 A 
ENDBRANCH  11  13
ENDBRANCH   8  11
BRANCH   1  19
HETATM   19  N1  UNL     1      26.430   1.420  53.683  1.00  0.00    -0.327 N 
HETATM   20  C2  UNL     1      27.688   1.804  53.202  1.00  0.00     0.218 C 
HETATM   21  C1  UNL     1      28.909   1.356  53.920  1.00  0.00     0.117 C 
HETATM   22  O1  UNL     1      27.946   2.513  52.194  1.00  0.00    -0.274 OA
HETATM   23  H4  UNL     1      26.336   0.821  54.541  1.00  0.00     0.169 HD
ENDBRANCH   1  19
TORSDOF 3
ENDMDL
MODEL 8
REMARK VINA RESULT:      -7.1      3.752      5.858
REMARK  3 active torsions:
REMARK  status: ('A' for Active; 'I' for Inactive)
REMARK       I    between atoms: C2_2  and  N1_4 
REMARK    1  A    between atoms: N1_4  and  C3_5 
REMARK    2  A    between atoms: C8_12  and  N4_13 
REMARK    3  A    between atoms: N4_13  and  C9_14 
ROOT
HETATM    1  C3  UNL     1      25.956   1.763  51.593  1.00  0.00     0.035 A 
HETATM    2  C4  UNL     1      26.638   0.675  52.132  1.00  0.00     0.032 A 
HETATM    3  C5  UNL     1      25.994  -0.241  52.970  1.00  0.00     0.035 A 
HETATM    4  C6  UNL     1      24.654  -0.034  53.249  1.00  0.00     0.072 A 
HETATM    5  N2  UNL     1      24.037  -0.904  54.046  1.00  0.00    -0.241 NA
HETATM    6  C7  UNL     1      22.742  -0.756  54.351  1.00  0.00     0.236 A 
HETATM    7  N3  UNL     1      22.030   0.291  53.851  1.00  0.00    -0.223 NA
HETATM    8  C8  UNL     1      22.645   1.184  53.038  1.00  0.00     0.143 A 
HETATM    9  C13 UNL     1      23.981   1.046  52.712  1.00  0.00     0.041 A 
HETATM   10  C14 UNL     1      24.622   1.947  51.886  1.00  0.00     0.047 A 
ENDROOT
BRANCH   8  11
HETATM   11  N4  UNL     1      21.880   2.272  52.526  1.00  0.00    -0.328 N 
HETATM   12  H8  UNL     1      22.271   3.249  52.487  1.00  0.00     0.169 HD
BRANCH  11  13
HETATM   13  C9  UNL     1      20.557   2.041  52.054  1.00  0.00     0.110 A 
HETATM   14  N5  UNL     1      19.566   2.825  52.324  1.00  0.00    -0.246 NA
HETATM   15  C10 UNL     1      18.395   2.301  51.698  1.00  0.00     0.133 A 
HETATM   16  C11 UNL     1      18.665   1.186  51.036  1.00  0.00     0.013 A 
HETATM   17 BR1  UNL     1      17.312   0.230  50.084  1.00  0.00    -0.054 Br
HETATM   18  C12 UNL     1      20.109   0.915  51.210  1.00  0.00     0.126 A 
ENDBRANCH  11  13
ENDBRANCH   8  11
BRANCH   1  19
HETATM   19  N1  UNL     1      26.596   2.699  50.743  1.00  0.00    -0.327 N 
HETATM   20  C2  UNL     1      26.175   3.542  49.707  1.00  0.00     0.218 C 
HETATM   21  C1  UNL     1      27.170   4.411  49.026  1.00  0.00     0.117 C 
HETATM   22  O1  UNL     1      25.012   3.677  49.245  1.00  0.00    -0.274 OA
HETATM   23  H4  UNL     1      27.602   2.670  51.045  1.00  0.00     0.169 HD
ENDBRANCH   1  19
TORSDOF 3
ENDMDL
MODEL 9
REMARK VINA RESULT:      -6.6      4.305      6.581
REMARK  3 active torsions:
REMARK  status: ('A' for Active; 'I' for Inactive)
REMARK       I    between atoms: C2_2  and  N1_4 
REMARK    1  A    between atoms: N1_4  and  C3_5 
REMARK    2  A    between atoms: C8_12  and  N4_13 
REMARK    3  A    between atoms: N4_13  and  C9_14 
ROOT
HETATM    1  C3  UNL     1      24.408   1.446  51.867  1.00  0.00     0.035 A 
HETATM    2  C4  UNL     1      25.057   0.950  52.994  1.00  0.00     0.032 A 
HETATM    3  C5  UNL     1      24.387   0.138  53.916  1.00  0.00     0.035 A 
HETATM    4  C6  UNL     1      23.057  -0.158  53.675  1.00  0.00     0.072 A 
HETATM    5  N2  UNL     1      22.416  -0.930  54.549  1.00  0.00    -0.241 NA
HETATM    6  C7  UNL     1      21.129  -1.250  54.368  1.00  0.00     0.236 A 
HETATM    7  N3  UNL     1      20.449  -0.790  53.282  1.00  0.00    -0.223 NA
HETATM    8  C8  UNL     1      21.089  -0.003  52.383  1.00  0.00     0.143 A 
HETATM    9  C13 UNL     1      22.417   0.337  52.554  1.00  0.00     0.041 A 
HETATM   10  C14 UNL     1      23.083   1.138  51.648  1.00  0.00     0.047 A 
ENDROOT
BRANCH   8  11
HETATM   11  N4  UNL     1      20.357   0.468  51.254  1.00  0.00    -0.328 N 
HETATM   12  H8  UNL     1      20.401  -0.026  50.325  1.00  0.00     0.169 HD
BRANCH  11  13
HETATM   13  C9  UNL     1      19.546   1.631  51.377  1.00  0.00     0.110 A 
HETATM   14  N5  UNL     1      20.033   2.827  51.427  1.00  0.00    -0.246 NA
HETATM   15  C10 UNL     1      18.950   3.749  51.550  1.00  0.00     0.133 A 
HETATM   16  C11 UNL     1      17.786   3.118  51.575  1.00  0.00     0.013 A 
HETATM   17 BR1  UNL     1      16.133   4.063  51.732  1.00  0.00    -0.054 Br
HETATM   18  C12 UNL     1      18.072   1.670  51.463  1.00  0.00     0.126 A 
ENDBRANCH  11  13
ENDBRANCH   8  11
BRANCH   1  19
HETATM   19  N1  UNL     1      25.074   2.269  50.925  1.00  0.00    -0.327 N 
HETATM   20  C2  UNL     1      26.364   2.803  50.816  1.00  0.00     0.218 C 
HETATM   21  C1  UNL     1      26.704   3.651  49.643  1.00  0.00     0.117 C 
HETATM   22  O1  UNL     1      27.330   2.660  51.610  1.00  0.00    -0.274 OA
HETATM   23  H4  UNL     1      24.344   2.459  50.193  1.00  0.00     0.169 HD
ENDBRANCH   1  19
TORSDOF 3
ENDMDL
