MODEL 1
REMARK VINA RESULT:     -10.2      0.000      0.000
REMARK  6 active torsions:
REMARK  status: ('A' for Active; 'I' for Inactive)
REMARK    1  A    between atoms: C2_3  and  C22_25 
REMARK    2  A    between atoms: C3_4  and  C4_5 
REMARK    3  A    between atoms: C6_7  and  S1_8 
REMARK    4  A    between atoms: S1_8  and  C7_9 
REMARK    5  A    between atoms: C13_15  and  O1_16 
REMARK    6  A    between atoms: C14_17  and  C15_18 
REMARK       I    between atoms: C22_25  and  N2_26 
ROOT
HETATM    1  N1  UNL     1      29.158  -1.855  53.536  1.00  0.00    -0.191 NA
HETATM    2  C1  UNL     1      28.635  -0.824  53.335  1.00  0.00     0.104 C 
HETATM    3  C2  UNL     1      27.974   0.445  53.064  1.00  0.00     0.107 C 
HETATM    4  C3  UNL     1      26.904   0.460  52.298  1.00  0.00     0.039 C 
ENDROOT
BRANCH   3   5
HETATM    5  C22 UNL     1      28.611   1.563  53.730  1.00  0.00     0.239 C 
HETATM    6  N2  UNL     1      28.982   2.828  53.204  1.00  0.00    -0.268 NA
HETATM    7  H15 UNL     1      28.766   3.783  53.559  1.00  0.00     0.127 HD
HETATM    8  H16 UNL     1      28.776   3.792  53.543  1.00  0.00     0.127 HD
HETATM    9  O2  UNL     1      28.962   1.623  54.921  1.00  0.00    -0.273 OA
ENDBRANCH   3   5
BRANCH   4  10
HETATM   10  C4  UNL     1      25.964   1.444  51.778  1.00  0.00    -0.032 A 
HETATM   11  C5  UNL     1      24.612   1.317  51.965  1.00  0.00     0.033 A 
HETATM   12  C6  UNL     1      23.693   2.213  51.463  1.00  0.00     0.040 A 
HETATM   13  C13 UNL     1      24.175   3.271  50.748  1.00  0.00     0.093 A 
HETATM   14  C14 UNL     1      25.515   3.460  50.523  1.00  0.00     0.009 A 
HETATM   15  C21 UNL     1      26.392   2.537  51.045  1.00  0.00     0.026 A 
BRANCH  12  16
HETATM   16  S1  UNL     1      21.936   2.056  51.691  1.00  0.00    -0.088 SA
BRANCH  16  17
HETATM   17  C7  UNL     1      21.479   0.682  52.713  1.00  0.00     0.005 A 
HETATM   18  C8  UNL     1      22.348   0.144  53.661  1.00  0.00     0.019 A 
HETATM   19  C9  UNL     1      22.031  -0.921  54.475  1.00  0.00     0.001 A 
HETATM   20  C10 UNL     1      20.776  -1.507  54.362  1.00  0.00     0.000 A 
HETATM   21  C11 UNL     1      19.932  -0.973  53.431  1.00  0.00     0.001 A 
HETATM   22  C12 UNL     1      20.220   0.088  52.605  1.00  0.00     0.019 A 
ENDBRANCH  16  17
ENDBRANCH  12  16
BRANCH  13  23
HETATM   23  O1  UNL     1      23.305   4.207  50.215  1.00  0.00    -0.358 OA
HETATM   24  H8  UNL     1      22.313   4.198  50.257  1.00  0.00     0.217 HD
ENDBRANCH  13  23
BRANCH  14  25
HETATM   25  C15 UNL     1      26.087   4.564  49.771  1.00  0.00    -0.023 A 
HETATM   26  C16 UNL     1      27.252   4.362  49.043  1.00  0.00     0.012 A 
HETATM   27  C17 UNL     1      27.819   5.406  48.314  1.00  0.00     0.001 A 
HETATM   28  C18 UNL     1      27.247   6.662  48.294  1.00  0.00     0.000 A 
HETATM   29  C19 UNL     1      26.082   6.873  49.020  1.00  0.00     0.001 A 
HETATM   30  C20 UNL     1      25.528   5.833  49.738  1.00  0.00     0.012 A 
ENDBRANCH  14  25
ENDBRANCH   4  10
TORSDOF 6
ENDMDL
MODEL 2
REMARK VINA RESULT:      -9.9      3.195      5.867
REMARK  6 active torsions:
REMARK  status: ('A' for Active; 'I' for Inactive)
REMARK    1  A    between atoms: C2_3  and  C22_25 
REMARK    2  A    between atoms: C3_4  and  C4_5 
REMARK    3  A    between atoms: C6_7  and  S1_8 
REMARK    4  A    between atoms: S1_8  and  C7_9 
REMARK    5  A    between atoms: C13_15  and  O1_16 
REMARK    6  A    between atoms: C14_17  and  C15_18 
REMARK       I    between atoms: C22_25  and  N2_26 
ROOT
HETATM    1  N1  UNL     1      23.458   5.200  48.229  1.00  0.00    -0.191 NA
HETATM    2  C1  UNL     1      23.546   4.699  49.286  1.00  0.00     0.104 C 
HETATM    3  C2  UNL     1      23.651   4.054  50.588  1.00  0.00     0.107 C 
HETATM    4  C3  UNL     1      23.885   2.760  50.645  1.00  0.00     0.039 C 
ENDROOT
BRANCH   3   5
HETATM    5  C22 UNL     1      23.498   4.983  51.689  1.00  0.00     0.239 C 
HETATM    6  N2  UNL     1      24.121   6.242  51.893  1.00  0.00    -0.268 NA
HETATM    7  H15 UNL     1      23.692   7.166  52.114  1.00  0.00     0.127 HD
HETATM    8  H16 UNL     1      23.711   7.175  52.114  1.00  0.00     0.127 HD
HETATM    9  O2  UNL     1      22.772   4.846  52.688  1.00  0.00    -0.273 OA
ENDBRANCH   3   5
BRANCH   4  10
HETATM   10  C4  UNL     1      24.058   1.740  51.671  1.00  0.00    -0.032 A 
HETATM   11  C5  UNL     1      22.992   1.223  52.359  1.00  0.00     0.033 A 
HETATM   12  C6  UNL     1      23.122   0.280  53.355  1.00  0.00     0.040 A 
HETATM   13  C13 UNL     1      24.384  -0.147  53.654  1.00  0.00     0.093 A 
HETATM   14  C14 UNL     1      25.496   0.327  53.005  1.00  0.00     0.009 A 
HETATM   15  C21 UNL     1      25.312   1.269  52.018  1.00  0.00     0.026 A 
BRANCH  12  16
HETATM   16  S1  UNL     1      21.748  -0.394  54.261  1.00  0.00    -0.088 SA
BRANCH  16  17
HETATM   17  C7  UNL     1      20.246  -0.452  53.323  1.00  0.00     0.005 A 
HETATM   18  C8  UNL     1      20.082   0.272  52.143  1.00  0.00     0.019 A 
HETATM   19  C9  UNL     1      18.933   0.253  51.384  1.00  0.00     0.001 A 
HETATM   20  C10 UNL     1      17.863  -0.528  51.801  1.00  0.00     0.000 A 
HETATM   21  C11 UNL     1      18.032  -1.234  52.957  1.00  0.00     0.001 A 
HETATM   22  C12 UNL     1      19.165  -1.235  53.735  1.00  0.00     0.019 A 
ENDBRANCH  16  17
ENDBRANCH  12  16
BRANCH  13  23
HETATM   23  O1  UNL     1      24.584  -1.092  54.645  1.00  0.00    -0.358 OA
HETATM   24  H8  UNL     1      24.169  -1.117  55.546  1.00  0.00     0.217 HD
ENDBRANCH  13  23
BRANCH  14  25
HETATM   25  C15 UNL     1      26.861  -0.087  53.278  1.00  0.00    -0.023 A 
HETATM   26  C16 UNL     1      27.696   0.754  54.002  1.00  0.00     0.012 A 
HETATM   27  C17 UNL     1      29.011   0.377  54.276  1.00  0.00     0.001 A 
HETATM   28  C18 UNL     1      29.518  -0.830  53.841  1.00  0.00     0.000 A 
HETATM   29  C19 UNL     1      28.690  -1.676  53.116  1.00  0.00     0.001 A 
HETATM   30  C20 UNL     1      27.390  -1.295  52.850  1.00  0.00     0.012 A 
ENDBRANCH  14  25
ENDBRANCH   4  10
TORSDOF 6
ENDMDL
MODEL 3
REMARK VINA RESULT:      -9.6      3.116      7.238
REMARK  6 active torsions:
REMARK  status: ('A' for Active; 'I' for Inactive)
REMARK    1  A    between atoms: C2_3  and  C22_25 
REMARK    2  A    between atoms: C3_4  and  C4_5 
REMARK    3  A    between atoms: C6_7  and  S1_8 
REMARK    4  A    between atoms: S1_8  and  C7_9 
REMARK    5  A    between atoms: C13_15  and  O1_16 
REMARK    6  A    between atoms: C14_17  and  C15_18 
REMARK       I    between atoms: C22_25  and  N2_26 
ROOT
HETATM    1  N1  UNL     1      25.785   5.686  48.858  1.00  0.00    -0.191 NA
HETATM    2  C1  UNL     1      25.204   5.122  49.707  1.00  0.00     0.104 C 
HETATM    3  C2  UNL     1      24.485   4.399  50.747  1.00  0.00     0.107 C 
HETATM    4  C3  UNL     1      24.553   3.085  50.779  1.00  0.00     0.039 C 
ENDROOT
BRANCH   3   5
HETATM    5  C22 UNL     1      23.779   5.280  51.657  1.00  0.00     0.239 C 
HETATM    6  N2  UNL     1      24.239   6.458  52.301  1.00  0.00    -0.268 NA
HETATM    7  H15 UNL     1      23.809   7.407  52.333  1.00  0.00     0.127 HD
HETATM    8  H16 UNL     1      23.825   7.414  52.345  1.00  0.00     0.127 HD
HETATM    9  O2  UNL     1      22.608   5.162  52.054  1.00  0.00    -0.273 OA
ENDBRANCH   3   5
BRANCH   4  10
HETATM   10  C4  UNL     1      24.024   1.998  51.593  1.00  0.00    -0.032 A 
HETATM   11  C5  UNL     1      24.824   1.283  52.445  1.00  0.00     0.033 A 
HETATM   12  C6  UNL     1      24.364   0.231  53.206  1.00  0.00     0.040 A 
HETATM   13  C13 UNL     1      23.045  -0.098  53.090  1.00  0.00     0.093 A 
HETATM   14  C14 UNL     1      22.187   0.575  52.257  1.00  0.00     0.009 A 
HETATM   15  C21 UNL     1      22.696   1.618  51.517  1.00  0.00     0.026 A 
BRANCH  12  16
HETATM   16  S1  UNL     1      25.392  -0.711  54.311  1.00  0.00    -0.088 SA
BRANCH  16  17
HETATM   17  C7  UNL     1      27.126  -0.461  54.045  1.00  0.00     0.005 A 
HETATM   18  C8  UNL     1      27.897  -1.353  53.301  1.00  0.00     0.019 A 
HETATM   19  C9  UNL     1      29.245  -1.194  53.069  1.00  0.00     0.001 A 
HETATM   20  C10 UNL     1      29.894  -0.085  53.599  1.00  0.00     0.000 A 
HETATM   21  C11 UNL     1      29.132   0.783  54.325  1.00  0.00     0.001 A 
HETATM   22  C12 UNL     1      27.786   0.651  54.573  1.00  0.00     0.019 A 
ENDBRANCH  16  17
ENDBRANCH  12  16
BRANCH  13  23
HETATM   23  O1  UNL     1      22.519  -1.147  53.826  1.00  0.00    -0.358 OA
HETATM   24  H8  UNL     1      21.584  -1.477  53.819  1.00  0.00     0.217 HD
ENDBRANCH  13  23
BRANCH  14  25
HETATM   25  C15 UNL     1      20.777   0.272  52.090  1.00  0.00    -0.023 A 
HETATM   26  C16 UNL     1      20.149   0.586  50.892  1.00  0.00     0.012 A 
HETATM   27  C17 UNL     1      18.796   0.304  50.709  1.00  0.00     0.001 A 
HETATM   28  C18 UNL     1      18.044  -0.287  51.704  1.00  0.00     0.000 A 
HETATM   29  C19 UNL     1      18.664  -0.604  52.905  1.00  0.00     0.001 A 
HETATM   30  C20 UNL     1      20.004  -0.322  53.077  1.00  0.00     0.012 A 
ENDBRANCH  14  25
ENDBRANCH   4  10
TORSDOF 6
ENDMDL
MODEL 4
REMARK VINA RESULT:      -9.4      1.628      6.620
REMARK  6 active torsions:
REMARK  status: ('A' for Active; 'I' for Inactive)
REMARK    1  A    between atoms: C2_3  and  C22_25 
REMARK    2  A    between atoms: C3_4  and  C4_5 
REMARK    3  A    between atoms: C6_7  and  S1_8 
REMARK    4  A    between atoms: S1_8  and  C7_9 
REMARK    5  A    between atoms: C13_15  and  O1_16 
REMARK    6  A    between atoms: C14_17  and  C15_18 
REMARK       I    between atoms: C22_25  and  N2_26 
ROOT
HETATM    1  N1  UNL     1      28.007  -1.815  53.157  1.00  0.00    -0.191 NA
HETATM    2  C1  UNL     1      27.334  -0.858  53.062  1.00  0.00     0.104 C 
HETATM    3  C2  UNL     1      26.482   0.315  52.931  1.00  0.00     0.107 C 
HETATM    4  C3  UNL     1      25.196   0.151  52.701  1.00  0.00     0.039 C 
ENDROOT
BRANCH   3   5
HETATM    5  C22 UNL     1      27.206   1.558  53.106  1.00  0.00     0.239 C 
HETATM    6  N2  UNL     1      27.633   2.493  52.127  1.00  0.00    -0.268 NA
HETATM    7  H15 UNL     1      27.485   3.524  52.086  1.00  0.00     0.127 HD
HETATM    8  H16 UNL     1      27.496   3.525  52.068  1.00  0.00     0.127 HD
HETATM    9  O2  UNL     1      27.601   2.050  54.178  1.00  0.00    -0.273 OA
ENDBRANCH   3   5
BRANCH   4  10
HETATM   10  C4  UNL     1      24.020   0.989  52.505  1.00  0.00    -0.032 A 
HETATM   11  C5  UNL     1      24.118   2.351  52.397  1.00  0.00     0.033 A 
HETATM   12  C6  UNL     1      23.025   3.176  52.240  1.00  0.00     0.040 A 
HETATM   13  C13 UNL     1      21.796   2.586  52.193  1.00  0.00     0.093 A 
HETATM   14  C14 UNL     1      21.624   1.228  52.295  1.00  0.00     0.009 A 
HETATM   15  C21 UNL     1      22.748   0.448  52.450  1.00  0.00     0.026 A 
BRANCH  12  16
HETATM   16  S1  UNL     1      23.136   4.946  52.106  1.00  0.00    -0.088 SA
BRANCH  16  17
HETATM   17  C7  UNL     1      24.362   5.489  50.947  1.00  0.00     0.005 A 
HETATM   18  C8  UNL     1      25.065   4.595  50.141  1.00  0.00     0.019 A 
HETATM   19  C9  UNL     1      26.022   4.976  49.227  1.00  0.00     0.001 A 
HETATM   20  C10 UNL     1      26.320   6.326  49.085  1.00  0.00     0.000 A 
HETATM   21  C11 UNL     1      25.627   7.194  49.878  1.00  0.00     0.001 A 
HETATM   22  C12 UNL     1      24.666   6.844  50.798  1.00  0.00     0.019 A 
ENDBRANCH  16  17
ENDBRANCH  12  16
BRANCH  13  23
HETATM   23  O1  UNL     1      20.656   3.357  52.039  1.00  0.00    -0.358 OA
HETATM   24  H8  UNL     1      20.461   4.003  51.311  1.00  0.00     0.217 HD
ENDBRANCH  13  23
BRANCH  14  25
HETATM   25  C15 UNL     1      20.345   0.543  52.252  1.00  0.00    -0.023 A 
HETATM   26  C16 UNL     1      19.963  -0.256  53.322  1.00  0.00     0.012 A 
HETATM   27  C17 UNL     1      18.739  -0.923  53.303  1.00  0.00     0.001 A 
HETATM   28  C18 UNL     1      17.877  -0.813  52.232  1.00  0.00     0.000 A 
HETATM   29  C19 UNL     1      18.251  -0.017  51.158  1.00  0.00     0.001 A 
HETATM   30  C20 UNL     1      19.464   0.640  51.185  1.00  0.00     0.012 A 
ENDBRANCH  14  25
ENDBRANCH   4  10
TORSDOF 6
ENDMDL
MODEL 5
REMARK VINA RESULT:      -9.2      1.564      6.648
REMARK  6 active torsions:
REMARK  status: ('A' for Active; 'I' for Inactive)
REMARK    1  A    between atoms: C2_3  and  C22_25 
REMARK    2  A    between atoms: C3_4  and  C4_5 
REMARK    3  A    between atoms: C6_7  and  S1_8 
REMARK    4  A    between atoms: S1_8  and  C7_9 
REMARK    5  A    between atoms: C13_15  and  O1_16 
REMARK    6  A    between atoms: C14_17  and  C15_18 
REMARK       I    between atoms: C22_25  and  N2_26 
ROOT
HETATM    1  N1  UNL     1      29.446  -0.837  53.278  1.00  0.00    -0.191 NA
HETATM    2  C1  UNL     1      28.383  -0.343  53.321  1.00  0.00     0.104 C 
HETATM    3  C2  UNL     1      27.069   0.285  53.355  1.00  0.00     0.107 C 
HETATM    4  C3  UNL     1      26.606   0.860  52.265  1.00  0.00     0.039 C 
ENDROOT
BRANCH   3   5
HETATM    5  C22 UNL     1      26.419   0.158  54.644  1.00  0.00     0.239 C 
HETATM    6  N2  UNL     1      25.631  -0.908  55.150  1.00  0.00    -0.268 NA
HETATM    7  H15 UNL     1      25.718  -1.429  56.048  1.00  0.00     0.127 HD
HETATM    8  H16 UNL     1      25.701  -1.441  56.043  1.00  0.00     0.127 HD
HETATM    9  O2  UNL     1      26.430   0.985  55.571  1.00  0.00    -0.273 OA
ENDBRANCH   3   5
BRANCH   4  10
HETATM   10  C4  UNL     1      25.407   1.578  51.852  1.00  0.00    -0.032 A 
HETATM   11  C5  UNL     1      25.475   2.824  51.286  1.00  0.00     0.033 A 
HETATM   12  C6  UNL     1      24.361   3.543  50.910  1.00  0.00     0.040 A 
HETATM   13  C13 UNL     1      23.142   2.967  51.120  1.00  0.00     0.093 A 
HETATM   14  C14 UNL     1      23.001   1.723  51.682  1.00  0.00     0.009 A 
HETATM   15  C21 UNL     1      24.145   1.046  52.040  1.00  0.00     0.026 A 
BRANCH  12  16
HETATM   16  S1  UNL     1      24.433   5.164  50.182  1.00  0.00    -0.088 SA
BRANCH  16  17
HETATM   17  C7  UNL     1      25.984   5.517  49.401  1.00  0.00     0.005 A 
HETATM   18  C8  UNL     1      26.918   4.520  49.127  1.00  0.00     0.019 A 
HETATM   19  C9  UNL     1      28.132   4.751  48.520  1.00  0.00     0.001 A 
HETATM   20  C10 UNL     1      28.466   6.049  48.151  1.00  0.00     0.000 A 
HETATM   21  C11 UNL     1      27.545   7.019  48.423  1.00  0.00     0.001 A 
HETATM   22  C12 UNL     1      26.326   6.819  49.026  1.00  0.00     0.019 A 
ENDBRANCH  16  17
ENDBRANCH  12  16
BRANCH  13  23
HETATM   23  O1  UNL     1      21.983   3.637  50.766  1.00  0.00    -0.358 OA
HETATM   24  H8  UNL     1      21.543   4.378  51.257  1.00  0.00     0.217 HD
ENDBRANCH  13  23
BRANCH  14  25
HETATM   25  C15 UNL     1      21.733   1.059  51.930  1.00  0.00    -0.023 A 
HETATM   26  C16 UNL     1      21.491   0.497  53.177  1.00  0.00     0.012 A 
HETATM   27  C17 UNL     1      20.282  -0.146  53.439  1.00  0.00     0.001 A 
HETATM   28  C18 UNL     1      19.298  -0.244  52.477  1.00  0.00     0.000 A 
HETATM   29  C19 UNL     1      19.531   0.315  51.228  1.00  0.00     0.001 A 
HETATM   30  C20 UNL     1      20.731   0.949  50.978  1.00  0.00     0.012 A 
ENDBRANCH  14  25
ENDBRANCH   4  10
TORSDOF 6
ENDMDL
MODEL 6
REMARK VINA RESULT:      -9.2      2.134      2.750
REMARK  6 active torsions:
REMARK  status: ('A' for Active; 'I' for Inactive)
REMARK    1  A    between atoms: C2_3  and  C22_25 
REMARK    2  A    between atoms: C3_4  and  C4_5 
REMARK    3  A    between atoms: C6_7  and  S1_8 
REMARK    4  A    between atoms: S1_8  and  C7_9 
REMARK    5  A    between atoms: C13_15  and  O1_16 
REMARK    6  A    between atoms: C14_17  and  C15_18 
REMARK       I    between atoms: C22_25  and  N2_26 
ROOT
HETATM    1  N1  UNL     1      25.469  -0.940  56.028  1.00  0.00    -0.191 NA
HETATM    2  C1  UNL     1      25.427  -0.575  54.914  1.00  0.00     0.104 C 
HETATM    3  C2  UNL     1      25.349  -0.116  53.534  1.00  0.00     0.107 C 
HETATM    4  C3  UNL     1      24.389   0.715  53.188  1.00  0.00     0.039 C 
ENDROOT
BRANCH   3   5
HETATM    5  C22 UNL     1      26.410  -0.650  52.704  1.00  0.00     0.239 C 
HETATM    6  N2  UNL     1      26.635  -1.988  52.286  1.00  0.00    -0.268 NA
HETATM    7  H15 UNL     1      26.795  -2.366  51.328  1.00  0.00     0.127 HD
HETATM    8  H16 UNL     1      26.797  -2.385  51.336  1.00  0.00     0.127 HD
HETATM    9  O2  UNL     1      27.348  -0.017  52.189  1.00  0.00    -0.273 OA
ENDBRANCH   3   5
BRANCH   4  10
HETATM   10  C4  UNL     1      23.940   1.403  51.984  1.00  0.00    -0.032 A 
HETATM   11  C5  UNL     1      22.739   1.110  51.394  1.00  0.00     0.033 A 
HETATM   12  C6  UNL     1      22.297   1.720  50.240  1.00  0.00     0.040 A 
HETATM   13  C13 UNL     1      23.110   2.658  49.675  1.00  0.00     0.093 A 
HETATM   14  C14 UNL     1      24.325   3.001  50.213  1.00  0.00     0.009 A 
HETATM   15  C21 UNL     1      24.721   2.362  51.366  1.00  0.00     0.026 A 
BRANCH  12  16
HETATM   16  S1  UNL     1      20.744   1.344  49.459  1.00  0.00    -0.088 SA
BRANCH  16  17
HETATM   17  C7  UNL     1      19.558   0.622  50.560  1.00  0.00     0.005 A 
HETATM   18  C8  UNL     1      19.905   0.183  51.836  1.00  0.00     0.019 A 
HETATM   19  C9  UNL     1      19.015  -0.381  52.723  1.00  0.00     0.001 A 
HETATM   20  C10 UNL     1      17.687  -0.531  52.341  1.00  0.00     0.000 A 
HETATM   21  C11 UNL     1      17.356  -0.099  51.089  1.00  0.00     0.001 A 
HETATM   22  C12 UNL     1      18.221   0.468  50.184  1.00  0.00     0.019 A 
ENDBRANCH  16  17
ENDBRANCH  12  16
BRANCH  13  23
HETATM   23  O1  UNL     1      22.726   3.308  48.514  1.00  0.00    -0.358 OA
HETATM   24  H8  UNL     1      22.845   4.268  48.295  1.00  0.00     0.217 HD
ENDBRANCH  13  23
BRANCH  14  25
HETATM   25  C15 UNL     1      25.234   3.989  49.658  1.00  0.00    -0.023 A 
HETATM   26  C16 UNL     1      26.541   3.624  49.363  1.00  0.00     0.012 A 
HETATM   27  C17 UNL     1      27.431   4.557  48.831  1.00  0.00     0.001 A 
HETATM   28  C18 UNL     1      27.045   5.858  48.583  1.00  0.00     0.000 A 
HETATM   29  C19 UNL     1      25.740   6.231  48.876  1.00  0.00     0.001 A 
HETATM   30  C20 UNL     1      24.867   5.302  49.402  1.00  0.00     0.012 A 
ENDBRANCH  14  25
ENDBRANCH   4  10
TORSDOF 6
ENDMDL
MODEL 7
REMARK VINA RESULT:      -9.1      2.574      7.073
REMARK  6 active torsions:
REMARK  status: ('A' for Active; 'I' for Inactive)
REMARK    1  A    between atoms: C2_3  and  C22_25 
REMARK    2  A    between atoms: C3_4  and  C4_5 
REMARK    3  A    between atoms: C6_7  and  S1_8 
REMARK    4  A    between atoms: S1_8  and  C7_9 
REMARK    5  A    between atoms: C13_15  and  O1_16 
REMARK    6  A    between atoms: C14_17  and  C15_18 
REMARK       I    between atoms: C22_25  and  N2_26 
ROOT
HETATM    1  N1  UNL     1      27.555  -1.559  53.236  1.00  0.00    -0.191 NA
HETATM    2  C1  UNL     1      26.488  -1.116  53.442  1.00  0.00     0.104 C 
HETATM    3  C2  UNL     1      25.169  -0.547  53.679  1.00  0.00     0.107 C 
HETATM    4  C3  UNL     1      24.635   0.237  52.767  1.00  0.00     0.039 C 
ENDROOT
BRANCH   3   5
HETATM    5  C22 UNL     1      24.595  -0.967  54.942  1.00  0.00     0.239 C 
HETATM    6  N2  UNL     1      25.242  -1.223  56.180  1.00  0.00    -0.268 NA
HETATM    7  H15 UNL     1      25.026  -0.852  57.130  1.00  0.00     0.127 HD
HETATM    8  H16 UNL     1      25.042  -0.863  57.138  1.00  0.00     0.127 HD
HETATM    9  O2  UNL     1      23.396  -1.189  55.183  1.00  0.00    -0.273 OA
ENDBRANCH   3   5
BRANCH   4  10
HETATM   10  C4  UNL     1      23.403   0.993  52.582  1.00  0.00    -0.032 A 
HETATM   11  C5  UNL     1      23.407   2.358  52.470  1.00  0.00     0.033 A 
HETATM   12  C6  UNL     1      22.260   3.107  52.324  1.00  0.00     0.040 A 
HETATM   13  C13 UNL     1      21.073   2.436  52.292  1.00  0.00     0.093 A 
HETATM   14  C14 UNL     1      20.994   1.070  52.399  1.00  0.00     0.009 A 
HETATM   15  C21 UNL     1      22.170   0.368  52.543  1.00  0.00     0.026 A 
BRANCH  12  16
HETATM   16  S1  UNL     1      22.250   4.881  52.184  1.00  0.00    -0.088 SA
BRANCH  16  17
HETATM   17  C7  UNL     1      23.442   5.503  51.030  1.00  0.00     0.005 A 
HETATM   18  C8  UNL     1      24.251   6.600  51.321  1.00  0.00     0.019 A 
HETATM   19  C9  UNL     1      25.190   7.113  50.454  1.00  0.00     0.001 A 
HETATM   20  C10 UNL     1      25.356   6.516  49.210  1.00  0.00     0.000 A 
HETATM   21  C11 UNL     1      24.560   5.442  48.934  1.00  0.00     0.001 A 
HETATM   22  C12 UNL     1      23.616   4.908  49.778  1.00  0.00     0.019 A 
ENDBRANCH  16  17
ENDBRANCH  12  16
BRANCH  13  23
HETATM   23  O1  UNL     1      19.882   3.129  52.149  1.00  0.00    -0.358 OA
HETATM   24  H8  UNL     1      19.768   4.100  51.978  1.00  0.00     0.217 HD
ENDBRANCH  13  23
BRANCH  14  25
HETATM   25  C15 UNL     1      19.763   0.300  52.372  1.00  0.00    -0.023 A 
HETATM   26  C16 UNL     1      19.482  -0.573  53.415  1.00  0.00     0.012 A 
HETATM   27  C17 UNL     1      18.306  -1.322  53.411  1.00  0.00     0.001 A 
HETATM   28  C18 UNL     1      17.394  -1.222  52.381  1.00  0.00     0.000 A 
HETATM   29  C19 UNL     1      17.667  -0.351  51.334  1.00  0.00     0.001 A 
HETATM   30  C20 UNL     1      18.833   0.386  51.346  1.00  0.00     0.012 A 
ENDBRANCH  14  25
ENDBRANCH   4  10
TORSDOF 6
ENDMDL
MODEL 8
REMARK VINA RESULT:      -9.1      3.811      6.957
REMARK  6 active torsions:
REMARK  status: ('A' for Active; 'I' for Inactive)
REMARK    1  A    between atoms: C2_3  and  C22_25 
REMARK    2  A    between atoms: C3_4  and  C4_5 
REMARK    3  A    between atoms: C6_7  and  S1_8 
REMARK    4  A    between atoms: S1_8  and  C7_9 
REMARK    5  A    between atoms: C13_15  and  O1_16 
REMARK    6  A    between atoms: C14_17  and  C15_18 
REMARK       I    between atoms: C22_25  and  N2_26 
ROOT
HETATM    1  N1  UNL     1      30.072   6.443  47.274  1.00  0.00    -0.191 NA
HETATM    2  C1  UNL     1      29.066   6.220  47.834  1.00  0.00     0.104 C 
HETATM    3  C2  UNL     1      27.818   5.920  48.521  1.00  0.00     0.107 C 
HETATM    4  C3  UNL     1      27.536   4.669  48.821  1.00  0.00     0.039 C 
ENDROOT
BRANCH   3   5
HETATM    5  C22 UNL     1      27.036   7.105  48.811  1.00  0.00     0.239 C 
HETATM    6  N2  UNL     1      26.956   7.854  50.014  1.00  0.00    -0.268 NA
HETATM    7  H15 UNL     1      27.073   8.879  50.166  1.00  0.00     0.127 HD
HETATM    8  H16 UNL     1      27.069   8.876  50.187  1.00  0.00     0.127 HD
HETATM    9  O2  UNL     1      26.269   7.703  48.037  1.00  0.00    -0.273 OA
ENDBRANCH   3   5
BRANCH   4  10
HETATM   10  C4  UNL     1      26.459   3.932  49.469  1.00  0.00    -0.032 A 
HETATM   11  C5  UNL     1      25.148   4.112  49.114  1.00  0.00     0.033 A 
HETATM   12  C6  UNL     1      24.103   3.454  49.725  1.00  0.00     0.040 A 
HETATM   13  C13 UNL     1      24.412   2.586  50.731  1.00  0.00     0.093 A 
HETATM   14  C14 UNL     1      25.702   2.358  51.139  1.00  0.00     0.009 A 
HETATM   15  C21 UNL     1      26.710   3.040  50.496  1.00  0.00     0.026 A 
BRANCH  12  16
HETATM   16  S1  UNL     1      22.397   3.683  49.278  1.00  0.00    -0.088 SA
BRANCH  16  17
HETATM   17  C7  UNL     1      22.176   4.279  47.624  1.00  0.00     0.005 A 
HETATM   18  C8  UNL     1      21.847   3.429  46.570  1.00  0.00     0.019 A 
HETATM   19  C9  UNL     1      21.665   3.851  45.271  1.00  0.00     0.001 A 
HETATM   20  C10 UNL     1      21.812   5.200  44.974  1.00  0.00     0.000 A 
HETATM   21  C11 UNL     1      22.134   6.026  46.013  1.00  0.00     0.001 A 
HETATM   22  C12 UNL     1      22.322   5.634  47.317  1.00  0.00     0.019 A 
ENDBRANCH  16  17
ENDBRANCH  12  16
BRANCH  13  23
HETATM   23  O1  UNL     1      23.408   1.894  51.388  1.00  0.00    -0.358 OA
HETATM   24  H8  UNL     1      23.375   1.653  52.350  1.00  0.00     0.217 HD
ENDBRANCH  13  23
BRANCH  14  25
HETATM   25  C15 UNL     1      26.092   1.448  52.202  1.00  0.00    -0.023 A 
HETATM   26  C16 UNL     1      26.528   0.170  51.880  1.00  0.00     0.012 A 
HETATM   27  C17 UNL     1      26.908  -0.720  52.884  1.00  0.00     0.001 A 
HETATM   28  C18 UNL     1      26.862  -0.364  54.216  1.00  0.00     0.000 A 
HETATM   29  C19 UNL     1      26.427   0.913  54.547  1.00  0.00     0.001 A 
HETATM   30  C20 UNL     1      26.053   1.787  53.547  1.00  0.00     0.012 A 
ENDBRANCH  14  25
ENDBRANCH   4  10
TORSDOF 6
ENDMDL
MODEL 9
REMARK VINA RESULT:      -9.1      3.465      6.068
REMARK  6 active torsions:
REMARK  status: ('A' for Active; 'I' for Inactive)
REMARK    1  A    between atoms: C2_3  and  C22_25 
REMARK    2  A    between atoms: C3_4  and  C4_5 
REMARK    3  A    between atoms: C6_7  and  S1_8 
REMARK    4  A    between atoms: S1_8  and  C7_9 
REMARK    5  A    between atoms: C13_15  and  O1_16 
REMARK    6  A    between atoms: C14_17  and  C15_18 
REMARK       I    between atoms: C22_25  and  N2_26 
ROOT
HETATM    1  N1  UNL     1      18.555   0.568  50.079  1.00  0.00    -0.191 NA
HETATM    2  C1  UNL     1      19.533   1.199  50.231  1.00  0.00     0.104 C 
HETATM    3  C2  UNL     1      20.754   1.964  50.437  1.00  0.00     0.107 C 
HETATM    4  C3  UNL     1      21.806   1.366  50.954  1.00  0.00     0.039 C 
ENDROOT
BRANCH   3   5
HETATM    5  C22 UNL     1      20.635   3.340  49.998  1.00  0.00     0.239 C 
HETATM    6  N2  UNL     1      20.600   4.529  50.773  1.00  0.00    -0.268 NA
HETATM    7  H15 UNL     1      21.169   5.397  50.682  1.00  0.00     0.127 HD
HETATM    8  H16 UNL     1      21.159   5.406  50.698  1.00  0.00     0.127 HD
HETATM    9  O2  UNL     1      20.539   3.747  48.828  1.00  0.00    -0.273 OA
ENDBRANCH   3   5
BRANCH   4  10
HETATM   10  C4  UNL     1      23.172   1.715  51.324  1.00  0.00    -0.032 A 
HETATM   11  C5  UNL     1      23.799   1.131  52.393  1.00  0.00     0.033 A 
HETATM   12  C6  UNL     1      25.078   1.458  52.787  1.00  0.00     0.040 A 
HETATM   13  C13 UNL     1      25.734   2.411  52.064  1.00  0.00     0.093 A 
HETATM   14  C14 UNL     1      25.167   3.036  50.982  1.00  0.00     0.009 A 
HETATM   15  C21 UNL     1      23.886   2.674  50.629  1.00  0.00     0.026 A 
BRANCH  12  16
HETATM   16  S1  UNL     1      25.902   0.714  54.178  1.00  0.00    -0.088 SA
BRANCH  16  17
HETATM   17  C7  UNL     1      27.167  -0.436  53.714  1.00  0.00     0.005 A 
HETATM   18  C8  UNL     1      26.885  -1.595  52.992  1.00  0.00     0.019 A 
HETATM   19  C9  UNL     1      27.839  -2.512  52.610  1.00  0.00     0.001 A 
HETATM   20  C10 UNL     1      29.166  -2.289  52.955  1.00  0.00     0.000 A 
HETATM   21  C11 UNL     1      29.433  -1.152  53.662  1.00  0.00     0.001 A 
HETATM   22  C12 UNL     1      28.504  -0.219  54.056  1.00  0.00     0.019 A 
ENDBRANCH  16  17
ENDBRANCH  12  16
BRANCH  13  23
HETATM   23  O1  UNL     1      27.021   2.787  52.409  1.00  0.00    -0.358 OA
HETATM   24  H8  UNL     1      27.828   2.211  52.438  1.00  0.00     0.217 HD
ENDBRANCH  13  23
BRANCH  14  25
HETATM   25  C15 UNL     1      25.812   4.057  50.175  1.00  0.00    -0.023 A 
HETATM   26  C16 UNL     1      26.931   3.724  49.423  1.00  0.00     0.012 A 
HETATM   27  C17 UNL     1      27.568   4.687  48.641  1.00  0.00     0.001 A 
HETATM   28  C18 UNL     1      27.111   5.988  48.591  1.00  0.00     0.000 A 
HETATM   29  C19 UNL     1      25.993   6.329  49.339  1.00  0.00     0.001 A 
HETATM   30  C20 UNL     1      25.369   5.370  50.110  1.00  0.00     0.012 A 
ENDBRANCH  14  25
ENDBRANCH   4  10
TORSDOF 6
ENDMDL
