MODEL 1
REMARK VINA RESULT:      -9.2      0.000      0.000
REMARK  5 active torsions:
REMARK  status: ('A' for Active; 'I' for Inactive)
REMARK    1  A    between atoms: C4_4  and  C5_5 
REMARK    2  A    between atoms: C5_5  and  N1_6 
REMARK    3  A    between atoms: N1_6  and  C6_7 
REMARK    4  A    between atoms: C11_14  and  N4_15 
REMARK    5  A    between atoms: N4_15  and  C12_16 
ROOT
HETATM    1  C6  UNL     1      24.955  -0.422  53.514  1.00  0.00     0.029 A 
HETATM    2  C7  UNL     1      23.776  -0.698  54.167  1.00  0.00     0.031 A 
HETATM    3  C8  UNL     1      22.663   0.022  53.849  1.00  0.00     0.035 A 
HETATM    4  C9  UNL     1      22.735   1.005  52.888  1.00  0.00     0.072 A 
HETATM    5  N2  UNL     1      21.592   1.696  52.607  1.00  0.00    -0.241 NA
HETATM    6  C10 UNL     1      21.603   2.667  51.679  1.00  0.00     0.236 A 
HETATM    7  N3  UNL     1      22.733   2.950  51.035  1.00  0.00    -0.224 NA
HETATM    8  C11 UNL     1      23.883   2.330  51.247  1.00  0.00     0.142 A 
HETATM    9  C18 UNL     1      23.877   1.336  52.196  1.00  0.00     0.041 A 
HETATM   10  C19 UNL     1      24.961   0.574  52.563  1.00  0.00     0.046 A 
ENDROOT
BRANCH   8  11
HETATM   11  N4  UNL     1      25.095   2.617  50.572  1.00  0.00    -0.340 N 
HETATM   12  H10 UNL     1      25.847   1.908  50.478  1.00  0.00     0.167 HD
BRANCH  11  13
HETATM   13  C12 UNL     1      25.512   3.796  49.946  1.00  0.00     0.035 A 
HETATM   14  C13 UNL     1      24.749   4.953  49.790  1.00  0.00     0.029 A 
HETATM   15  C14 UNL     1      25.175   6.097  49.177  1.00  0.00     0.004 A 
HETATM   16  C15 UNL     1      26.434   6.176  48.656  1.00  0.00     0.024 A 
HETATM   17  C16 UNL     1      27.231   5.062  48.782  1.00  0.00     0.036 A 
HETATM   18 CL1  UNL     1      28.846   5.218  48.093  1.00  0.00    -0.084 Cl
HETATM   19  C17 UNL     1      26.761   3.940  49.404  1.00  0.00     0.053 A 
ENDBRANCH  11  13
ENDBRANCH   8  11
BRANCH   1  20
HETATM   20  N1  UNL     1      26.131  -1.163  53.827  1.00  0.00    -0.386 N 
HETATM   21  H6  UNL     1      26.200  -1.580  54.783  1.00  0.00     0.160 HD
BRANCH  20  22
HETATM   22  C5  UNL     1      27.188  -1.335  52.867  1.00  0.00     0.151 C 
BRANCH  22  23
HETATM   23  C4  UNL     1      28.402  -0.636  53.406  1.00  0.00    -0.065 A 
HETATM   24  C3  UNL     1      29.624  -0.137  53.459  1.00  0.00     0.023 A 
HETATM   25  C2  UNL     1      29.075   1.005  53.759  1.00  0.00    -0.086 A 
HETATM   26  C20 UNL     1      28.592  -0.002  54.740  1.00  0.00     0.074 A 
HETATM   27  C1  UNL     1      28.783   2.462  53.615  1.00  0.00     0.040 C 
ENDBRANCH  22  23
ENDBRANCH  20  22
ENDBRANCH   1  20
TORSDOF 5
ENDMDL
MODEL 2
REMARK VINA RESULT:      -9.1      1.272      1.613
REMARK  5 active torsions:
REMARK  status: ('A' for Active; 'I' for Inactive)
REMARK    1  A    between atoms: C4_4  and  C5_5 
REMARK    2  A    between atoms: C5_5  and  N1_6 
REMARK    3  A    between atoms: N1_6  and  C6_7 
REMARK    4  A    between atoms: C11_14  and  N4_15 
REMARK    5  A    between atoms: N4_15  and  C12_16 
ROOT
HETATM    1  C6  UNL     1      24.124  -0.173  53.352  1.00  0.00     0.029 A 
HETATM    2  C7  UNL     1      22.918  -0.830  53.440  1.00  0.00     0.031 A 
HETATM    3  C8  UNL     1      21.772  -0.142  53.172  1.00  0.00     0.035 A 
HETATM    4  C9  UNL     1      21.837   1.187  52.822  1.00  0.00     0.072 A 
HETATM    5  N2  UNL     1      20.661   1.828  52.564  1.00  0.00    -0.241 NA
HETATM    6  C10 UNL     1      20.663   3.127  52.217  1.00  0.00     0.236 A 
HETATM    7  N3  UNL     1      21.818   3.782  52.126  1.00  0.00    -0.224 NA
HETATM    8  C11 UNL     1      23.001   3.236  52.359  1.00  0.00     0.142 A 
HETATM    9  C18 UNL     1      23.004   1.909  52.714  1.00  0.00     0.041 A 
HETATM   10  C19 UNL     1      24.122   1.158  52.996  1.00  0.00     0.046 A 
ENDROOT
BRANCH   8  11
HETATM   11  N4  UNL     1      24.240   3.917  52.267  1.00  0.00    -0.340 N 
HETATM   12  H10 UNL     1      24.693   4.338  53.101  1.00  0.00     0.167 HD
BRANCH  11  13
HETATM   13  C12 UNL     1      25.051   4.152  51.152  1.00  0.00     0.035 A 
HETATM   14  C13 UNL     1      26.016   3.283  50.645  1.00  0.00     0.029 A 
HETATM   15  C14 UNL     1      26.798   3.530  49.551  1.00  0.00     0.004 A 
HETATM   16  C15 UNL     1      26.671   4.700  48.860  1.00  0.00     0.024 A 
HETATM   17  C16 UNL     1      25.732   5.596  49.318  1.00  0.00     0.036 A 
HETATM   18 CL1  UNL     1      25.610   7.088  48.389  1.00  0.00    -0.084 Cl
HETATM   19  C17 UNL     1      24.973   5.304  50.416  1.00  0.00     0.053 A 
ENDBRANCH  11  13
ENDBRANCH   8  11
BRANCH   1  20
HETATM   20  N1  UNL     1      25.336  -0.871  53.624  1.00  0.00    -0.386 N 
HETATM   21  H6  UNL     1      25.418  -1.357  54.545  1.00  0.00     0.160 HD
BRANCH  20  22
HETATM   22  C5  UNL     1      26.410  -0.910  52.667  1.00  0.00     0.151 C 
BRANCH  22  23
HETATM   23  C4  UNL     1      27.651  -0.439  53.369  1.00  0.00    -0.065 A 
HETATM   24  C3  UNL     1      28.929  -0.192  53.595  1.00  0.00     0.023 A 
HETATM   25  C2  UNL     1      28.589   1.051  53.781  1.00  0.00    -0.086 A 
HETATM   26  C20 UNL     1      27.773   0.216  54.701  1.00  0.00     0.074 A 
HETATM   27  C1  UNL     1      28.627   2.527  53.559  1.00  0.00     0.040 C 
ENDBRANCH  22  23
ENDBRANCH  20  22
ENDBRANCH   1  20
TORSDOF 5
ENDMDL
MODEL 3
REMARK VINA RESULT:      -9.0      2.209      4.958
REMARK  5 active torsions:
REMARK  status: ('A' for Active; 'I' for Inactive)
REMARK    1  A    between atoms: C4_4  and  C5_5 
REMARK    2  A    between atoms: C5_5  and  N1_6 
REMARK    3  A    between atoms: N1_6  and  C6_7 
REMARK    4  A    between atoms: C11_14  and  N4_15 
REMARK    5  A    between atoms: N4_15  and  C12_16 
ROOT
HETATM    1  C6  UNL     1      24.555  -0.363  53.515  1.00  0.00     0.029 A 
HETATM    2  C7  UNL     1      25.068  -0.605  54.769  1.00  0.00     0.031 A 
HETATM    3  C8  UNL     1      26.247  -0.019  55.122  1.00  0.00     0.035 A 
HETATM    4  C9  UNL     1      26.902   0.797  54.228  1.00  0.00     0.072 A 
HETATM    5  N2  UNL     1      28.077   1.357  54.632  1.00  0.00    -0.241 NA
HETATM    6  C10 UNL     1      28.761   2.163  53.801  1.00  0.00     0.236 A 
HETATM    7  N3  UNL     1      28.284   2.410  52.583  1.00  0.00    -0.224 NA
HETATM    8  C11 UNL     1      27.153   1.906  52.114  1.00  0.00     0.142 A 
HETATM    9  C18 UNL     1      26.451   1.083  52.960  1.00  0.00     0.041 A 
HETATM   10  C19 UNL     1      25.259   0.463  52.666  1.00  0.00     0.046 A 
ENDROOT
BRANCH   8  11
HETATM   11  N4  UNL     1      26.629   2.158  50.822  1.00  0.00    -0.340 N 
HETATM   12  H10 UNL     1      26.661   1.441  50.072  1.00  0.00     0.167 HD
BRANCH  11  13
HETATM   13  C12 UNL     1      26.016   3.308  50.313  1.00  0.00     0.035 A 
HETATM   14  C13 UNL     1      26.607   4.240  49.461  1.00  0.00     0.029 A 
HETATM   15  C14 UNL     1      25.992   5.358  48.972  1.00  0.00     0.004 A 
HETATM   16  C15 UNL     1      24.699   5.639  49.309  1.00  0.00     0.024 A 
HETATM   17  C16 UNL     1      24.067   4.752  50.149  1.00  0.00     0.036 A 
HETATM   18 CL1  UNL     1      22.401   5.163  50.551  1.00  0.00    -0.084 Cl
HETATM   19  C17 UNL     1      24.724   3.647  50.612  1.00  0.00     0.053 A 
ENDBRANCH  11  13
ENDBRANCH   8  11
BRANCH   1  20
HETATM   20  N1  UNL     1      23.323  -0.961  53.123  1.00  0.00    -0.386 N 
HETATM   21  H6  UNL     1      23.363  -1.750  52.440  1.00  0.00     0.160 HD
BRANCH  20  22
HETATM   22  C5  UNL     1      22.065  -0.500  53.648  1.00  0.00     0.151 C 
BRANCH  22  23
HETATM   23  C4  UNL     1      21.723   0.776  52.935  1.00  0.00    -0.065 A 
HETATM   24  C3  UNL     1      21.837   2.012  52.482  1.00  0.00     0.023 A 
HETATM   25  C2  UNL     1      21.642   1.525  51.291  1.00  0.00    -0.086 A 
HETATM   26  C20 UNL     1      20.502   1.100  52.145  1.00  0.00     0.074 A 
HETATM   27  C1  UNL     1      21.949   1.264  49.852  1.00  0.00     0.040 C 
ENDBRANCH  22  23
ENDBRANCH  20  22
ENDBRANCH   1  20
TORSDOF 5
ENDMDL
MODEL 4
REMARK VINA RESULT:      -8.9      1.440      2.218
REMARK  5 active torsions:
REMARK  status: ('A' for Active; 'I' for Inactive)
REMARK    1  A    between atoms: C4_4  and  C5_5 
REMARK    2  A    between atoms: C5_5  and  N1_6 
REMARK    3  A    between atoms: N1_6  and  C6_7 
REMARK    4  A    between atoms: C11_14  and  N4_15 
REMARK    5  A    between atoms: N4_15  and  C12_16 
ROOT
HETATM    1  C6  UNL     1      24.242  -0.667  54.369  1.00  0.00     0.029 A 
HETATM    2  C7  UNL     1      23.226  -1.178  55.144  1.00  0.00     0.031 A 
HETATM    3  C8  UNL     1      21.935  -0.950  54.771  1.00  0.00     0.035 A 
HETATM    4  C9  UNL     1      21.669  -0.221  53.635  1.00  0.00     0.072 A 
HETATM    5  N2  UNL     1      20.359  -0.023  53.306  1.00  0.00    -0.241 NA
HETATM    6  C10 UNL     1      20.039   0.683  52.208  1.00  0.00     0.236 A 
HETATM    7  N3  UNL     1      21.006   1.185  51.444  1.00  0.00    -0.224 NA
HETATM    8  C11 UNL     1      22.298   1.040  51.691  1.00  0.00     0.142 A 
HETATM    9  C18 UNL     1      22.630   0.320  52.813  1.00  0.00     0.041 A 
HETATM   10  C19 UNL     1      23.909   0.055  53.244  1.00  0.00     0.046 A 
ENDROOT
BRANCH   8  11
HETATM   11  N4  UNL     1      23.340   1.568  50.889  1.00  0.00    -0.340 N 
HETATM   12  H10 UNL     1      23.911   0.961  50.270  1.00  0.00     0.167 HD
BRANCH  11  13
HETATM   13  C12 UNL     1      23.792   2.886  50.763  1.00  0.00     0.035 A 
HETATM   14  C13 UNL     1      23.198   4.011  51.332  1.00  0.00     0.029 A 
HETATM   15  C14 UNL     1      23.655   5.292  51.199  1.00  0.00     0.004 A 
HETATM   16  C15 UNL     1      24.775   5.555  50.465  1.00  0.00     0.024 A 
HETATM   17  C16 UNL     1      25.402   4.480  49.879  1.00  0.00     0.036 A 
HETATM   18 CL1  UNL     1      26.842   4.875  48.944  1.00  0.00    -0.084 Cl
HETATM   19  C17 UNL     1      24.908   3.216  50.041  1.00  0.00     0.053 A 
ENDBRANCH  11  13
ENDBRANCH   8  11
BRANCH   1  20
HETATM   20  N1  UNL     1      25.599  -0.894  54.736  1.00  0.00    -0.386 N 
HETATM   21  H6  UNL     1      25.945  -1.880  54.727  1.00  0.00     0.160 HD
BRANCH  20  22
HETATM   22  C5  UNL     1      26.468   0.191  55.107  1.00  0.00     0.151 C 
BRANCH  22  23
HETATM   23  C4  UNL     1      27.680   0.117  54.225  1.00  0.00    -0.065 A 
HETATM   24  C3  UNL     1      28.949   0.142  53.856  1.00  0.00     0.023 A 
HETATM   25  C2  UNL     1      28.764  -1.051  53.370  1.00  0.00    -0.086 A 
HETATM   26  C20 UNL     1      27.748  -0.153  52.762  1.00  0.00     0.074 A 
HETATM   27  C1  UNL     1      29.027  -2.510  53.188  1.00  0.00     0.040 C 
ENDBRANCH  22  23
ENDBRANCH  20  22
ENDBRANCH   1  20
TORSDOF 5
ENDMDL
MODEL 5
REMARK VINA RESULT:      -8.8      2.816      5.907
REMARK  5 active torsions:
REMARK  status: ('A' for Active; 'I' for Inactive)
REMARK    1  A    between atoms: C4_4  and  C5_5 
REMARK    2  A    between atoms: C5_5  and  N1_6 
REMARK    3  A    between atoms: N1_6  and  C6_7 
REMARK    4  A    between atoms: C11_14  and  N4_15 
REMARK    5  A    between atoms: N4_15  and  C12_16 
ROOT
HETATM    1  C6  UNL     1      20.857   0.430  51.570  1.00  0.00     0.029 A 
HETATM    2  C7  UNL     1      19.877  -0.070  52.397  1.00  0.00     0.031 A 
HETATM    3  C8  UNL     1      20.243  -0.643  53.578  1.00  0.00     0.035 A 
HETATM    4  C9  UNL     1      21.573  -0.713  53.924  1.00  0.00     0.072 A 
HETATM    5  N2  UNL     1      21.884  -1.296  55.117  1.00  0.00    -0.241 NA
HETATM    6  C10 UNL     1      23.167  -1.393  55.506  1.00  0.00     0.236 A 
HETATM    7  N3  UNL     1      24.130  -0.915  54.722  1.00  0.00    -0.224 NA
HETATM    8  C11 UNL     1      23.915  -0.336  53.551  1.00  0.00     0.142 A 
HETATM    9  C18 UNL     1      22.605  -0.235  53.149  1.00  0.00     0.041 A 
HETATM   10  C19 UNL     1      22.170   0.330  51.973  1.00  0.00     0.046 A 
ENDROOT
BRANCH   8  11
HETATM   11  N4  UNL     1      24.927   0.178  52.703  1.00  0.00    -0.340 N 
HETATM   12  H10 UNL     1      24.763   0.327  51.690  1.00  0.00     0.167 HD
BRANCH  11  13
HETATM   13  C12 UNL     1      26.238   0.560  53.006  1.00  0.00     0.035 A 
HETATM   14  C13 UNL     1      26.678   1.865  53.227  1.00  0.00     0.029 A 
HETATM   15  C14 UNL     1      27.964   2.219  53.523  1.00  0.00     0.004 A 
HETATM   16  C15 UNL     1      28.939   1.268  53.624  1.00  0.00     0.024 A 
HETATM   17  C16 UNL     1      28.559  -0.037  53.414  1.00  0.00     0.036 A 
HETATM   18 CL1  UNL     1      29.855  -1.223  53.557  1.00  0.00    -0.084 Cl
HETATM   19  C17 UNL     1      27.260  -0.343  53.121  1.00  0.00     0.053 A 
ENDBRANCH  11  13
ENDBRANCH   8  11
BRANCH   1  20
HETATM   20  N1  UNL     1      20.500   1.038  50.332  1.00  0.00    -0.386 N 
HETATM   21  H6  UNL     1      19.531   1.420  50.242  1.00  0.00     0.160 HD
BRANCH  20  22
HETATM   22  C5  UNL     1      21.434   1.124  49.241  1.00  0.00     0.151 C 
BRANCH  22  23
HETATM   23  C4  UNL     1      22.038   2.497  49.276  1.00  0.00    -0.065 A 
HETATM   24  C3  UNL     1      22.134   3.806  49.431  1.00  0.00     0.023 A 
HETATM   25  C2  UNL     1      23.106   3.571  50.265  1.00  0.00    -0.086 A 
HETATM   26  C20 UNL     1      23.441   2.902  48.980  1.00  0.00     0.074 A 
HETATM   27  C1  UNL     1      23.842   3.642  51.562  1.00  0.00     0.040 C 
ENDBRANCH  22  23
ENDBRANCH  20  22
ENDBRANCH   1  20
TORSDOF 5
ENDMDL
MODEL 6
REMARK VINA RESULT:      -8.7      1.775      5.084
REMARK  5 active torsions:
REMARK  status: ('A' for Active; 'I' for Inactive)
REMARK    1  A    between atoms: C4_4  and  C5_5 
REMARK    2  A    between atoms: C5_5  and  N1_6 
REMARK    3  A    between atoms: N1_6  and  C6_7 
REMARK    4  A    between atoms: C11_14  and  N4_15 
REMARK    5  A    between atoms: N4_15  and  C12_16 
ROOT
HETATM    1  C6  UNL     1      22.779  -0.769  53.911  1.00  0.00     0.029 A 
HETATM    2  C7  UNL     1      23.081  -1.251  55.164  1.00  0.00     0.031 A 
HETATM    3  C8  UNL     1      24.362  -1.146  55.618  1.00  0.00     0.035 A 
HETATM    4  C9  UNL     1      25.325  -0.566  54.824  1.00  0.00     0.072 A 
HETATM    5  N2  UNL     1      26.590  -0.486  55.327  1.00  0.00    -0.241 NA
HETATM    6  C10 UNL     1      27.572   0.071  54.596  1.00  0.00     0.236 A 
HETATM    7  N3  UNL     1      27.301   0.543  53.382  1.00  0.00    -0.224 NA
HETATM    8  C11 UNL     1      26.103   0.505  52.821  1.00  0.00     0.142 A 
HETATM    9  C18 UNL     1      25.097  -0.063  53.564  1.00  0.00     0.041 A 
HETATM   10  C19 UNL     1      23.787  -0.199  53.166  1.00  0.00     0.046 A 
ENDROOT
BRANCH   8  11
HETATM   11  N4  UNL     1      25.796   1.003  51.531  1.00  0.00    -0.340 N 
HETATM   12  H10 UNL     1      25.697   0.371  50.713  1.00  0.00     0.167 HD
BRANCH  11  13
HETATM   13  C12 UNL     1      25.581   2.319  51.107  1.00  0.00     0.035 A 
HETATM   14  C13 UNL     1      24.522   3.139  51.495  1.00  0.00     0.029 A 
HETATM   15  C14 UNL     1      24.329   4.424  51.073  1.00  0.00     0.004 A 
HETATM   16  C15 UNL     1      25.206   5.006  50.203  1.00  0.00     0.024 A 
HETATM   17  C16 UNL     1      26.270   4.240  49.786  1.00  0.00     0.036 A 
HETATM   18 CL1  UNL     1      27.370   5.039  48.665  1.00  0.00    -0.084 Cl
HETATM   19  C17 UNL     1      26.422   2.959  50.237  1.00  0.00     0.053 A 
ENDBRANCH  11  13
ENDBRANCH   8  11
BRANCH   1  20
HETATM   20  N1  UNL     1      21.446  -0.864  53.416  1.00  0.00    -0.386 N 
HETATM   21  H6  UNL     1      21.232  -1.638  52.748  1.00  0.00     0.160 HD
BRANCH  20  22
HETATM   22  C5  UNL     1      20.427   0.070  53.817  1.00  0.00     0.151 C 
BRANCH  22  23
HETATM   23  C4  UNL     1      20.503   1.244  52.885  1.00  0.00    -0.065 A 
HETATM   24  C3  UNL     1      20.920   2.378  52.351  1.00  0.00     0.023 A 
HETATM   25  C2  UNL     1      21.042   1.729  51.229  1.00  0.00    -0.086 A 
HETATM   26  C20 UNL     1      19.646   1.549  51.706  1.00  0.00     0.074 A 
HETATM   27  C1  UNL     1      21.744   1.219  50.013  1.00  0.00     0.040 C 
ENDBRANCH  22  23
ENDBRANCH  20  22
ENDBRANCH   1  20
TORSDOF 5
ENDMDL
MODEL 7
REMARK VINA RESULT:      -8.7      2.745      3.629
REMARK  5 active torsions:
REMARK  status: ('A' for Active; 'I' for Inactive)
REMARK    1  A    between atoms: C4_4  and  C5_5 
REMARK    2  A    between atoms: C5_5  and  N1_6 
REMARK    3  A    between atoms: N1_6  and  C6_7 
REMARK    4  A    between atoms: C11_14  and  N4_15 
REMARK    5  A    between atoms: N4_15  and  C12_16 
ROOT
HETATM    1  C6  UNL     1      23.391  -0.639  53.908  1.00  0.00     0.029 A 
HETATM    2  C7  UNL     1      22.541  -1.122  54.876  1.00  0.00     0.031 A 
HETATM    3  C8  UNL     1      21.198  -1.089  54.648  1.00  0.00     0.035 A 
HETATM    4  C9  UNL     1      20.716  -0.578  53.465  1.00  0.00     0.072 A 
HETATM    5  N2  UNL     1      19.364  -0.569  53.288  1.00  0.00    -0.241 NA
HETATM    6  C10 UNL     1      18.836  -0.081  52.152  1.00  0.00     0.236 A 
HETATM    7  N3  UNL     1      19.640   0.391  51.202  1.00  0.00    -0.224 NA
HETATM    8  C11 UNL     1      20.960   0.419  51.294  1.00  0.00     0.142 A 
HETATM    9  C18 UNL     1      21.504  -0.078  52.454  1.00  0.00     0.041 A 
HETATM   10  C19 UNL     1      22.847  -0.141  52.746  1.00  0.00     0.046 A 
ENDROOT
BRANCH   8  11
HETATM   11  N4  UNL     1      21.832   0.918  50.295  1.00  0.00    -0.340 N 
HETATM   12  H10 UNL     1      22.181   0.313  49.526  1.00  0.00     0.167 HD
BRANCH  11  13
HETATM   13  C12 UNL     1      22.366   2.200  50.132  1.00  0.00     0.035 A 
HETATM   14  C13 UNL     1      23.553   2.513  49.470  1.00  0.00     0.029 A 
HETATM   15  C14 UNL     1      24.058   3.774  49.320  1.00  0.00     0.004 A 
HETATM   16  C15 UNL     1      23.397   4.851  49.835  1.00  0.00     0.024 A 
HETATM   17  C16 UNL     1      22.219   4.599  50.500  1.00  0.00     0.036 A 
HETATM   18 CL1  UNL     1      21.407   6.024  51.144  1.00  0.00    -0.084 Cl
HETATM   19  C17 UNL     1      21.753   3.321  50.624  1.00  0.00     0.053 A 
ENDBRANCH  11  13
ENDBRANCH   8  11
BRANCH   1  20
HETATM   20  N1  UNL     1      24.800  -0.666  54.121  1.00  0.00    -0.386 N 
HETATM   21  H6  UNL     1      25.141  -0.607  55.107  1.00  0.00     0.160 HD
BRANCH  20  22
HETATM   22  C5  UNL     1      25.724  -0.772  53.023  1.00  0.00     0.151 C 
BRANCH  22  23
HETATM   23  C4  UNL     1      26.091   0.624  52.611  1.00  0.00    -0.065 A 
HETATM   24  C3  UNL     1      26.258   1.686  51.842  1.00  0.00     0.023 A 
HETATM   25  C2  UNL     1      25.533   2.341  52.702  1.00  0.00    -0.086 A 
HETATM   26  C20 UNL     1      26.661   1.719  53.444  1.00  0.00     0.074 A 
HETATM   27  C1  UNL     1      24.400   3.197  53.164  1.00  0.00     0.040 C 
ENDBRANCH  22  23
ENDBRANCH  20  22
ENDBRANCH   1  20
TORSDOF 5
ENDMDL
MODEL 8
REMARK VINA RESULT:      -8.4      2.260      4.704
REMARK  5 active torsions:
REMARK  status: ('A' for Active; 'I' for Inactive)
REMARK    1  A    between atoms: C4_4  and  C5_5 
REMARK    2  A    between atoms: C5_5  and  N1_6 
REMARK    3  A    between atoms: N1_6  and  C6_7 
REMARK    4  A    between atoms: C11_14  and  N4_15 
REMARK    5  A    between atoms: N4_15  and  C12_16 
ROOT
HETATM    1  C6  UNL     1      25.720   0.582  52.443  1.00  0.00     0.029 A 
HETATM    2  C7  UNL     1      26.049  -0.450  53.291  1.00  0.00     0.031 A 
HETATM    3  C8  UNL     1      25.075  -0.993  54.076  1.00  0.00     0.035 A 
HETATM    4  C9  UNL     1      23.790  -0.504  54.009  1.00  0.00     0.072 A 
HETATM    5  N2  UNL     1      22.854  -1.083  54.815  1.00  0.00    -0.241 NA
HETATM    6  C10 UNL     1      21.582  -0.647  54.792  1.00  0.00     0.236 A 
HETATM    7  N3  UNL     1      21.243   0.350  53.979  1.00  0.00    -0.224 NA
HETATM    8  C11 UNL     1      22.088   0.965  53.167  1.00  0.00     0.142 A 
HETATM    9  C18 UNL     1      23.389   0.523  53.187  1.00  0.00     0.041 A 
HETATM   10  C19 UNL     1      24.416   1.025  52.422  1.00  0.00     0.046 A 
ENDROOT
BRANCH   8  11
HETATM   11  N4  UNL     1      21.745   2.028  52.295  1.00  0.00    -0.340 N 
HETATM   12  H10 UNL     1      21.457   2.957  52.656  1.00  0.00     0.167 HD
BRANCH  11  13
HETATM   13  C12 UNL     1      21.719   2.064  50.896  1.00  0.00     0.035 A 
HETATM   14  C13 UNL     1      21.476   0.979  50.055  1.00  0.00     0.029 A 
HETATM   15  C14 UNL     1      21.452   1.034  48.690  1.00  0.00     0.004 A 
HETATM   16  C15 UNL     1      21.677   2.214  48.041  1.00  0.00     0.024 A 
HETATM   17  C16 UNL     1      21.923   3.318  48.823  1.00  0.00     0.036 A 
HETATM   18 CL1  UNL     1      22.206   4.814  47.935  1.00  0.00    -0.084 Cl
HETATM   19  C17 UNL     1      21.936   3.214  50.186  1.00  0.00     0.053 A 
ENDBRANCH  11  13
ENDBRANCH   8  11
BRANCH   1  20
HETATM   20  N1  UNL     1      26.720   1.163  51.610  1.00  0.00    -0.386 N 
HETATM   21  H6  UNL     1      27.285   0.520  51.011  1.00  0.00     0.160 HD
BRANCH  20  22
HETATM   22  C5  UNL     1      26.949   2.584  51.591  1.00  0.00     0.151 C 
BRANCH  22  23
HETATM   23  C4  UNL     1      26.339   3.118  50.328  1.00  0.00    -0.065 A 
HETATM   24  C3  UNL     1      25.455   3.320  49.367  1.00  0.00     0.023 A 
HETATM   25  C2  UNL     1      25.571   4.593  49.617  1.00  0.00    -0.086 A 
HETATM   26  C20 UNL     1      26.931   4.061  49.338  1.00  0.00     0.074 A 
HETATM   27  C1  UNL     1      25.100   5.968  49.961  1.00  0.00     0.040 C 
ENDBRANCH  22  23
ENDBRANCH  20  22
ENDBRANCH   1  20
TORSDOF 5
ENDMDL
MODEL 9
REMARK VINA RESULT:      -8.4      2.294      5.750
REMARK  5 active torsions:
REMARK  status: ('A' for Active; 'I' for Inactive)
REMARK    1  A    between atoms: C4_4  and  C5_5 
REMARK    2  A    between atoms: C5_5  and  N1_6 
REMARK    3  A    between atoms: N1_6  and  C6_7 
REMARK    4  A    between atoms: C11_14  and  N4_15 
REMARK    5  A    between atoms: N4_15  and  C12_16 
ROOT
HETATM    1  C6  UNL     1      21.984   2.816  51.690  1.00  0.00     0.029 A 
HETATM    2  C7  UNL     1      20.730   2.903  52.249  1.00  0.00     0.031 A 
HETATM    3  C8  UNL     1      20.335   1.943  53.132  1.00  0.00     0.035 A 
HETATM    4  C9  UNL     1      21.188   0.911  53.450  1.00  0.00     0.072 A 
HETATM    5  N2  UNL     1      20.743  -0.022  54.340  1.00  0.00    -0.241 NA
HETATM    6  C10 UNL     1      21.533  -1.053  54.688  1.00  0.00     0.236 A 
HETATM    7  N3  UNL     1      22.750  -1.156  54.160  1.00  0.00    -0.224 NA
HETATM    8  C11 UNL     1      23.257  -0.296  53.291  1.00  0.00     0.142 A 
HETATM    9  C18 UNL     1      22.453   0.759  52.933  1.00  0.00     0.041 A 
HETATM   10  C19 UNL     1      22.790   1.759  52.049  1.00  0.00     0.046 A 
ENDROOT
BRANCH   8  11
HETATM   11  N4  UNL     1      24.550  -0.389  52.718  1.00  0.00    -0.340 N 
HETATM   12  H10 UNL     1      24.685  -0.594  51.710  1.00  0.00     0.167 HD
BRANCH  11  13
HETATM   13  C12 UNL     1      25.806  -0.243  53.317  1.00  0.00     0.035 A 
HETATM   14  C13 UNL     1      26.134   0.676  54.313  1.00  0.00     0.029 A 
HETATM   15  C14 UNL     1      27.368   0.803  54.888  1.00  0.00     0.004 A 
HETATM   16  C15 UNL     1      28.399  -0.003  54.499  1.00  0.00     0.024 A 
HETATM   17  C16 UNL     1      28.130  -0.928  53.518  1.00  0.00     0.036 A 
HETATM   18 CL1  UNL     1      29.495  -1.942  53.055  1.00  0.00    -0.084 Cl
HETATM   19  C17 UNL     1      26.880  -1.019  52.973  1.00  0.00     0.053 A 
ENDBRANCH  11  13
ENDBRANCH   8  11
BRANCH   1  20
HETATM   20  N1  UNL     1      22.421   3.809  50.766  1.00  0.00    -0.386 N 
HETATM   21  H6  UNL     1      21.995   3.803  49.812  1.00  0.00     0.160 HD
BRANCH  20  22
HETATM   22  C5  UNL     1      23.413   4.786  51.128  1.00  0.00     0.151 C 
BRANCH  22  23
HETATM   23  C4  UNL     1      24.654   4.477  50.343  1.00  0.00    -0.065 A 
HETATM   24  C3  UNL     1      25.885   4.587  49.875  1.00  0.00     0.023 A 
HETATM   25  C2  UNL     1      26.085   3.371  50.295  1.00  0.00    -0.086 A 
HETATM   26  C20 UNL     1      24.899   3.352  49.398  1.00  0.00     0.074 A 
HETATM   27  C1  UNL     1      26.766   2.280  51.054  1.00  0.00     0.040 C 
ENDBRANCH  22  23
ENDBRANCH  20  22
ENDBRANCH   1  20
TORSDOF 5
ENDMDL
