MODEL 1
REMARK VINA RESULT:      -9.5      0.000      0.000
REMARK  3 active torsions:
REMARK  status: ('A' for Active; 'I' for Inactive)
REMARK    1  A    between atoms: C4_5  and  N1_6 
REMARK    2  A    between atoms: N1_6  and  C5_7 
REMARK    3  A    between atoms: C12_16  and  N4_17 
ROOT
HETATM    1  C5  UNL     1      24.094  -0.202  53.811  1.00  0.00     0.142 A 
HETATM    2  N2  UNL     1      24.418  -0.912  54.872  1.00  0.00    -0.224 NA
HETATM    3  C6  UNL     1      23.402  -1.539  55.542  1.00  0.00     0.236 A 
HETATM    4  N3  UNL     1      22.072  -1.505  55.220  1.00  0.00    -0.241 NA
HETATM    5  C7  UNL     1      21.711  -0.798  54.156  1.00  0.00     0.072 A 
HETATM    6  C8  UNL     1      22.781  -0.157  53.480  1.00  0.00     0.041 A 
HETATM    7  C9  UNL     1      22.829   0.721  52.281  1.00  0.00     0.050 C 
HETATM    8  C10 UNL     1      21.821   0.863  51.462  1.00  0.00     0.050 C 
HETATM    9  C11 UNL     1      21.366   2.177  50.931  1.00  0.00     0.103 C 
HETATM   10  C12 UNL     1      19.931   2.023  51.583  1.00  0.00     0.264 C 
HETATM   11  C16 UNL     1      19.670   0.524  51.555  1.00  0.00     0.185 C 
HETATM   12  C17 UNL     1      19.587  -0.141  52.853  1.00  0.00     0.010 C 
HETATM   13  C18 UNL     1      20.285  -0.758  53.836  1.00  0.00     0.031 C 
HETATM   14  O2  UNL     1      20.817   0.113  50.775  1.00  0.00    -0.344 OA
ENDROOT
BRANCH   1  15
HETATM   15  N1  UNL     1      25.052   0.493  53.044  1.00  0.00    -0.340 N 
HETATM   16  H3  UNL     1      25.320   1.203  52.364  1.00  0.00     0.167 HD
BRANCH  15  17
HETATM   17  C4  UNL     1      26.413   0.101  53.169  1.00  0.00     0.035 A 
HETATM   18  C3  UNL     1      27.126  -1.076  52.880  1.00  0.00     0.032 A 
HETATM   19  C2  UNL     1      28.466  -1.318  53.083  1.00  0.00     0.046 A 
HETATM   20  C1  UNL     1      29.153  -0.262  53.635  1.00  0.00     0.138 A 
HETATM   21  F1  UNL     1      30.484  -0.545  53.823  1.00  0.00    -0.204 F 
HETATM   22  C20 UNL     1      28.546   0.934  53.956  1.00  0.00     0.074 A 
HETATM   23  C19 UNL     1      27.201   1.121  53.729  1.00  0.00     0.056 A 
HETATM   24 CL1  UNL     1      29.662   2.093  54.641  1.00  0.00    -0.081 Cl
ENDBRANCH  15  17
ENDBRANCH   1  15
BRANCH  10  25
HETATM   25  N4  UNL     1      18.999   2.676  50.699  1.00  0.00     0.121 N 
HETATM   26  C13 UNL     1      19.675   3.679  49.903  1.00  0.00     0.302 C 
HETATM   27  C14 UNL     1      18.783   4.868  49.976  1.00  0.00     0.200 C 
HETATM   28  O1  UNL     1      17.696   4.549  50.763  1.00  0.00    -0.361 OA
HETATM   29  C15 UNL     1      17.892   3.303  51.330  1.00  0.00     0.441 C 
ENDBRANCH  10  25
TORSDOF 3
ENDMDL
MODEL 2
REMARK VINA RESULT:      -9.1      2.540      4.286
REMARK  3 active torsions:
REMARK  status: ('A' for Active; 'I' for Inactive)
REMARK    1  A    between atoms: C4_5  and  N1_6 
REMARK    2  A    between atoms: N1_6  and  C5_7 
REMARK    3  A    between atoms: C12_16  and  N4_17 
ROOT
HETATM    1  C5  UNL     1      25.886   2.702  51.680  1.00  0.00     0.142 A 
HETATM    2  N2  UNL     1      26.877   3.011  50.869  1.00  0.00    -0.224 NA
HETATM    3  C6  UNL     1      26.550   3.393  49.596  1.00  0.00     0.236 A 
HETATM    4  N3  UNL     1      25.288   3.489  49.073  1.00  0.00    -0.241 NA
HETATM    5  C7  UNL     1      24.267   3.185  49.864  1.00  0.00     0.072 A 
HETATM    6  C8  UNL     1      24.631   2.791  51.177  1.00  0.00     0.041 A 
HETATM    7  C9  UNL     1      23.831   2.364  52.356  1.00  0.00     0.050 C 
HETATM    8  C10 UNL     1      22.536   2.520  52.433  1.00  0.00     0.050 C 
HETATM    9  C11 UNL     1      21.604   1.467  52.919  1.00  0.00     0.103 C 
HETATM   10  C12 UNL     1      20.829   1.416  51.538  1.00  0.00     0.264 C 
HETATM   11  C16 UNL     1      20.914   2.841  51.013  1.00  0.00     0.185 C 
HETATM   12  C17 UNL     1      21.695   3.034  49.794  1.00  0.00     0.010 C 
HETATM   13  C18 UNL     1      22.927   3.276  49.286  1.00  0.00     0.031 C 
HETATM   14  O2  UNL     1      21.502   3.472  52.175  1.00  0.00    -0.344 OA
ENDROOT
BRANCH   1  15
HETATM   15  N1  UNL     1      26.098   2.290  53.012  1.00  0.00    -0.340 N 
HETATM   16  H3  UNL     1      25.872   2.298  54.006  1.00  0.00     0.167 HD
BRANCH  15  17
HETATM   17  C4  UNL     1      27.170   1.390  53.265  1.00  0.00     0.035 A 
HETATM   18  C3  UNL     1      28.471   1.533  53.777  1.00  0.00     0.032 A 
HETATM   19  C2  UNL     1      29.422   0.550  53.943  1.00  0.00     0.046 A 
HETATM   20  C1  UNL     1      29.013  -0.703  53.549  1.00  0.00     0.138 A 
HETATM   21  F1  UNL     1      29.990  -1.652  53.729  1.00  0.00    -0.204 F 
HETATM   22  C20 UNL     1      27.758  -0.948  53.033  1.00  0.00     0.074 A 
HETATM   23  C19 UNL     1      26.847   0.074  52.891  1.00  0.00     0.056 A 
HETATM   24 CL1  UNL     1      27.516  -2.630  52.620  1.00  0.00    -0.081 Cl
ENDBRANCH  15  17
ENDBRANCH   1  15
BRANCH  10  25
HETATM   25  N4  UNL     1      19.454   1.111  51.843  1.00  0.00     0.121 N 
HETATM   26  C13 UNL     1      19.377   0.077  52.854  1.00  0.00     0.302 C 
HETATM   27  C14 UNL     1      18.350  -0.867  52.336  1.00  0.00     0.200 C 
HETATM   28  O1  UNL     1      17.896  -0.394  51.121  1.00  0.00    -0.361 OA
HETATM   29  C15 UNL     1      18.660   0.695  50.741  1.00  0.00     0.441 C 
ENDBRANCH  10  25
TORSDOF 3
ENDMDL
MODEL 3
REMARK VINA RESULT:      -8.8      5.435      8.122
REMARK  3 active torsions:
REMARK  status: ('A' for Active; 'I' for Inactive)
REMARK    1  A    between atoms: C4_5  and  N1_6 
REMARK    2  A    between atoms: N1_6  and  C5_7 
REMARK    3  A    between atoms: C12_16  and  N4_17 
ROOT
HETATM    1  C5  UNL     1      24.705   4.169  49.333  1.00  0.00     0.142 A 
HETATM    2  N2  UNL     1      23.657   4.618  48.675  1.00  0.00    -0.224 NA
HETATM    3  C6  UNL     1      22.436   4.091  49.004  1.00  0.00     0.236 A 
HETATM    4  N3  UNL     1      22.191   3.137  49.955  1.00  0.00    -0.241 NA
HETATM    5  C7  UNL     1      23.227   2.663  50.636  1.00  0.00     0.072 A 
HETATM    6  C8  UNL     1      24.479   3.223  50.277  1.00  0.00     0.041 A 
HETATM    7  C9  UNL     1      25.864   2.982  50.762  1.00  0.00     0.050 C 
HETATM    8  C10 UNL     1      26.130   2.314  51.853  1.00  0.00     0.050 C 
HETATM    9  C11 UNL     1      27.192   1.277  51.950  1.00  0.00     0.103 C 
HETATM   10  C12 UNL     1      26.150   0.145  52.327  1.00  0.00     0.264 C 
HETATM   11  C16 UNL     1      25.070   0.880  53.107  1.00  0.00     0.185 C 
HETATM   12  C17 UNL     1      23.752   0.942  52.481  1.00  0.00     0.010 C 
HETATM   13  C18 UNL     1      22.950   1.632  51.636  1.00  0.00     0.031 C 
HETATM   14  O2  UNL     1      25.713   2.172  53.213  1.00  0.00    -0.344 OA
ENDROOT
BRANCH   1  15
HETATM   15  N1  UNL     1      26.013   4.631  49.079  1.00  0.00    -0.340 N 
HETATM   16  H3  UNL     1      26.982   4.488  48.797  1.00  0.00     0.167 HD
BRANCH  15  17
HETATM   17  C4  UNL     1      26.284   6.010  49.302  1.00  0.00     0.035 A 
HETATM   18  C3  UNL     1      25.683   7.015  50.080  1.00  0.00     0.032 A 
HETATM   19  C2  UNL     1      26.053   8.338  50.175  1.00  0.00     0.046 A 
HETATM   20  C1  UNL     1      27.141   8.676  49.404  1.00  0.00     0.138 A 
HETATM   21  F1  UNL     1      27.475  10.003  49.526  1.00  0.00    -0.204 F 
HETATM   22  C20 UNL     1      27.799   7.765  48.606  1.00  0.00     0.074 A 
HETATM   23  C19 UNL     1      27.386   6.453  48.551  1.00  0.00     0.056 A 
HETATM   24 CL1  UNL     1      29.143   8.476  47.740  1.00  0.00    -0.081 Cl
ENDBRANCH  15  17
ENDBRANCH   1  15
BRANCH  10  25
HETATM   25  N4  UNL     1      26.828  -0.767  53.214  1.00  0.00     0.121 N 
HETATM   26  C13 UNL     1      28.151  -0.273  53.534  1.00  0.00     0.302 C 
HETATM   27  C14 UNL     1      29.034  -1.459  53.378  1.00  0.00     0.200 C 
HETATM   28  O1  UNL     1      28.258  -2.533  52.992  1.00  0.00    -0.361 OA
HETATM   29  C15 UNL     1      26.970  -2.096  52.735  1.00  0.00     0.441 C 
ENDBRANCH  10  25
TORSDOF 3
ENDMDL
MODEL 4
REMARK VINA RESULT:      -8.5      7.430      9.901
REMARK  3 active torsions:
REMARK  status: ('A' for Active; 'I' for Inactive)
REMARK    1  A    between atoms: C4_5  and  N1_6 
REMARK    2  A    between atoms: N1_6  and  C5_7 
REMARK    3  A    between atoms: C12_16  and  N4_17 
ROOT
HETATM    1  C5  UNL     1      25.248   5.485  49.765  1.00  0.00     0.142 A 
HETATM    2  N2  UNL     1      24.199   5.872  50.461  1.00  0.00    -0.224 NA
HETATM    3  C6  UNL     1      24.151   7.185  50.846  1.00  0.00     0.236 A 
HETATM    4  N3  UNL     1      25.089   8.147  50.580  1.00  0.00    -0.241 NA
HETATM    5  C7  UNL     1      26.159   7.790  49.881  1.00  0.00     0.072 A 
HETATM    6  C8  UNL     1      26.186   6.426  49.494  1.00  0.00     0.041 A 
HETATM    7  C9  UNL     1      27.174   5.618  48.732  1.00  0.00     0.050 C 
HETATM    8  C10 UNL     1      28.151   6.148  48.046  1.00  0.00     0.050 C 
HETATM    9  C11 UNL     1      29.551   5.645  48.074  1.00  0.00     0.103 C 
HETATM   10  C12 UNL     1      30.108   7.018  48.634  1.00  0.00     0.264 C 
HETATM   11  C16 UNL     1      29.186   8.067  48.027  1.00  0.00     0.185 C 
HETATM   12  C17 UNL     1      28.344   8.804  48.964  1.00  0.00     0.010 C 
HETATM   13  C18 UNL     1      27.159   8.825  49.620  1.00  0.00     0.031 C 
HETATM   14  O2  UNL     1      28.435   7.211  47.133  1.00  0.00    -0.344 OA
ENDROOT
BRANCH   1  15
HETATM   15  N1  UNL     1      25.412   4.158  49.317  1.00  0.00    -0.340 N 
HETATM   16  H3  UNL     1      25.641   3.470  48.602  1.00  0.00     0.167 HD
BRANCH  15  17
HETATM   17  C4  UNL     1      25.138   3.109  50.237  1.00  0.00     0.035 A 
HETATM   18  C3  UNL     1      23.965   2.475  50.682  1.00  0.00     0.032 A 
HETATM   19  C2  UNL     1      23.855   1.469  51.616  1.00  0.00     0.046 A 
HETATM   20  C1  UNL     1      25.055   1.066  52.154  1.00  0.00     0.138 A 
HETATM   21  F1  UNL     1      24.902   0.064  53.081  1.00  0.00    -0.204 F 
HETATM   22  C20 UNL     1      26.261   1.625  51.786  1.00  0.00     0.074 A 
HETATM   23  C19 UNL     1      26.311   2.628  50.845  1.00  0.00     0.056 A 
HETATM   24 CL1  UNL     1      27.618   0.917  52.633  1.00  0.00    -0.081 Cl
ENDBRANCH  15  17
ENDBRANCH   1  15
BRANCH  10  25
HETATM   25  N4  UNL     1      31.431   7.186  48.086  1.00  0.00     0.121 N 
HETATM   26  C13 UNL     1      32.147   5.927  48.098  1.00  0.00     0.302 C 
HETATM   27  C14 UNL     1      33.490   6.275  48.633  1.00  0.00     0.200 C 
HETATM   28  O1  UNL     1      33.515   7.627  48.906  1.00  0.00    -0.361 OA
HETATM   29  C15 UNL     1      32.245   8.150  48.736  1.00  0.00     0.441 C 
ENDBRANCH  10  25
TORSDOF 3
ENDMDL
MODEL 5
REMARK VINA RESULT:      -8.5      2.482      4.067
REMARK  3 active torsions:
REMARK  status: ('A' for Active; 'I' for Inactive)
REMARK    1  A    between atoms: C4_5  and  N1_6 
REMARK    2  A    between atoms: N1_6  and  C5_7 
REMARK    3  A    between atoms: C12_16  and  N4_17 
ROOT
HETATM    1  C5  UNL     1      24.230   2.554  51.796  1.00  0.00     0.142 A 
HETATM    2  N2  UNL     1      25.109   3.207  51.067  1.00  0.00    -0.224 NA
HETATM    3  C6  UNL     1      24.684   3.702  49.863  1.00  0.00     0.236 A 
HETATM    4  N3  UNL     1      23.427   3.585  49.334  1.00  0.00    -0.241 NA
HETATM    5  C7  UNL     1      22.515   2.932  50.044  1.00  0.00     0.072 A 
HETATM    6  C8  UNL     1      22.980   2.430  51.286  1.00  0.00     0.041 A 
HETATM    7  C9  UNL     1      22.319   1.648  52.364  1.00  0.00     0.050 C 
HETATM    8  C10 UNL     1      21.024   1.487  52.436  1.00  0.00     0.050 C 
HETATM    9  C11 UNL     1      20.368   0.183  52.729  1.00  0.00     0.103 C 
HETATM   10  C12 UNL     1      19.606   0.175  51.340  1.00  0.00     0.264 C 
HETATM   11  C16 UNL     1      19.350   1.646  51.048  1.00  0.00     0.185 C 
HETATM   12  C17 UNL     1      20.047   2.205  49.893  1.00  0.00     0.010 C 
HETATM   13  C18 UNL     1      21.182   2.802  49.457  1.00  0.00     0.031 C 
HETATM   14  O2  UNL     1      19.794   2.203  52.308  1.00  0.00    -0.344 OA
ENDROOT
BRANCH   1  15
HETATM   15  N1  UNL     1      24.551   1.995  53.050  1.00  0.00    -0.340 N 
HETATM   16  H3  UNL     1      24.340   1.785  54.025  1.00  0.00     0.167 HD
BRANCH  15  17
HETATM   17  C4  UNL     1      25.817   1.362  53.189  1.00  0.00     0.035 A 
HETATM   18  C3  UNL     1      27.087   1.790  53.615  1.00  0.00     0.032 A 
HETATM   19  C2  UNL     1      28.248   1.051  53.672  1.00  0.00     0.046 A 
HETATM   20  C1  UNL     1      28.107  -0.253  53.256  1.00  0.00     0.138 A 
HETATM   21  F1  UNL     1      29.286  -0.954  53.326  1.00  0.00    -0.204 F 
HETATM   22  C20 UNL     1      26.905  -0.769  52.820  1.00  0.00     0.074 A 
HETATM   23  C19 UNL     1      25.776   0.017  52.785  1.00  0.00     0.056 A 
HETATM   24 CL1  UNL     1      27.024  -2.451  52.354  1.00  0.00    -0.081 Cl
ENDBRANCH  15  17
ENDBRANCH   1  15
BRANCH  10  25
HETATM   25  N4  UNL     1      18.343  -0.484  51.562  1.00  0.00     0.121 N 
HETATM   26  C13 UNL     1      17.248   0.366  51.144  1.00  0.00     0.302 C 
HETATM   27  C14 UNL     1      16.269   0.279  52.260  1.00  0.00     0.200 C 
HETATM   28  O1  UNL     1      16.787  -0.554  53.230  1.00  0.00    -0.361 OA
HETATM   29  C15 UNL     1      18.089  -0.886  52.900  1.00  0.00     0.441 C 
ENDBRANCH  10  25
TORSDOF 3
ENDMDL
MODEL 6
REMARK VINA RESULT:      -8.5      2.042      2.544
REMARK  3 active torsions:
REMARK  status: ('A' for Active; 'I' for Inactive)
REMARK    1  A    between atoms: C4_5  and  N1_6 
REMARK    2  A    between atoms: N1_6  and  C5_7 
REMARK    3  A    between atoms: C12_16  and  N4_17 
ROOT
HETATM    1  C5  UNL     1      24.117   0.600  52.911  1.00  0.00     0.142 A 
HETATM    2  N2  UNL     1      24.104  -0.184  53.969  1.00  0.00    -0.224 NA
HETATM    3  C6  UNL     1      22.924  -0.806  54.276  1.00  0.00     0.236 A 
HETATM    4  N3  UNL     1      21.743  -0.696  53.590  1.00  0.00    -0.241 NA
HETATM    5  C7  UNL     1      21.722   0.087  52.519  1.00  0.00     0.072 A 
HETATM    6  C8  UNL     1      22.956   0.720  52.222  1.00  0.00     0.041 A 
HETATM    7  C9  UNL     1      23.369   1.664  51.150  1.00  0.00     0.050 C 
HETATM    8  C10 UNL     1      22.644   1.898  50.089  1.00  0.00     0.050 C 
HETATM    9  C11 UNL     1      22.393   3.258  49.541  1.00  0.00     0.103 C 
HETATM   10  C12 UNL     1      20.827   3.128  49.744  1.00  0.00     0.264 C 
HETATM   11  C16 UNL     1      20.549   1.646  49.540  1.00  0.00     0.185 C 
HETATM   12  C17 UNL     1      20.080   0.911  50.711  1.00  0.00     0.010 C 
HETATM   13  C18 UNL     1      20.450   0.207  51.808  1.00  0.00     0.031 C 
HETATM   14  O2  UNL     1      21.863   1.233  49.093  1.00  0.00    -0.344 OA
ENDROOT
BRANCH   1  15
HETATM   15  N1  UNL     1      25.271   1.297  52.499  1.00  0.00    -0.340 N 
HETATM   16  H3  UNL     1      25.743   2.025  51.964  1.00  0.00     0.167 HD
BRANCH  15  17
HETATM   17  C4  UNL     1      26.526   0.862  53.009  1.00  0.00     0.035 A 
HETATM   18  C3  UNL     1      27.571   1.487  53.711  1.00  0.00     0.032 A 
HETATM   19  C2  UNL     1      28.760   0.929  54.122  1.00  0.00     0.046 A 
HETATM   20  C1  UNL     1      28.905  -0.398  53.789  1.00  0.00     0.138 A 
HETATM   21  F1  UNL     1      30.103  -0.917  54.216  1.00  0.00    -0.204 F 
HETATM   22  C20 UNL     1      27.939  -1.102  53.101  1.00  0.00     0.074 A 
HETATM   23  C19 UNL     1      26.768  -0.491  52.715  1.00  0.00     0.056 A 
HETATM   24 CL1  UNL     1      28.394  -2.768  52.817  1.00  0.00    -0.081 Cl
ENDBRANCH  15  17
ENDBRANCH   1  15
BRANCH  10  25
HETATM   25  N4  UNL     1      20.206   3.872  48.677  1.00  0.00     0.121 N 
HETATM   26  C13 UNL     1      19.037   3.172  48.187  1.00  0.00     0.302 C 
HETATM   27  C14 UNL     1      19.167   3.231  46.706  1.00  0.00     0.200 C 
HETATM   28  O1  UNL     1      20.329   3.907  46.398  1.00  0.00    -0.361 OA
HETATM   29  C15 UNL     1      21.037   4.153  47.561  1.00  0.00     0.441 C 
ENDBRANCH  10  25
TORSDOF 3
ENDMDL
MODEL 7
REMARK VINA RESULT:      -8.5      6.171      7.410
REMARK  3 active torsions:
REMARK  status: ('A' for Active; 'I' for Inactive)
REMARK    1  A    between atoms: C4_5  and  N1_6 
REMARK    2  A    between atoms: N1_6  and  C5_7 
REMARK    3  A    between atoms: C12_16  and  N4_17 
ROOT
HETATM    1  C5  UNL     1      24.848   3.416  51.228  1.00  0.00     0.142 A 
HETATM    2  N2  UNL     1      23.965   3.012  52.117  1.00  0.00    -0.224 NA
HETATM    3  C6  UNL     1      23.009   3.911  52.507  1.00  0.00     0.236 A 
HETATM    4  N3  UNL     1      22.875   5.200  52.065  1.00  0.00    -0.241 NA
HETATM    5  C7  UNL     1      23.750   5.639  51.168  1.00  0.00     0.072 A 
HETATM    6  C8  UNL     1      24.729   4.690  50.780  1.00  0.00     0.041 A 
HETATM    7  C9  UNL     1      25.877   4.759  49.838  1.00  0.00     0.050 C 
HETATM    8  C10 UNL     1      26.033   5.727  48.974  1.00  0.00     0.050 C 
HETATM    9  C11 UNL     1      27.330   6.413  48.727  1.00  0.00     0.103 C 
HETATM   10  C12 UNL     1      26.750   7.820  49.169  1.00  0.00     0.264 C 
HETATM   11  C16 UNL     1      25.286   7.763  48.757  1.00  0.00     0.185 C 
HETATM   12  C17 UNL     1      24.309   7.778  49.843  1.00  0.00     0.010 C 
HETATM   13  C18 UNL     1      23.604   7.024  50.719  1.00  0.00     0.031 C 
HETATM   14  O2  UNL     1      25.309   6.514  48.027  1.00  0.00    -0.344 OA
ENDROOT
BRANCH   1  15
HETATM   15  N1  UNL     1      25.881   2.582  50.753  1.00  0.00    -0.340 N 
HETATM   16  H3  UNL     1      26.425   2.157  50.003  1.00  0.00     0.167 HD
BRANCH  15  17
HETATM   17  C4  UNL     1      26.665   1.885  51.714  1.00  0.00     0.035 A 
HETATM   18  C3  UNL     1      27.617   2.274  52.673  1.00  0.00     0.032 A 
HETATM   19  C2  UNL     1      28.324   1.464  53.532  1.00  0.00     0.046 A 
HETATM   20  C1  UNL     1      28.038   0.124  53.407  1.00  0.00     0.138 A 
HETATM   21  F1  UNL     1      28.765  -0.649  54.280  1.00  0.00    -0.204 F 
HETATM   22  C20 UNL     1      27.122  -0.359  52.498  1.00  0.00     0.074 A 
HETATM   23  C19 UNL     1      26.442   0.499  51.663  1.00  0.00     0.056 A 
HETATM   24 CL1  UNL     1      26.963  -2.100  52.563  1.00  0.00    -0.081 Cl
ENDBRANCH  15  17
ENDBRANCH   1  15
BRANCH  10  25
HETATM   25  N4  UNL     1      27.421   8.816  48.373  1.00  0.00     0.121 N 
HETATM   26  C13 UNL     1      28.792   8.424  48.121  1.00  0.00     0.302 C 
HETATM   27  C14 UNL     1      29.582   9.655  48.391  1.00  0.00     0.200 C 
HETATM   28  O1  UNL     1      28.712  10.656  48.773  1.00  0.00    -0.361 OA
HETATM   29  C15 UNL     1      27.443  10.125  48.922  1.00  0.00     0.441 C 
ENDBRANCH  10  25
TORSDOF 3
ENDMDL
MODEL 8
REMARK VINA RESULT:      -8.3      4.234      7.703
REMARK  3 active torsions:
REMARK  status: ('A' for Active; 'I' for Inactive)
REMARK    1  A    between atoms: C4_5  and  N1_6 
REMARK    2  A    between atoms: N1_6  and  C5_7 
REMARK    3  A    between atoms: C12_16  and  N4_17 
ROOT
HETATM    1  C5  UNL     1      21.754   2.043  52.207  1.00  0.00     0.142 A 
HETATM    2  N2  UNL     1      20.519   1.634  52.410  1.00  0.00    -0.224 NA
HETATM    3  C6  UNL     1      20.346   0.521  53.189  1.00  0.00     0.236 A 
HETATM    4  N3  UNL     1      21.333  -0.217  53.785  1.00  0.00    -0.241 NA
HETATM    5  C7  UNL     1      22.590   0.169  53.600  1.00  0.00     0.072 A 
HETATM    6  C8  UNL     1      22.743   1.323  52.790  1.00  0.00     0.041 A 
HETATM    7  C9  UNL     1      23.940   2.073  52.328  1.00  0.00     0.050 C 
HETATM    8  C10 UNL     1      25.132   1.896  52.833  1.00  0.00     0.050 C 
HETATM    9  C11 UNL     1      26.368   1.775  52.013  1.00  0.00     0.103 C 
HETATM   10  C12 UNL     1      26.668   0.316  52.553  1.00  0.00     0.264 C 
HETATM   11  C16 UNL     1      26.128   0.329  53.975  1.00  0.00     0.185 C 
HETATM   12  C17 UNL     1      24.984  -0.541  54.239  1.00  0.00     0.010 C 
HETATM   13  C18 UNL     1      23.634  -0.640  54.230  1.00  0.00     0.031 C 
HETATM   14  O2  UNL     1      25.811   1.737  54.080  1.00  0.00    -0.344 OA
ENDROOT
BRANCH   1  15
HETATM   15  N1  UNL     1      22.058   3.173  51.420  1.00  0.00    -0.340 N 
HETATM   16  H3  UNL     1      22.290   4.159  51.309  1.00  0.00     0.167 HD
BRANCH  15  17
HETATM   17  C4  UNL     1      22.080   3.010  50.007  1.00  0.00     0.035 A 
HETATM   18  C3  UNL     1      22.133   1.899  49.148  1.00  0.00     0.032 A 
HETATM   19  C2  UNL     1      22.173   1.901  47.772  1.00  0.00     0.046 A 
HETATM   20  C1  UNL     1      22.158   3.157  47.210  1.00  0.00     0.138 A 
HETATM   21  F1  UNL     1      22.201   3.115  45.837  1.00  0.00    -0.204 F 
HETATM   22  C20 UNL     1      22.107   4.309  47.964  1.00  0.00     0.074 A 
HETATM   23  C19 UNL     1      22.068   4.246  49.339  1.00  0.00     0.056 A 
HETATM   24 CL1  UNL     1      22.099   5.757  46.983  1.00  0.00    -0.081 Cl
ENDBRANCH  15  17
ENDBRANCH   1  15
BRANCH  10  25
HETATM   25  N4  UNL     1      28.102   0.175  52.599  1.00  0.00     0.121 N 
HETATM   26  C13 UNL     1      28.466  -1.108  53.162  1.00  0.00     0.302 C 
HETATM   27  C14 UNL     1      29.542  -0.788  54.139  1.00  0.00     0.200 C 
HETATM   28  O1  UNL     1      29.753   0.575  54.123  1.00  0.00    -0.361 OA
HETATM   29  C15 UNL     1      28.793   1.177  53.329  1.00  0.00     0.441 C 
ENDBRANCH  10  25
TORSDOF 3
ENDMDL
MODEL 9
REMARK VINA RESULT:      -8.3      8.621     11.772
REMARK  3 active torsions:
REMARK  status: ('A' for Active; 'I' for Inactive)
REMARK    1  A    between atoms: C4_5  and  N1_6 
REMARK    2  A    between atoms: N1_6  and  C5_7 
REMARK    3  A    between atoms: C12_16  and  N4_17 
ROOT
HETATM    1  C5  UNL     1      27.194   7.200  48.834  1.00  0.00     0.142 A 
HETATM    2  N2  UNL     1      26.374   7.993  49.490  1.00  0.00    -0.224 NA
HETATM    3  C6  UNL     1      26.898   9.143  50.016  1.00  0.00     0.236 A 
HETATM    4  N3  UNL     1      28.200   9.559  49.928  1.00  0.00    -0.241 NA
HETATM    5  C7  UNL     1      29.054   8.782  49.273  1.00  0.00     0.072 A 
HETATM    6  C8  UNL     1      28.487   7.597  48.739  1.00  0.00     0.041 A 
HETATM    7  C9  UNL     1      29.065   6.467  47.965  1.00  0.00     0.050 C 
HETATM    8  C10 UNL     1      30.249   6.512  47.415  1.00  0.00     0.050 C 
HETATM    9  C11 UNL     1      31.239   5.403  47.489  1.00  0.00     0.103 C 
HETATM   10  C12 UNL     1      32.302   6.308  48.237  1.00  0.00     0.264 C 
HETATM   11  C16 UNL     1      32.054   7.704  47.687  1.00  0.00     0.185 C 
HETATM   12  C17 UNL     1      31.550   8.692  48.637  1.00  0.00     0.010 C 
HETATM   13  C18 UNL     1      30.444   9.231  49.203  1.00  0.00     0.031 C 
HETATM   14  O2  UNL     1      31.101   7.369  46.651  1.00  0.00    -0.344 OA
ENDROOT
BRANCH   1  15
HETATM   15  N1  UNL     1      26.771   5.986  48.253  1.00  0.00    -0.340 N 
HETATM   16  H3  UNL     1      26.739   5.317  47.485  1.00  0.00     0.167 HD
BRANCH  15  17
HETATM   17  C4  UNL     1      25.923   5.143  49.022  1.00  0.00     0.035 A 
HETATM   18  C3  UNL     1      24.547   5.135  49.310  1.00  0.00     0.032 A 
HETATM   19  C2  UNL     1      23.860   4.248  50.109  1.00  0.00     0.046 A 
HETATM   20  C1  UNL     1      24.648   3.272  50.673  1.00  0.00     0.138 A 
HETATM   21  F1  UNL     1      23.926   2.410  51.464  1.00  0.00    -0.204 F 
HETATM   22  C20 UNL     1      26.007   3.193  50.455  1.00  0.00     0.074 A 
HETATM   23  C19 UNL     1      26.641   4.108  49.645  1.00  0.00     0.056 A 
HETATM   24 CL1  UNL     1      26.748   1.852  51.299  1.00  0.00    -0.081 Cl
ENDBRANCH  15  17
ENDBRANCH   1  15
BRANCH  10  25
HETATM   25  N4  UNL     1      33.604   5.861  47.809  1.00  0.00     0.121 N 
HETATM   26  C13 UNL     1      33.507   4.576  47.149  1.00  0.00     0.302 C 
HETATM   27  C14 UNL     1      34.611   3.774  47.741  1.00  0.00     0.200 C 
HETATM   28  O1  UNL     1      35.269   4.556  48.669  1.00  0.00    -0.361 OA
HETATM   29  C15 UNL     1      34.579   5.745  48.835  1.00  0.00     0.441 C 
ENDBRANCH  10  25
TORSDOF 3
ENDMDL
