MODEL 1
REMARK VINA RESULT:      -9.8      0.000      0.000
REMARK  1 active torsions:
REMARK  status: ('A' for Active; 'I' for Inactive)
REMARK    1  A    between atoms: C3_4  and  C4_5 
ROOT
HETATM    1  C4  UNL     1      18.649  -0.113  52.200  1.00  0.00    -0.022 A 
HETATM    2  C5  UNL     1      18.317  -1.238  52.964  1.00  0.00     0.014 A 
HETATM    3  C6  UNL     1      19.237  -1.813  53.852  1.00  0.00     0.034 A 
HETATM    4  C7  UNL     1      20.474  -1.242  53.954  1.00  0.00     0.090 A 
HETATM    5  N2  UNL     1      21.417  -1.777  54.795  1.00  0.00    -0.062 NA
HETATM    6  C8  UNL     1      22.615  -1.264  54.898  1.00  0.00     0.725 A 
HETATM    7  N3  UNL     1      22.804  -0.223  54.141  1.00  0.00    -0.045 NA
HETATM    8  C9  UNL     1      21.973   0.384  53.291  1.00  0.00     0.155 A 
HETATM    9  C10 UNL     1      20.718  -0.139  53.169  1.00  0.00     0.040 A 
HETATM   10  C11 UNL     1      19.903   0.497  52.277  1.00  0.00     0.030 A 
HETATM   11  N4  UNL     1      22.532   1.554  52.530  1.00  0.00    -0.370 N 
HETATM   12  C12 UNL     1      23.880   1.370  52.740  1.00  0.00     0.149 C 
HETATM   13  C13 UNL     1      25.164   1.746  52.466  1.00  0.00     0.006 C 
HETATM   14  C14 UNL     1      26.105   1.056  53.198  1.00  0.00    -0.011 A 
HETATM   15  C15 UNL     1      27.383   1.423  52.925  1.00  0.00     0.014 A 
HETATM   16  C16 UNL     1      28.508   0.893  53.501  1.00  0.00     0.020 A 
HETATM   17  C17 UNL     1      28.380  -0.096  54.440  1.00  0.00     0.117 A 
HETATM   18  N5  UNL     1      27.115  -0.457  54.708  1.00  0.00    -0.262 NA
HETATM   19  C18 UNL     1      25.983   0.022  54.181  1.00  0.00     0.070 A 
HETATM   20  C19 UNL     1      25.253  -0.810  54.993  1.00  0.00     0.181 C 
HETATM   21  N6  UNL     1      23.928  -1.092  55.303  1.00  0.00    -0.210 N 
HETATM   22  H8  UNL     1      21.849   2.145  52.089  1.00  0.00     0.161 HD
HETATM   23  H16 UNL     1      23.676  -1.297  56.301  1.00  0.00     0.178 HD
ENDROOT
BRANCH   1  24
HETATM   24  C3  UNL     1      17.666   0.451  51.284  1.00  0.00     0.010 A 
HETATM   25  C2  UNL     1      16.970   1.640  51.387  1.00  0.00     0.125 A 
HETATM   26  N1  UNL     1      16.180   1.721  50.299  1.00  0.00    -0.285 N 
HETATM   27  C1  UNL     1      15.257   2.796  49.961  1.00  0.00     0.179 C 
HETATM   28  N7  UNL     1      16.342   0.654  49.520  1.00  0.00    -0.185 NA
HETATM   29  C20 UNL     1      17.264  -0.157  50.110  1.00  0.00     0.152 A 
ENDBRANCH   1  24
TORSDOF 1
ENDMDL
MODEL 2
REMARK VINA RESULT:      -9.6      1.737      8.826
REMARK  1 active torsions:
REMARK  status: ('A' for Active; 'I' for Inactive)
REMARK    1  A    between atoms: C3_4  and  C4_5 
ROOT
HETATM    1  C4  UNL     1      26.154   1.484  52.297  1.00  0.00    -0.022 A 
HETATM    2  C5  UNL     1      26.186   2.401  51.238  1.00  0.00     0.014 A 
HETATM    3  C6  UNL     1      25.005   2.873  50.648  1.00  0.00     0.034 A 
HETATM    4  C7  UNL     1      23.815   2.414  51.136  1.00  0.00     0.090 A 
HETATM    5  N2  UNL     1      22.632   2.831  50.582  1.00  0.00    -0.062 NA
HETATM    6  C8  UNL     1      21.478   2.393  51.015  1.00  0.00     0.725 A 
HETATM    7  N3  UNL     1      21.577   1.549  51.999  1.00  0.00    -0.045 NA
HETATM    8  C9  UNL     1      22.660   1.072  52.618  1.00  0.00     0.155 A 
HETATM    9  C10 UNL     1      23.873   1.516  52.177  1.00  0.00     0.040 A 
HETATM   10  C11 UNL     1      24.957   0.993  52.821  1.00  0.00     0.030 A 
HETATM   11  N4  UNL     1      22.419   0.062  53.705  1.00  0.00    -0.370 N 
HETATM   12  C12 UNL     1      21.113  -0.287  53.439  1.00  0.00     0.149 C 
HETATM   13  C13 UNL     1      20.044  -1.093  53.711  1.00  0.00     0.006 C 
HETATM   14  C14 UNL     1      18.914  -0.762  52.996  1.00  0.00    -0.011 A 
HETATM   15  C15 UNL     1      17.851  -1.563  53.259  1.00  0.00     0.014 A 
HETATM   16  C16 UNL     1      16.611  -1.462  52.683  1.00  0.00     0.020 A 
HETATM   17  C17 UNL     1      16.379  -0.482  51.755  1.00  0.00     0.117 A 
HETATM   18  N5  UNL     1      17.433   0.310  51.497  1.00  0.00    -0.262 NA
HETATM   19  C18 UNL     1      18.661   0.259  52.026  1.00  0.00     0.070 A 
HETATM   20  C19 UNL     1      19.022   1.360  51.289  1.00  0.00     0.181 C 
HETATM   21  N6  UNL     1      20.109   2.208  51.116  1.00  0.00    -0.210 N 
HETATM   22  H8  UNL     1      23.197  -0.103  54.318  1.00  0.00     0.161 HD
HETATM   23  H16 UNL     1      19.933   3.234  50.982  1.00  0.00     0.178 HD
ENDROOT
BRANCH   1  24
HETATM   24  C3  UNL     1      27.405   1.013  52.879  1.00  0.00     0.010 A 
HETATM   25  C2  UNL     1      27.891  -0.278  52.954  1.00  0.00     0.125 A 
HETATM   26  N1  UNL     1      29.081  -0.206  53.579  1.00  0.00    -0.285 N 
HETATM   27  C1  UNL     1      29.977  -1.311  53.893  1.00  0.00     0.179 C 
HETATM   28  N7  UNL     1      29.370   1.053  53.898  1.00  0.00    -0.185 NA
HETATM   29  C20 UNL     1      28.341   1.838  53.473  1.00  0.00     0.152 A 
ENDBRANCH   1  24
TORSDOF 1
ENDMDL
MODEL 3
REMARK VINA RESULT:      -9.4      4.880      9.061
REMARK  1 active torsions:
REMARK  status: ('A' for Active; 'I' for Inactive)
REMARK    1  A    between atoms: C3_4  and  C4_5 
ROOT
HETATM    1  C4  UNL     1      25.969   0.691  52.294  1.00  0.00    -0.022 A 
HETATM    2  C5  UNL     1      24.694   0.650  52.873  1.00  0.00     0.014 A 
HETATM    3  C6  UNL     1      23.699   1.568  52.509  1.00  0.00     0.034 A 
HETATM    4  C7  UNL     1      24.007   2.509  51.569  1.00  0.00     0.090 A 
HETATM    5  N2  UNL     1      23.074   3.442  51.191  1.00  0.00    -0.062 NA
HETATM    6  C8  UNL     1      23.347   4.367  50.308  1.00  0.00     0.725 A 
HETATM    7  N3  UNL     1      24.559   4.302  49.843  1.00  0.00    -0.045 NA
HETATM    8  C9  UNL     1      25.546   3.450  50.128  1.00  0.00     0.155 A 
HETATM    9  C10 UNL     1      25.280   2.479  51.050  1.00  0.00     0.040 A 
HETATM   10  C11 UNL     1      26.319   1.638  51.330  1.00  0.00     0.030 A 
HETATM   11  N4  UNL     1      26.857   3.687  49.431  1.00  0.00    -0.370 N 
HETATM   12  C12 UNL     1      26.670   4.971  48.971  1.00  0.00     0.149 C 
HETATM   13  C13 UNL     1      27.188   6.078  48.362  1.00  0.00     0.006 C 
HETATM   14  C14 UNL     1      26.262   7.078  48.162  1.00  0.00    -0.011 A 
HETATM   15  C15 UNL     1      26.774   8.181  47.561  1.00  0.00     0.014 A 
HETATM   16  C16 UNL     1      26.078   9.321  47.254  1.00  0.00     0.020 A 
HETATM   17  C17 UNL     1      24.745   9.398  47.562  1.00  0.00     0.117 A 
HETATM   18  N5  UNL     1      24.241   8.305  48.156  1.00  0.00    -0.262 NA
HETATM   19  C18 UNL     1      24.869   7.168  48.479  1.00  0.00     0.070 A 
HETATM   20  C19 UNL     1      23.688   6.652  48.952  1.00  0.00     0.181 C 
HETATM   21  N6  UNL     1      23.188   5.470  49.486  1.00  0.00    -0.210 N 
HETATM   22  H8  UNL     1      27.503   2.918  49.459  1.00  0.00     0.161 HD
HETATM   23  H16 UNL     1      22.227   5.157  49.206  1.00  0.00     0.178 HD
ENDROOT
BRANCH   1  24
HETATM   24  C3  UNL     1      26.977  -0.279  52.704  1.00  0.00     0.010 A 
HETATM   25  C2  UNL     1      28.248  -0.049  53.195  1.00  0.00     0.125 A 
HETATM   26  N1  UNL     1      28.795  -1.256  53.429  1.00  0.00    -0.285 N 
HETATM   27  C1  UNL     1      30.127  -1.531  53.951  1.00  0.00     0.179 C 
HETATM   28  N7  UNL     1      27.942  -2.229  53.116  1.00  0.00    -0.185 NA
HETATM   29  C20 UNL     1      26.797  -1.648  52.660  1.00  0.00     0.152 A 
ENDBRANCH   1  24
TORSDOF 1
ENDMDL
MODEL 4
REMARK VINA RESULT:      -9.4      4.620      8.672
REMARK  1 active torsions:
REMARK  status: ('A' for Active; 'I' for Inactive)
REMARK    1  A    between atoms: C3_4  and  C4_5 
ROOT
HETATM    1  C4  UNL     1      25.815   5.651  48.984  1.00  0.00    -0.022 A 
HETATM    2  C5  UNL     1      24.743   6.366  48.434  1.00  0.00     0.014 A 
HETATM    3  C6  UNL     1      23.424   6.137  48.850  1.00  0.00     0.034 A 
HETATM    4  C7  UNL     1      23.210   5.192  49.813  1.00  0.00     0.090 A 
HETATM    5  N2  UNL     1      21.936   4.917  50.242  1.00  0.00    -0.062 NA
HETATM    6  C8  UNL     1      21.699   4.004  51.148  1.00  0.00     0.725 A 
HETATM    7  N3  UNL     1      22.771   3.410  51.583  1.00  0.00    -0.045 NA
HETATM    8  C9  UNL     1      24.050   3.589  51.247  1.00  0.00     0.155 A 
HETATM    9  C10 UNL     1      24.317   4.536  50.301  1.00  0.00     0.040 A 
HETATM   10  C11 UNL     1      25.634   4.678  49.970  1.00  0.00     0.030 A 
HETATM   11  N4  UNL     1      25.051   2.692  51.920  1.00  0.00    -0.370 N 
HETATM   12  C12 UNL     1      24.217   1.719  52.426  1.00  0.00     0.149 C 
HETATM   13  C13 UNL     1      24.079   0.517  53.058  1.00  0.00     0.006 C 
HETATM   14  C14 UNL     1      22.767   0.179  53.312  1.00  0.00    -0.011 A 
HETATM   15  C15 UNL     1      22.625  -1.017  53.936  1.00  0.00     0.014 A 
HETATM   16  C16 UNL     1      21.435  -1.595  54.296  1.00  0.00     0.020 A 
HETATM   17  C17 UNL     1      20.262  -0.944  54.022  1.00  0.00     0.117 A 
HETATM   18  N5  UNL     1      20.406   0.239  53.405  1.00  0.00    -0.262 NA
HETATM   19  C18 UNL     1      21.535   0.852  53.031  1.00  0.00     0.070 A 
HETATM   20  C19 UNL     1      20.803   1.917  52.569  1.00  0.00     0.181 C 
HETATM   21  N6  UNL     1      21.001   3.175  52.010  1.00  0.00    -0.210 N 
HETATM   22  H8  UNL     1      26.008   2.989  51.852  1.00  0.00     0.161 HD
HETATM   23  H16 UNL     1      20.372   3.961  52.302  1.00  0.00     0.178 HD
ENDROOT
BRANCH   1  24
HETATM   24  C3  UNL     1      27.171   5.915  48.520  1.00  0.00     0.010 A 
HETATM   25  C2  UNL     1      28.262   5.068  48.508  1.00  0.00     0.125 A 
HETATM   26  N1  UNL     1      29.288   5.765  47.987  1.00  0.00    -0.285 N 
HETATM   27  C1  UNL     1      30.650   5.297  47.773  1.00  0.00     0.179 C 
HETATM   28  N7  UNL     1      28.904   7.000  47.669  1.00  0.00    -0.185 NA
HETATM   29  C20 UNL     1      27.586   7.122  47.991  1.00  0.00     0.152 A 
ENDBRANCH   1  24
TORSDOF 1
ENDMDL
MODEL 5
REMARK VINA RESULT:      -9.1      5.429      9.546
REMARK  1 active torsions:
REMARK  status: ('A' for Active; 'I' for Inactive)
REMARK    1  A    between atoms: C3_4  and  C4_5 
ROOT
HETATM    1  C4  UNL     1      27.189   6.240  48.353  1.00  0.00    -0.022 A 
HETATM    2  C5  UNL     1      26.141   7.026  47.856  1.00  0.00     0.014 A 
HETATM    3  C6  UNL     1      24.825   6.857  48.309  1.00  0.00     0.034 A 
HETATM    4  C7  UNL     1      24.590   5.901  49.256  1.00  0.00     0.090 A 
HETATM    5  N2  UNL     1      23.318   5.683  49.720  1.00  0.00    -0.062 NA
HETATM    6  C8  UNL     1      23.060   4.762  50.610  1.00  0.00     0.725 A 
HETATM    7  N3  UNL     1      24.111   4.100  50.996  1.00  0.00    -0.045 NA
HETATM    8  C9  UNL     1      25.387   4.219  50.622  1.00  0.00     0.155 A 
HETATM    9  C10 UNL     1      25.675   5.174  49.691  1.00  0.00     0.040 A 
HETATM   10  C11 UNL     1      26.986   5.254  49.320  1.00  0.00     0.030 A 
HETATM   11  N4  UNL     1      26.358   3.252  51.240  1.00  0.00    -0.370 N 
HETATM   12  C12 UNL     1      25.489   2.313  51.750  1.00  0.00     0.149 C 
HETATM   13  C13 UNL     1      25.305   1.103  52.357  1.00  0.00     0.006 C 
HETATM   14  C14 UNL     1      23.986   0.830  52.645  1.00  0.00    -0.011 A 
HETATM   15  C15 UNL     1      23.798  -0.372  53.245  1.00  0.00     0.014 A 
HETATM   16  C16 UNL     1      22.591  -0.894  53.629  1.00  0.00     0.020 A 
HETATM   17  C17 UNL     1      21.446  -0.175  53.410  1.00  0.00     0.117 A 
HETATM   18  N5  UNL     1      21.635   1.015  52.817  1.00  0.00    -0.262 NA
HETATM   19  C18 UNL     1      22.784   1.575  52.421  1.00  0.00     0.070 A 
HETATM   20  C19 UNL     1      22.097   2.690  52.009  1.00  0.00     0.181 C 
HETATM   21  N6  UNL     1      22.345   3.949  51.474  1.00  0.00    -0.210 N 
HETATM   22  H8  UNL     1      27.327   3.499  51.148  1.00  0.00     0.161 HD
HETATM   23  H16 UNL     1      21.769   4.760  51.805  1.00  0.00     0.178 HD
ENDROOT
BRANCH   1  24
HETATM   24  C3  UNL     1      28.542   6.444  47.851  1.00  0.00     0.010 A 
HETATM   25  C2  UNL     1      29.674   5.686  48.084  1.00  0.00     0.125 A 
HETATM   26  N1  UNL     1      30.678   6.272  47.405  1.00  0.00    -0.285 N 
HETATM   27  C1  UNL     1      32.067   5.840  47.343  1.00  0.00     0.179 C 
HETATM   28  N7  UNL     1      30.242   7.351  46.759  1.00  0.00    -0.185 NA
HETATM   29  C20 UNL     1      28.910   7.483  47.019  1.00  0.00     0.152 A 
ENDBRANCH   1  24
TORSDOF 1
ENDMDL
MODEL 6
REMARK VINA RESULT:      -8.8      4.749      7.061
REMARK  1 active torsions:
REMARK  status: ('A' for Active; 'I' for Inactive)
REMARK    1  A    between atoms: C3_4  and  C4_5 
ROOT
HETATM    1  C4  UNL     1      24.442   5.847  48.547  1.00  0.00    -0.022 A 
HETATM    2  C5  UNL     1      25.830   6.038  48.574  1.00  0.00     0.014 A 
HETATM    3  C6  UNL     1      26.674   5.155  49.261  1.00  0.00     0.034 A 
HETATM    4  C7  UNL     1      26.104   4.095  49.907  1.00  0.00     0.090 A 
HETATM    5  N2  UNL     1      26.884   3.212  50.609  1.00  0.00    -0.062 NA
HETATM    6  C8  UNL     1      26.365   2.199  51.254  1.00  0.00     0.725 A 
HETATM    7  N3  UNL     1      25.071   2.127  51.155  1.00  0.00    -0.045 NA
HETATM    8  C9  UNL     1      24.212   2.917  50.507  1.00  0.00     0.155 A 
HETATM    9  C10 UNL     1      24.735   3.980  49.831  1.00  0.00     0.040 A 
HETATM   10  C11 UNL     1      23.825   4.776  49.196  1.00  0.00     0.030 A 
HETATM   11  N4  UNL     1      22.755   2.569  50.635  1.00  0.00    -0.370 N 
HETATM   12  C12 UNL     1      22.795   1.707  51.709  1.00  0.00     0.149 C 
HETATM   13  C13 UNL     1      22.117   0.957  52.627  1.00  0.00     0.006 C 
HETATM   14  C14 UNL     1      22.941   0.217  53.446  1.00  0.00    -0.011 A 
HETATM   15  C15 UNL     1      22.273  -0.527  54.363  1.00  0.00     0.014 A 
HETATM   16  C16 UNL     1      22.845  -1.344  55.302  1.00  0.00     0.020 A 
HETATM   17  C17 UNL     1      24.210  -1.452  55.357  1.00  0.00     0.117 A 
HETATM   18  N5  UNL     1      24.869  -0.716  54.448  1.00  0.00    -0.262 NA
HETATM   19  C18 UNL     1      24.367   0.096  53.511  1.00  0.00     0.070 A 
HETATM   20  C19 UNL     1      25.637   0.361  53.062  1.00  0.00     0.181 C 
HETATM   21  N6  UNL     1      26.275   1.070  52.051  1.00  0.00    -0.210 N 
HETATM   22  H8  UNL     1      22.148   3.005  49.964  1.00  0.00     0.161 HD
HETATM   23  H16 UNL     1      27.118   0.646  51.593  1.00  0.00     0.178 HD
ENDROOT
BRANCH   1  24
HETATM   24  C3  UNL     1      23.599   6.792  47.826  1.00  0.00     0.010 A 
HETATM   25  C2  UNL     1      22.249   7.043  47.984  1.00  0.00     0.125 A 
HETATM   26  N1  UNL     1      21.926   7.997  47.092  1.00  0.00    -0.285 N 
HETATM   27  C1  UNL     1      20.614   8.593  46.877  1.00  0.00     0.179 C 
HETATM   28  N7  UNL     1      22.993   8.361  46.384  1.00  0.00    -0.185 NA
HETATM   29  C20 UNL     1      24.053   7.625  46.822  1.00  0.00     0.152 A 
ENDBRANCH   1  24
TORSDOF 1
ENDMDL
MODEL 7
REMARK VINA RESULT:      -8.7      5.964      9.239
REMARK  1 active torsions:
REMARK  status: ('A' for Active; 'I' for Inactive)
REMARK    1  A    between atoms: C3_4  and  C4_5 
ROOT
HETATM    1  C4  UNL     1      25.008   2.210  51.958  1.00  0.00    -0.022 A 
HETATM    2  C5  UNL     1      23.847   2.809  52.462  1.00  0.00     0.014 A 
HETATM    3  C6  UNL     1      23.418   4.064  52.006  1.00  0.00     0.034 A 
HETATM    4  C7  UNL     1      24.166   4.691  51.051  1.00  0.00     0.090 A 
HETATM    5  N2  UNL     1      23.800   5.928  50.585  1.00  0.00    -0.062 NA
HETATM    6  C8  UNL     1      24.508   6.560  49.686  1.00  0.00     0.725 A 
HETATM    7  N3  UNL     1      25.560   5.904  49.295  1.00  0.00    -0.045 NA
HETATM    8  C9  UNL     1      26.016   4.707  49.670  1.00  0.00     0.155 A 
HETATM    9  C10 UNL     1      25.291   4.033  50.610  1.00  0.00     0.040 A 
HETATM   10  C11 UNL     1      25.798   2.821  50.981  1.00  0.00     0.030 A 
HETATM   11  N4  UNL     1      27.306   4.255  49.043  1.00  0.00    -0.370 N 
HETATM   12  C12 UNL     1      27.765   5.446  48.525  1.00  0.00     0.149 C 
HETATM   13  C13 UNL     1      28.766   6.139  47.907  1.00  0.00     0.006 C 
HETATM   14  C14 UNL     1      28.431   7.443  47.616  1.00  0.00    -0.011 A 
HETATM   15  C15 UNL     1      29.424   8.137  47.005  1.00  0.00     0.014 A 
HETATM   16  C16 UNL     1      29.361   9.450  46.616  1.00  0.00     0.020 A 
HETATM   17  C17 UNL     1      28.214  10.164  46.842  1.00  0.00     0.117 A 
HETATM   18  N5  UNL     1      27.233   9.475  47.445  1.00  0.00    -0.262 NA
HETATM   19  C18 UNL     1      27.236   8.198  47.847  1.00  0.00     0.070 A 
HETATM   20  C19 UNL     1      25.936   8.328  48.269  1.00  0.00     0.181 C 
HETATM   21  N6  UNL     1      24.918   7.555  48.815  1.00  0.00    -0.210 N 
HETATM   22  H8  UNL     1      27.510   3.276  49.138  1.00  0.00     0.161 HD
HETATM   23  H16 UNL     1      23.934   7.716  48.491  1.00  0.00     0.178 HD
ENDROOT
BRANCH   1  24
HETATM   24  C3  UNL     1      25.423   0.907  52.462  1.00  0.00     0.010 A 
HETATM   25  C2  UNL     1      26.435   0.085  52.005  1.00  0.00     0.125 A 
HETATM   26  N1  UNL     1      26.431  -1.008  52.791  1.00  0.00    -0.285 N 
HETATM   27  C1  UNL     1      27.316  -2.161  52.699  1.00  0.00     0.179 C 
HETATM   28  N7  UNL     1      25.476  -0.918  53.715  1.00  0.00    -0.185 NA
HETATM   29  C20 UNL     1      24.831   0.268  53.534  1.00  0.00     0.152 A 
ENDBRANCH   1  24
TORSDOF 1
ENDMDL
MODEL 8
REMARK VINA RESULT:      -8.6      7.428     12.503
REMARK  1 active torsions:
REMARK  status: ('A' for Active; 'I' for Inactive)
REMARK    1  A    between atoms: C3_4  and  C4_5 
ROOT
HETATM    1  C4  UNL     1      30.733   6.395  47.437  1.00  0.00    -0.022 A 
HETATM    2  C5  UNL     1      30.505   7.566  46.703  1.00  0.00     0.014 A 
HETATM    3  C6  UNL     1      29.225   8.128  46.604  1.00  0.00     0.034 A 
HETATM    4  C7  UNL     1      28.197   7.499  47.248  1.00  0.00     0.090 A 
HETATM    5  N2  UNL     1      26.921   7.997  47.168  1.00  0.00    -0.062 NA
HETATM    6  C8  UNL     1      25.915   7.406  47.756  1.00  0.00     0.725 A 
HETATM    7  N3  UNL     1      26.250   6.331  48.407  1.00  0.00    -0.045 NA
HETATM    8  C9  UNL     1      27.443   5.753  48.557  1.00  0.00     0.155 A 
HETATM    9  C10 UNL     1      28.506   6.355  47.947  1.00  0.00     0.040 A 
HETATM   10  C11 UNL     1      29.706   5.725  48.107  1.00  0.00     0.030 A 
HETATM   11  N4  UNL     1      27.473   4.474  49.348  1.00  0.00    -0.370 N 
HETATM   12  C12 UNL     1      26.135   4.152  49.356  1.00  0.00     0.149 C 
HETATM   13  C13 UNL     1      25.154   3.255  49.672  1.00  0.00     0.006 C 
HETATM   14  C14 UNL     1      23.884   3.717  49.405  1.00  0.00    -0.011 A 
HETATM   15  C15 UNL     1      22.906   2.828  49.713  1.00  0.00     0.014 A 
HETATM   16  C16 UNL     1      21.561   3.026  49.541  1.00  0.00     0.020 A 
HETATM   17  C17 UNL     1      21.118   4.210  49.016  1.00  0.00     0.117 A 
HETATM   18  N5  UNL     1      22.087   5.089  48.713  1.00  0.00    -0.262 NA
HETATM   19  C18 UNL     1      23.410   4.952  48.858  1.00  0.00     0.070 A 
HETATM   20  C19 UNL     1      23.593   6.227  48.384  1.00  0.00     0.181 C 
HETATM   21  N6  UNL     1      24.619   7.139  48.166  1.00  0.00    -0.210 N 
HETATM   22  H8  UNL     1      28.383   4.184  49.660  1.00  0.00     0.161 HD
HETATM   23  H16 UNL     1      24.446   8.153  48.371  1.00  0.00     0.178 HD
ENDROOT
BRANCH   1  24
HETATM   24  C3  UNL     1      32.078   5.840  47.510  1.00  0.00     0.010 A 
HETATM   25  C2  UNL     1      32.464   4.533  47.740  1.00  0.00     0.125 A 
HETATM   26  N1  UNL     1      33.810   4.517  47.715  1.00  0.00    -0.285 N 
HETATM   27  C1  UNL     1      34.679   3.365  47.908  1.00  0.00     0.179 C 
HETATM   28  N7  UNL     1      34.290   5.737  47.482  1.00  0.00    -0.185 NA
HETATM   29  C20 UNL     1      33.231   6.584  47.349  1.00  0.00     0.152 A 
ENDBRANCH   1  24
TORSDOF 1
ENDMDL
MODEL 9
REMARK VINA RESULT:      -8.5      7.719     10.707
REMARK  1 active torsions:
REMARK  status: ('A' for Active; 'I' for Inactive)
REMARK    1  A    between atoms: C3_4  and  C4_5 
ROOT
HETATM    1  C4  UNL     1      25.408   3.863  49.971  1.00  0.00    -0.022 A 
HETATM    2  C5  UNL     1      24.168   4.395  49.591  1.00  0.00     0.014 A 
HETATM    3  C6  UNL     1      24.082   5.553  48.807  1.00  0.00     0.034 A 
HETATM    4  C7  UNL     1      25.246   6.154  48.420  1.00  0.00     0.090 A 
HETATM    5  N2  UNL     1      25.216   7.301  47.667  1.00  0.00    -0.062 NA
HETATM    6  C8  UNL     1      26.313   7.909  47.298  1.00  0.00     0.725 A 
HETATM    7  N3  UNL     1      27.398   7.322  47.709  1.00  0.00    -0.045 NA
HETATM    8  C9  UNL     1      27.553   6.215  48.439  1.00  0.00     0.155 A 
HETATM    9  C10 UNL     1      26.419   5.568  48.835  1.00  0.00     0.040 A 
HETATM   10  C11 UNL     1      26.617   4.451  49.594  1.00  0.00     0.030 A 
HETATM   11  N4  UNL     1      28.967   5.831  48.779  1.00  0.00    -0.370 N 
HETATM   12  C12 UNL     1      29.625   7.005  48.487  1.00  0.00     0.149 C 
HETATM   13  C13 UNL     1      30.783   7.728  48.508  1.00  0.00     0.006 C 
HETATM   14  C14 UNL     1      30.670   8.960  47.903  1.00  0.00    -0.011 A 
HETATM   15  C15 UNL     1      31.818   9.684  47.925  1.00  0.00     0.014 A 
HETATM   16  C16 UNL     1      31.981  10.941  47.404  1.00  0.00     0.020 A 
HETATM   17  C17 UNL     1      30.920  11.561  46.799  1.00  0.00     0.117 A 
HETATM   18  N5  UNL     1      29.786  10.842  46.777  1.00  0.00    -0.262 NA
HETATM   19  C18 UNL     1      29.568   9.616  47.266  1.00  0.00     0.070 A 
HETATM   20  C19 UNL     1      28.277   9.661  46.801  1.00  0.00     0.181 C 
HETATM   21  N6  UNL     1      27.151   8.851  46.724  1.00  0.00    -0.210 N 
HETATM   22  H8  UNL     1      29.088   4.889  49.107  1.00  0.00     0.161 HD
HETATM   23  H16 UNL     1      26.563   8.885  45.856  1.00  0.00     0.178 HD
ENDROOT
BRANCH   1  24
HETATM   24  C3  UNL     1      25.454   2.660  50.792  1.00  0.00     0.010 A 
HETATM   25  C2  UNL     1      26.555   1.930  51.196  1.00  0.00     0.125 A 
HETATM   26  N1  UNL     1      26.091   0.907  51.938  1.00  0.00    -0.285 N 
HETATM   27  C1  UNL     1      26.874  -0.137  52.583  1.00  0.00     0.179 C 
HETATM   28  N7  UNL     1      24.763   0.953  52.024  1.00  0.00    -0.185 NA
HETATM   29  C20 UNL     1      24.338   2.038  51.318  1.00  0.00     0.152 A 
ENDBRANCH   1  24
TORSDOF 1
ENDMDL
