MODEL 1
REMARK VINA RESULT:      -6.9      0.000      0.000
REMARK  5 active torsions:
REMARK  status: ('A' for Active; 'I' for Inactive)
REMARK    1  A    between atoms: N1_5  and  C5_6 
REMARK    2  A    between atoms: C5_6  and  C6_7 
REMARK    3  A    between atoms: C6_7  and  O1_8 
REMARK    4  A    between atoms: C8_10  and  N2_11 
REMARK    5  A    between atoms: N2_11  and  N3_13 
ROOT
HETATM    1  C1  UNL     1      21.723  -0.106  52.189  1.00  0.00     0.011 C 
HETATM    2  C2  UNL     1      22.732   0.957  51.958  1.00  0.00     0.004 C 
HETATM    3  C3  UNL     1      22.140   2.364  52.098  1.00  0.00     0.025 C 
HETATM    4  C4  UNL     1      23.278   3.324  52.172  1.00  0.00     0.117 C 
HETATM    5  N1  UNL     1      24.522   2.919  51.663  1.00  0.00    -0.409 N 
HETATM    6  C7  UNL     1      25.030   1.649  52.029  1.00  0.00     0.138 C 
HETATM    7  C8  UNL     1      23.951   0.940  52.831  1.00  0.00     0.101 C 
ENDROOT
BRANCH   7   8
HETATM    8  N2  UNL     1      24.342  -0.301  53.376  1.00  0.00    -0.221 NA
HETATM    9  C9  UNL     1      23.482  -0.755  54.415  1.00  0.00     0.137 C 
BRANCH   8  10
HETATM   10  N3  UNL     1      25.695  -0.385  53.710  1.00  0.00    -0.271 N 
HETATM   11  C10 UNL     1      26.151   0.483  54.736  1.00  0.00     0.222 A 
HETATM   12  N4  UNL     1      27.346   0.668  55.158  1.00  0.00    -0.264 NA
HETATM   13  C11 UNL     1      28.632   0.150  54.838  1.00  0.00     0.271 A 
HETATM   14  N5  UNL     1      28.673  -0.883  53.855  1.00  0.00    -0.373 N 
HETATM   15  C12 UNL     1      27.811  -1.628  52.982  1.00  0.00     0.037 A 
HETATM   16  H23 UNL     1      29.686  -1.182  53.749  1.00  0.00     0.161 HD
HETATM   17  C13 UNL     1      26.465  -1.333  52.983  1.00  0.00     0.058 A 
HETATM   18  C14 UNL     1      26.936  -2.406  52.075  1.00  0.00     0.119 A 
ENDBRANCH   8  10
ENDBRANCH   7   8
BRANCH   5  19
HETATM   19  C5  UNL     1      24.938   3.443  50.413  1.00  0.00     0.143 C 
BRANCH  19  20
HETATM   20  C6  UNL     1      26.288   3.026  49.922  1.00  0.00     0.183 C 
BRANCH  20  21
HETATM   21  O1  UNL     1      27.238   3.906  50.445  1.00  0.00    -0.399 OA
HETATM   22  H13 UNL     1      27.024   4.200  51.376  1.00  0.00     0.209 HD
ENDBRANCH  20  21
ENDBRANCH  19  20
ENDBRANCH   5  19
TORSDOF 5
ENDMDL
MODEL 2
REMARK VINA RESULT:      -6.9      1.224      1.559
REMARK  5 active torsions:
REMARK  status: ('A' for Active; 'I' for Inactive)
REMARK    1  A    between atoms: N1_5  and  C5_6 
REMARK    2  A    between atoms: C5_6  and  C6_7 
REMARK    3  A    between atoms: C6_7  and  O1_8 
REMARK    4  A    between atoms: C8_10  and  N2_11 
REMARK    5  A    between atoms: N2_11  and  N3_13 
ROOT
HETATM    1  C1  UNL     1      22.385   1.324  50.818  1.00  0.00     0.011 C 
HETATM    2  C2  UNL     1      23.673   2.050  50.689  1.00  0.00     0.004 C 
HETATM    3  C3  UNL     1      23.477   3.564  50.544  1.00  0.00     0.025 C 
HETATM    4  C4  UNL     1      24.805   4.209  50.749  1.00  0.00     0.117 C 
HETATM    5  N1  UNL     1      25.958   3.430  50.561  1.00  0.00    -0.409 N 
HETATM    6  C7  UNL     1      26.024   2.151  51.164  1.00  0.00     0.138 C 
HETATM    7  C8  UNL     1      24.669   1.873  51.794  1.00  0.00     0.101 C 
ENDROOT
BRANCH   7   8
HETATM    8  N2  UNL     1      24.602   0.679  52.543  1.00  0.00    -0.221 NA
HETATM    9  C9  UNL     1      23.479   0.625  53.416  1.00  0.00     0.137 C 
BRANCH   8  10
HETATM   10  N3  UNL     1      25.798   0.320  53.167  1.00  0.00    -0.271 N 
HETATM   11  C10 UNL     1      26.286   1.206  54.163  1.00  0.00     0.222 A 
HETATM   12  N4  UNL     1      27.390   1.158  54.809  1.00  0.00    -0.264 NA
HETATM   13  C11 UNL     1      28.520   0.293  54.833  1.00  0.00     0.271 A 
HETATM   14  N5  UNL     1      28.450  -0.866  54.004  1.00  0.00    -0.373 N 
HETATM   15  C12 UNL     1      27.586  -1.509  53.056  1.00  0.00     0.037 A 
HETATM   16  H23 UNL     1      29.343  -1.418  54.153  1.00  0.00     0.161 HD
HETATM   17  C13 UNL     1      26.394  -0.895  52.734  1.00  0.00     0.058 A 
HETATM   18  C14 UNL     1      26.705  -2.186  52.075  1.00  0.00     0.119 A 
ENDBRANCH   8  10
ENDBRANCH   7   8
BRANCH   5  19
HETATM   19  C5  UNL     1      26.712   3.623  49.377  1.00  0.00     0.143 C 
BRANCH  19  20
HETATM   20  C6  UNL     1      27.016   5.036  48.992  1.00  0.00     0.183 C 
BRANCH  20  21
HETATM   21  O1  UNL     1      28.395   5.234  49.097  1.00  0.00    -0.399 OA
HETATM   22  H13 UNL     1      28.900   4.382  49.226  1.00  0.00     0.209 HD
ENDBRANCH  20  21
ENDBRANCH  19  20
ENDBRANCH   5  19
TORSDOF 5
ENDMDL
MODEL 3
REMARK VINA RESULT:      -6.7      2.340      3.754
REMARK  5 active torsions:
REMARK  status: ('A' for Active; 'I' for Inactive)
REMARK    1  A    between atoms: N1_5  and  C5_6 
REMARK    2  A    between atoms: C5_6  and  C6_7 
REMARK    3  A    between atoms: C6_7  and  O1_8 
REMARK    4  A    between atoms: C8_10  and  N2_11 
REMARK    5  A    between atoms: N2_11  and  N3_13 
ROOT
HETATM    1  C1  UNL     1      23.776   3.911  51.656  1.00  0.00     0.011 C 
HETATM    2  C2  UNL     1      23.439   2.576  52.207  1.00  0.00     0.004 C 
HETATM    3  C3  UNL     1      22.180   1.981  51.565  1.00  0.00     0.025 C 
HETATM    4  C4  UNL     1      22.122   0.541  51.943  1.00  0.00     0.117 C 
HETATM    5  N1  UNL     1      22.836   0.122  53.077  1.00  0.00    -0.409 N 
HETATM    6  C7  UNL     1      24.182   0.534  53.228  1.00  0.00     0.138 C 
HETATM    7  C8  UNL     1      24.489   1.511  52.105  1.00  0.00     0.101 C 
ENDROOT
BRANCH   7   8
HETATM    8  N2  UNL     1      25.834   1.931  52.040  1.00  0.00    -0.221 NA
HETATM    9  C9  UNL     1      26.302   2.115  50.709  1.00  0.00     0.137 C 
BRANCH   8  10
HETATM   10  N3  UNL     1      26.711   1.185  52.831  1.00  0.00    -0.271 N 
HETATM   11  C10 UNL     1      27.372   1.882  53.876  1.00  0.00     0.222 A 
HETATM   12  N4  UNL     1      28.282   1.460  54.672  1.00  0.00    -0.264 NA
HETATM   13  C11 UNL     1      28.980   0.234  54.863  1.00  0.00     0.271 A 
HETATM   14  N5  UNL     1      28.575  -0.862  54.045  1.00  0.00    -0.373 N 
HETATM   15  C12 UNL     1      27.657  -1.188  52.991  1.00  0.00     0.037 A 
HETATM   16  H23 UNL     1      29.161  -1.701  54.324  1.00  0.00     0.161 HD
HETATM   17  C13 UNL     1      26.844  -0.190  52.498  1.00  0.00     0.058 A 
HETATM   18  C14 UNL     1      26.716  -1.542  51.903  1.00  0.00     0.119 A 
ENDBRANCH   8  10
ENDBRANCH   7   8
BRANCH   5  19
HETATM   19  C5  UNL     1      22.110  -0.152  54.263  1.00  0.00     0.143 C 
BRANCH  19  20
HETATM   20  C6  UNL     1      21.960  -1.590  54.647  1.00  0.00     0.183 C 
BRANCH  20  21
HETATM   21  O1  UNL     1      22.772  -1.837  55.755  1.00  0.00    -0.399 OA
HETATM   22  H13 UNL     1      23.568  -1.234  55.795  1.00  0.00     0.209 HD
ENDBRANCH  20  21
ENDBRANCH  19  20
ENDBRANCH   5  19
TORSDOF 5
ENDMDL
MODEL 4
REMARK VINA RESULT:      -6.7      1.968      5.141
REMARK  5 active torsions:
REMARK  status: ('A' for Active; 'I' for Inactive)
REMARK    1  A    between atoms: N1_5  and  C5_6 
REMARK    2  A    between atoms: C5_6  and  C6_7 
REMARK    3  A    between atoms: C6_7  and  O1_8 
REMARK    4  A    between atoms: C8_10  and  N2_11 
REMARK    5  A    between atoms: N2_11  and  N3_13 
ROOT
HETATM    1  C1  UNL     1      21.465   1.078  53.139  1.00  0.00     0.011 C 
HETATM    2  C2  UNL     1      22.943   0.962  53.173  1.00  0.00     0.004 C 
HETATM    3  C3  UNL     1      23.409  -0.466  53.484  1.00  0.00     0.025 C 
HETATM    4  C4  UNL     1      24.865  -0.539  53.177  1.00  0.00     0.117 C 
HETATM    5  N1  UNL     1      25.598   0.658  53.143  1.00  0.00    -0.409 N 
HETATM    6  C7  UNL     1      25.079   1.757  52.417  1.00  0.00     0.138 C 
HETATM    7  C8  UNL     1      23.689   1.372  51.939  1.00  0.00     0.101 C 
ENDROOT
BRANCH   7   8
HETATM    8  N2  UNL     1      23.073   2.320  51.094  1.00  0.00    -0.221 NA
HETATM    9  C9  UNL     1      22.747   1.800  49.810  1.00  0.00     0.137 C 
BRANCH   8  10
HETATM   10  N3  UNL     1      23.725   3.553  51.036  1.00  0.00    -0.271 N 
HETATM   11  C10 UNL     1      23.119   4.626  51.741  1.00  0.00     0.222 A 
HETATM   12  N4  UNL     1      23.459   5.860  51.770  1.00  0.00    -0.264 NA
HETATM   13  C11 UNL     1      24.485   6.649  51.179  1.00  0.00     0.271 A 
HETATM   14  N5  UNL     1      25.454   5.950  50.399  1.00  0.00    -0.373 N 
HETATM   15  C12 UNL     1      25.771   4.629  49.937  1.00  0.00     0.037 A 
HETATM   16  H23 UNL     1      26.161   6.662  50.056  1.00  0.00     0.161 HD
HETATM   17  C13 UNL     1      24.925   3.595  50.276  1.00  0.00     0.058 A 
HETATM   18  C14 UNL     1      26.113   3.272  49.451  1.00  0.00     0.119 A 
ENDBRANCH   8  10
ENDBRANCH   7   8
BRANCH   5  19
HETATM   19  C5  UNL     1      26.451   0.953  54.236  1.00  0.00     0.143 C 
BRANCH  19  20
HETATM   20  C6  UNL     1      27.829   1.433  53.907  1.00  0.00     0.183 C 
BRANCH  20  21
HETATM   21  O1  UNL     1      27.899   2.799  54.188  1.00  0.00    -0.399 OA
HETATM   22  H13 UNL     1      28.837   3.143  54.210  1.00  0.00     0.209 HD
ENDBRANCH  20  21
ENDBRANCH  19  20
ENDBRANCH   5  19
TORSDOF 5
ENDMDL
MODEL 5
REMARK VINA RESULT:      -6.5      2.074      5.222
REMARK  5 active torsions:
REMARK  status: ('A' for Active; 'I' for Inactive)
REMARK    1  A    between atoms: N1_5  and  C5_6 
REMARK    2  A    between atoms: C5_6  and  C6_7 
REMARK    3  A    between atoms: C6_7  and  O1_8 
REMARK    4  A    between atoms: C8_10  and  N2_11 
REMARK    5  A    between atoms: N2_11  and  N3_13 
ROOT
HETATM    1  C1  UNL     1      24.575   2.897  53.331  1.00  0.00     0.011 C 
HETATM    2  C2  UNL     1      25.499   1.737  53.373  1.00  0.00     0.004 C 
HETATM    3  C3  UNL     1      26.095   1.516  54.768  1.00  0.00     0.025 C 
HETATM    4  C4  UNL     1      26.731   0.169  54.776  1.00  0.00     0.117 C 
HETATM    5  N1  UNL     1      27.089  -0.404  53.545  1.00  0.00    -0.409 N 
HETATM    6  C7  UNL     1      26.146  -0.399  52.489  1.00  0.00     0.138 C 
HETATM    7  C8  UNL     1      24.945   0.409  52.953  1.00  0.00     0.101 C 
ENDROOT
BRANCH   7   8
HETATM    8  N2  UNL     1      23.857   0.414  52.055  1.00  0.00    -0.221 NA
HETATM    9  C9  UNL     1      23.763   1.612  51.292  1.00  0.00     0.137 C 
BRANCH   8  10
HETATM   10  N3  UNL     1      22.640   0.028  52.619  1.00  0.00    -0.271 N 
HETATM   11  C10 UNL     1      21.472   0.297  51.857  1.00  0.00     0.222 A 
HETATM   12  N4  UNL     1      20.245   0.132  52.183  1.00  0.00    -0.264 NA
HETATM   13  C11 UNL     1      19.551  -0.345  53.330  1.00  0.00     0.271 A 
HETATM   14  N5  UNL     1      20.355  -0.840  54.400  1.00  0.00    -0.373 N 
HETATM   15  C12 UNL     1      21.730  -1.016  54.772  1.00  0.00     0.037 A 
HETATM   16  H23 UNL     1      19.699  -1.182  55.159  1.00  0.00     0.161 HD
HETATM   17  C13 UNL     1      22.706  -0.590  53.897  1.00  0.00     0.058 A 
HETATM   18  C14 UNL     1      23.144  -1.206  55.173  1.00  0.00     0.119 A 
ENDBRANCH   8  10
ENDBRANCH   7   8
BRANCH   5  19
HETATM   19  C5  UNL     1      28.459  -0.415  53.184  1.00  0.00     0.143 C 
BRANCH  19  20
HETATM   20  C6  UNL     1      29.346   0.578  53.864  1.00  0.00     0.183 C 
BRANCH  20  21
HETATM   21  O1  UNL     1      29.322   1.766  53.130  1.00  0.00    -0.399 OA
HETATM   22  H13 UNL     1      29.109   2.565  53.692  1.00  0.00     0.209 HD
ENDBRANCH  20  21
ENDBRANCH  19  20
ENDBRANCH   5  19
TORSDOF 5
ENDMDL
MODEL 6
REMARK VINA RESULT:      -6.4      2.904      6.282
REMARK  5 active torsions:
REMARK  status: ('A' for Active; 'I' for Inactive)
REMARK    1  A    between atoms: N1_5  and  C5_6 
REMARK    2  A    between atoms: C5_6  and  C6_7 
REMARK    3  A    between atoms: C6_7  and  O1_8 
REMARK    4  A    between atoms: C8_10  and  N2_11 
REMARK    5  A    between atoms: N2_11  and  N3_13 
ROOT
HETATM    1  C1  UNL     1      25.440   3.325  49.642  1.00  0.00     0.011 C 
HETATM    2  C2  UNL     1      25.149   2.585  50.894  1.00  0.00     0.004 C 
HETATM    3  C3  UNL     1      26.400   2.390  51.759  1.00  0.00     0.025 C 
HETATM    4  C4  UNL     1      25.948   1.939  53.105  1.00  0.00     0.117 C 
HETATM    5  N1  UNL     1      24.677   1.353  53.218  1.00  0.00    -0.409 N 
HETATM    6  C7  UNL     1      23.572   1.992  52.605  1.00  0.00     0.138 C 
HETATM    7  C8  UNL     1      24.112   3.167  51.806  1.00  0.00     0.101 C 
ENDROOT
BRANCH   7   8
HETATM    8  N2  UNL     1      23.122   3.987  51.223  1.00  0.00    -0.221 NA
HETATM    9  C9  UNL     1      23.075   5.295  51.781  1.00  0.00     0.137 C 
BRANCH   8  10
HETATM   10  N3  UNL     1      21.865   3.390  51.119  1.00  0.00    -0.271 N 
HETATM   11  C10 UNL     1      20.899   3.770  52.088  1.00  0.00     0.222 A 
HETATM   12  N4  UNL     1      19.719   3.308  52.270  1.00  0.00    -0.264 NA
HETATM   13  C11 UNL     1      18.910   2.310  51.658  1.00  0.00     0.271 A 
HETATM   14  N5  UNL     1      19.457   1.665  50.509  1.00  0.00    -0.373 N 
HETATM   15  C12 UNL     1      20.643   1.645  49.700  1.00  0.00     0.037 A 
HETATM   16  H23 UNL     1      18.732   0.978  50.153  1.00  0.00     0.161 HD
HETATM   17  C13 UNL     1      21.692   2.465  50.054  1.00  0.00     0.058 A 
HETATM   18  C14 UNL     1      21.859   1.610  48.855  1.00  0.00     0.119 A 
ENDBRANCH   8  10
ENDBRANCH   7   8
BRANCH   5  19
HETATM   19  C5  UNL     1      24.599  -0.053  53.378  1.00  0.00     0.143 C 
BRANCH  19  20
HETATM   20  C6  UNL     1      25.821  -0.744  53.894  1.00  0.00     0.183 C 
BRANCH  20  21
HETATM   21  O1  UNL     1      25.681  -0.916  55.273  1.00  0.00    -0.399 OA
HETATM   22  H13 UNL     1      24.855  -0.484  55.635  1.00  0.00     0.209 HD
ENDBRANCH  20  21
ENDBRANCH  19  20
ENDBRANCH   5  19
TORSDOF 5
ENDMDL
MODEL 7
REMARK VINA RESULT:      -6.4      2.988      6.290
REMARK  5 active torsions:
REMARK  status: ('A' for Active; 'I' for Inactive)
REMARK    1  A    between atoms: N1_5  and  C5_6 
REMARK    2  A    between atoms: C5_6  and  C6_7 
REMARK    3  A    between atoms: C6_7  and  O1_8 
REMARK    4  A    between atoms: C8_10  and  N2_11 
REMARK    5  A    between atoms: N2_11  and  N3_13 
ROOT
HETATM    1  C1  UNL     1      23.242   4.042  52.697  1.00  0.00     0.011 C 
HETATM    2  C2  UNL     1      24.537   3.332  52.562  1.00  0.00     0.004 C 
HETATM    3  C3  UNL     1      24.545   1.988  53.300  1.00  0.00     0.025 C 
HETATM    4  C4  UNL     1      25.741   1.229  52.838  1.00  0.00     0.117 C 
HETATM    5  N1  UNL     1      26.804   1.948  52.268  1.00  0.00    -0.409 N 
HETATM    6  C7  UNL     1      26.521   2.915  51.274  1.00  0.00     0.138 C 
HETATM    7  C8  UNL     1      25.009   3.033  51.171  1.00  0.00     0.101 C 
ENDROOT
BRANCH   7   8
HETATM    8  N2  UNL     1      24.554   3.877  50.136  1.00  0.00    -0.221 NA
HETATM    9  C9  UNL     1      23.989   3.167  49.039  1.00  0.00     0.137 C 
BRANCH   8  10
HETATM   10  N3  UNL     1      25.469   4.854  49.742  1.00  0.00    -0.271 N 
HETATM   11  C10 UNL     1      26.544   4.424  48.920  1.00  0.00     0.222 A 
HETATM   12  N4  UNL     1      27.555   5.092  48.506  1.00  0.00    -0.264 NA
HETATM   13  C11 UNL     1      28.025   6.426  48.655  1.00  0.00     0.271 A 
HETATM   14  N5  UNL     1      27.180   7.320  49.379  1.00  0.00    -0.373 N 
HETATM   15  C12 UNL     1      25.936   7.346  50.094  1.00  0.00     0.037 A 
HETATM   16  H23 UNL     1      27.648   8.272  49.378  1.00  0.00     0.161 HD
HETATM   17  C13 UNL     1      25.222   6.173  50.209  1.00  0.00     0.058 A 
HETATM   18  C14 UNL     1      24.654   7.391  50.835  1.00  0.00     0.119 A 
ENDBRANCH   8  10
ENDBRANCH   7   8
BRANCH   5  19
HETATM   19  C5  UNL     1      27.972   2.148  53.046  1.00  0.00     0.143 C 
BRANCH  19  20
HETATM   20  C6  UNL     1      28.511   0.958  53.775  1.00  0.00     0.183 C 
BRANCH  20  21
HETATM   21  O1  UNL     1      29.870   0.839  53.479  1.00  0.00    -0.399 OA
HETATM   22  H13 UNL     1      30.227  -0.077  53.659  1.00  0.00     0.209 HD
ENDBRANCH  20  21
ENDBRANCH  19  20
ENDBRANCH   5  19
TORSDOF 5
ENDMDL
MODEL 8
REMARK VINA RESULT:      -5.9      3.763      5.932
REMARK  5 active torsions:
REMARK  status: ('A' for Active; 'I' for Inactive)
REMARK    1  A    between atoms: N1_5  and  C5_6 
REMARK    2  A    between atoms: C5_6  and  C6_7 
REMARK    3  A    between atoms: C6_7  and  O1_8 
REMARK    4  A    between atoms: C8_10  and  N2_11 
REMARK    5  A    between atoms: N2_11  and  N3_13 
ROOT
HETATM    1  C1  UNL     1      25.857   3.249  49.443  1.00  0.00     0.011 C 
HETATM    2  C2  UNL     1      24.801   4.289  49.498  1.00  0.00     0.004 C 
HETATM    3  C3  UNL     1      25.195   5.560  48.735  1.00  0.00     0.025 C 
HETATM    4  C4  UNL     1      23.965   6.388  48.581  1.00  0.00     0.117 C 
HETATM    5  N1  UNL     1      22.898   6.165  49.466  1.00  0.00    -0.409 N 
HETATM    6  C7  UNL     1      22.472   4.836  49.701  1.00  0.00     0.138 C 
HETATM    7  C8  UNL     1      23.444   3.912  48.986  1.00  0.00     0.101 C 
ENDROOT
BRANCH   7   8
HETATM    8  N2  UNL     1      23.093   2.546  49.023  1.00  0.00    -0.221 NA
HETATM    9  C9  UNL     1      22.531   2.077  47.803  1.00  0.00     0.137 C 
BRANCH   8  10
HETATM   10  N3  UNL     1      22.355   2.169  50.146  1.00  0.00    -0.271 N 
HETATM   11  C10 UNL     1      20.942   2.222  50.025  1.00  0.00     0.222 A 
HETATM   12  N4  UNL     1      20.051   2.022  50.923  1.00  0.00    -0.264 NA
HETATM   13  C11 UNL     1      20.055   1.689  52.306  1.00  0.00     0.271 A 
HETATM   14  N5  UNL     1      21.330   1.437  52.895  1.00  0.00    -0.373 N 
HETATM   15  C12 UNL     1      22.727   1.425  52.567  1.00  0.00     0.037 A 
HETATM   16  H23 UNL     1      21.166   1.175  53.909  1.00  0.00     0.161 HD
HETATM   17  C13 UNL     1      23.103   1.774  51.288  1.00  0.00     0.058 A 
HETATM   18  C14 UNL     1      24.174   1.409  52.247  1.00  0.00     0.119 A 
ENDBRANCH   8  10
ENDBRANCH   7   8
BRANCH   5  19
HETATM   19  C5  UNL     1      22.681   7.105  50.505  1.00  0.00     0.143 C 
BRANCH  19  20
HETATM   20  C6  UNL     1      23.886   7.811  51.040  1.00  0.00     0.183 C 
BRANCH  20  21
HETATM   21  O1  UNL     1      24.482   6.997  52.005  1.00  0.00    -0.399 OA
HETATM   22  H13 UNL     1      24.632   7.470  52.872  1.00  0.00     0.209 HD
ENDBRANCH  20  21
ENDBRANCH  19  20
ENDBRANCH   5  19
TORSDOF 5
ENDMDL
MODEL 9
REMARK VINA RESULT:      -5.9      2.553      6.174
REMARK  5 active torsions:
REMARK  status: ('A' for Active; 'I' for Inactive)
REMARK    1  A    between atoms: N1_5  and  C5_6 
REMARK    2  A    between atoms: C5_6  and  C6_7 
REMARK    3  A    between atoms: C6_7  and  O1_8 
REMARK    4  A    between atoms: C8_10  and  N2_11 
REMARK    5  A    between atoms: N2_11  and  N3_13 
ROOT
HETATM    1  C1  UNL     1      26.537   3.470  50.168  1.00  0.00     0.011 C 
HETATM    2  C2  UNL     1      26.134   2.470  51.187  1.00  0.00     0.004 C 
HETATM    3  C3  UNL     1      27.231   2.225  52.230  1.00  0.00     0.025 C 
HETATM    4  C4  UNL     1      26.615   1.475  53.361  1.00  0.00     0.117 C 
HETATM    5  N1  UNL     1      25.432   0.760  53.117  1.00  0.00    -0.409 N 
HETATM    6  C7  UNL     1      24.376   1.402  52.426  1.00  0.00     0.138 C 
HETATM    7  C8  UNL     1      24.888   2.759  51.969  1.00  0.00     0.101 C 
ENDROOT
BRANCH   7   8
HETATM    8  N2  UNL     1      23.916   3.580  51.361  1.00  0.00    -0.221 NA
HETATM    9  C9  UNL     1      23.432   4.607  52.219  1.00  0.00     0.137 C 
BRANCH   8  10
HETATM   10  N3  UNL     1      22.895   2.885  50.710  1.00  0.00    -0.271 N 
HETATM   11  C10 UNL     1      23.119   2.556  49.347  1.00  0.00     0.222 A 
HETATM   12  N4  UNL     1      22.317   2.014  48.511  1.00  0.00    -0.264 NA
HETATM   13  C11 UNL     1      20.976   1.537  48.546  1.00  0.00     0.271 A 
HETATM   14  N5  UNL     1      20.319   1.582  49.812  1.00  0.00    -0.373 N 
HETATM   15  C12 UNL     1      20.538   1.998  51.167  1.00  0.00     0.037 A 
HETATM   16  H23 UNL     1      19.351   1.169  49.683  1.00  0.00     0.161 HD
HETATM   17  C13 UNL     1      21.744   2.583  51.487  1.00  0.00     0.058 A 
HETATM   18  C14 UNL     1      20.747   2.422  52.572  1.00  0.00     0.119 A 
ENDBRANCH   8  10
ENDBRANCH   7   8
BRANCH   5  19
HETATM   19  C5  UNL     1      25.510  -0.650  53.006  1.00  0.00     0.143 C 
BRANCH  19  20
HETATM   20  C6  UNL     1      26.879  -1.245  52.906  1.00  0.00     0.183 C 
BRANCH  20  21
HETATM   21  O1  UNL     1      26.783  -2.457  52.219  1.00  0.00    -0.399 OA
HETATM   22  H13 UNL     1      26.861  -3.251  52.820  1.00  0.00     0.209 HD
ENDBRANCH  20  21
ENDBRANCH  19  20
ENDBRANCH   5  19
TORSDOF 5
ENDMDL
