MODEL 1
REMARK VINA RESULT:      -9.2      0.000      0.000
REMARK  6 active torsions:
REMARK  status: ('A' for Active; 'I' for Inactive)
REMARK    1  A    between atoms: C2_2  and  N1_3 
REMARK    2  A    between atoms: C2_2  and  C14_19 
REMARK    3  A    between atoms: N1_3  and  C3_4 
REMARK    4  A    between atoms: C7_10  and  C8_11 
REMARK    5  A    between atoms: C11_14  and  O1_15 
REMARK    6  A    between atoms: C17_22  and  C18_23 
ROOT
HETATM    1  C3  UNL     1      24.185   4.268  49.125  1.00  0.00     0.157 A 
HETATM    2  N2  UNL     1      24.026   5.397  48.478  1.00  0.00    -0.224 NA
HETATM    3  C4  UNL     1      25.161   6.230  48.746  1.00  0.00     0.232 A 
HETATM    4  N3  UNL     1      25.989   5.632  49.533  1.00  0.00    -0.239 NA
HETATM    5  C5  UNL     1      25.449   4.354  49.837  1.00  0.00     0.208 A 
HETATM    6  C6  UNL     1      26.363   3.202  49.760  1.00  0.00     0.066 A 
HETATM    7  C7  UNL     1      26.327   2.881  51.055  1.00  0.00     0.041 A 
HETATM    8  N4  UNL     1      25.434   3.978  51.232  1.00  0.00    -0.352 N 
HETATM    9  H13 UNL     1      24.930   4.391  52.062  1.00  0.00     0.163 HD
ENDROOT
BRANCH   1  10
HETATM   10  N1  UNL     1      23.242   3.197  49.087  1.00  0.00    -0.366 N 
HETATM   11  H5  UNL     1      23.417   2.437  48.363  1.00  0.00     0.161 HD
BRANCH  10  12
HETATM   12  C2  UNL     1      22.106   3.192  50.018  1.00  0.00     0.112 C 
HETATM   13  C1  UNL     1      20.797   3.192  49.269  1.00  0.00     0.037 C 
BRANCH  12  14
HETATM   14  C14 UNL     1      22.195   2.143  51.039  1.00  0.00    -0.036 A 
HETATM   15  C15 UNL     1      22.960   2.334  52.168  1.00  0.00     0.010 A 
HETATM   16  C16 UNL     1      23.046   1.346  53.134  1.00  0.00     0.017 A 
HETATM   17  C17 UNL     1      22.322   0.176  52.888  1.00  0.00     0.047 A 
HETATM   18  C19 UNL     1      21.550  -0.020  51.751  1.00  0.00     0.017 A 
HETATM   19  C20 UNL     1      21.483   0.983  50.804  1.00  0.00     0.010 A 
BRANCH  17  20
HETATM   20  C18 UNL     1      22.469  -0.846  53.984  1.00  0.00     0.417 C 
HETATM   21  F1  UNL     1      23.829  -1.017  54.262  1.00  0.00    -0.166 F 
HETATM   22  F2  UNL     1      21.903  -2.050  53.618  1.00  0.00    -0.166 F 
HETATM   23  F3  UNL     1      21.866  -0.430  55.155  1.00  0.00    -0.166 F 
ENDBRANCH  17  20
ENDBRANCH  12  14
ENDBRANCH  10  12
ENDBRANCH   1  10
BRANCH   7  24
HETATM   24  C8  UNL     1      26.933   1.861  51.906  1.00  0.00    -0.010 A 
HETATM   25  C9  UNL     1      26.454   0.562  51.813  1.00  0.00     0.016 A 
HETATM   26  C10 UNL     1      27.043  -0.392  52.629  1.00  0.00     0.037 A 
HETATM   27  C11 UNL     1      28.062  -0.077  53.501  1.00  0.00     0.065 A 
HETATM   28  C12 UNL     1      28.473   1.232  53.525  1.00  0.00     0.037 A 
HETATM   29  C13 UNL     1      27.950   2.235  52.757  1.00  0.00     0.016 A 
BRANCH  27  30
HETATM   30  O1  UNL     1      28.697  -0.978  54.344  1.00  0.00    -0.361 OA
HETATM   31  H10 UNL     1      29.678  -0.925  54.562  1.00  0.00     0.217 HD
ENDBRANCH  27  30
ENDBRANCH   7  24
TORSDOF 6
ENDMDL
MODEL 2
REMARK VINA RESULT:      -9.1      3.197      5.504
REMARK  6 active torsions:
REMARK  status: ('A' for Active; 'I' for Inactive)
REMARK    1  A    between atoms: C2_2  and  N1_3 
REMARK    2  A    between atoms: C2_2  and  C14_19 
REMARK    3  A    between atoms: N1_3  and  C3_4 
REMARK    4  A    between atoms: C7_10  and  C8_11 
REMARK    5  A    between atoms: C11_14  and  O1_15 
REMARK    6  A    between atoms: C17_22  and  C18_23 
ROOT
HETATM    1  C3  UNL     1      27.187   1.755  52.301  1.00  0.00     0.157 A 
HETATM    2  N2  UNL     1      28.420   2.036  52.646  1.00  0.00    -0.224 NA
HETATM    3  C4  UNL     1      28.620   1.589  53.994  1.00  0.00     0.232 A 
HETATM    4  N3  UNL     1      27.544   1.053  54.460  1.00  0.00    -0.239 NA
HETATM    5  C5  UNL     1      26.556   1.111  53.441  1.00  0.00     0.208 A 
HETATM    6  C6  UNL     1      25.772  -0.110  53.195  1.00  0.00     0.066 A 
HETATM    7  C7  UNL     1      24.587   0.383  53.563  1.00  0.00     0.041 A 
HETATM    8  N4  UNL     1      25.259   1.611  53.832  1.00  0.00    -0.352 N 
HETATM    9  H13 UNL     1      24.951   2.556  54.186  1.00  0.00     0.163 HD
ENDROOT
BRANCH   1  10
HETATM   10  N1  UNL     1      26.638   2.060  51.019  1.00  0.00    -0.366 N 
HETATM   11  H5  UNL     1      26.684   1.287  50.288  1.00  0.00     0.161 HD
BRANCH  10  12
HETATM   12  C2  UNL     1      26.053   3.383  50.772  1.00  0.00     0.112 C 
HETATM   13  C1  UNL     1      26.554   3.958  49.470  1.00  0.00     0.037 C 
BRANCH  12  14
HETATM   14  C14 UNL     1      24.593   3.407  50.897  1.00  0.00    -0.036 A 
HETATM   15  C15 UNL     1      23.998   3.998  51.990  1.00  0.00     0.010 A 
HETATM   16  C16 UNL     1      22.619   4.022  52.112  1.00  0.00     0.017 A 
HETATM   17  C17 UNL     1      21.896   3.422  51.077  1.00  0.00     0.047 A 
HETATM   18  C19 UNL     1      22.492   2.826  49.974  1.00  0.00     0.017 A 
HETATM   19  C20 UNL     1      23.870   2.816  49.880  1.00  0.00     0.010 A 
BRANCH  17  20
HETATM   20  C18 UNL     1      20.407   3.491  51.285  1.00  0.00     0.417 C 
HETATM   21  F1  UNL     1      19.795   2.507  50.501  1.00  0.00    -0.166 F 
HETATM   22  F2  UNL     1      19.916   4.738  50.951  1.00  0.00    -0.166 F 
HETATM   23  F3  UNL     1      20.061   3.234  52.598  1.00  0.00    -0.166 F 
ENDBRANCH  17  20
ENDBRANCH  12  14
ENDBRANCH  10  12
ENDBRANCH   1  10
BRANCH   7  24
HETATM   24  C8  UNL     1      23.218  -0.116  53.650  1.00  0.00    -0.010 A 
HETATM   25  C9  UNL     1      22.302   0.316  52.700  1.00  0.00     0.016 A 
HETATM   26  C10 UNL     1      21.007  -0.171  52.800  1.00  0.00     0.037 A 
HETATM   27  C11 UNL     1      20.631  -1.046  53.794  1.00  0.00     0.065 A 
HETATM   28  C12 UNL     1      21.603  -1.420  54.689  1.00  0.00     0.037 A 
HETATM   29  C13 UNL     1      22.900  -0.992  54.666  1.00  0.00     0.016 A 
BRANCH  27  30
HETATM   30  O1  UNL     1      19.357  -1.572  53.954  1.00  0.00    -0.361 OA
HETATM   31  H10 UNL     1      19.175  -2.561  53.998  1.00  0.00     0.217 HD
ENDBRANCH  27  30
ENDBRANCH   7  24
TORSDOF 6
ENDMDL
MODEL 3
REMARK VINA RESULT:      -8.8      3.045      5.205
REMARK  6 active torsions:
REMARK  status: ('A' for Active; 'I' for Inactive)
REMARK    1  A    between atoms: C2_2  and  N1_3 
REMARK    2  A    between atoms: C2_2  and  C14_19 
REMARK    3  A    between atoms: N1_3  and  C3_4 
REMARK    4  A    between atoms: C7_10  and  C8_11 
REMARK    5  A    between atoms: C11_14  and  O1_15 
REMARK    6  A    between atoms: C17_22  and  C18_23 
ROOT
HETATM    1  C3  UNL     1      20.768   1.038  50.747  1.00  0.00     0.157 A 
HETATM    2  N2  UNL     1      19.486   0.828  50.569  1.00  0.00    -0.224 NA
HETATM    3  C4  UNL     1      19.008   1.775  49.605  1.00  0.00     0.232 A 
HETATM    4  N3  UNL     1      19.965   2.542  49.206  1.00  0.00    -0.239 NA
HETATM    5  C5  UNL     1      21.148   2.146  49.887  1.00  0.00     0.208 A 
HETATM    6  C6  UNL     1      22.372   2.005  49.081  1.00  0.00     0.066 A 
HETATM    7  C7  UNL     1      23.062   2.987  49.664  1.00  0.00     0.041 A 
HETATM    8  N4  UNL     1      21.923   3.202  50.495  1.00  0.00    -0.352 N 
HETATM    9  H13 UNL     1      21.697   3.875  51.275  1.00  0.00     0.163 HD
ENDROOT
BRANCH   1  10
HETATM   10  N1  UNL     1      21.575   0.273  51.643  1.00  0.00    -0.366 N 
HETATM   11  H5  UNL     1      21.873  -0.691  51.306  1.00  0.00     0.161 HD
BRANCH  10  12
HETATM   12  C2  UNL     1      21.946   0.833  52.949  1.00  0.00     0.112 C 
HETATM   13  C1  UNL     1      21.236   0.108  54.066  1.00  0.00     0.037 C 
BRANCH  12  14
HETATM   14  C14 UNL     1      23.394   0.937  53.148  1.00  0.00    -0.036 A 
HETATM   15  C15 UNL     1      24.006   2.170  53.176  1.00  0.00     0.010 A 
HETATM   16  C16 UNL     1      25.374   2.272  53.364  1.00  0.00     0.017 A 
HETATM   17  C17 UNL     1      26.068   1.069  53.519  1.00  0.00     0.047 A 
HETATM   18  C19 UNL     1      25.455  -0.176  53.491  1.00  0.00     0.017 A 
HETATM   19  C20 UNL     1      24.089  -0.247  53.301  1.00  0.00     0.010 A 
BRANCH  17  20
HETATM   20  C18 UNL     1      27.547   1.266  53.717  1.00  0.00     0.417 C 
HETATM   21  F1  UNL     1      27.813   2.637  53.795  1.00  0.00    -0.166 F 
HETATM   22  F2  UNL     1      28.267   0.700  52.684  1.00  0.00    -0.166 F 
HETATM   23  F3  UNL     1      27.985   0.703  54.900  1.00  0.00    -0.166 F 
ENDBRANCH  17  20
ENDBRANCH  12  14
ENDBRANCH  10  12
ENDBRANCH   1  10
BRANCH   7  24
HETATM   24  C8  UNL     1      24.390   3.576  49.516  1.00  0.00    -0.010 A 
HETATM   25  C9  UNL     1      24.480   4.881  49.053  1.00  0.00     0.016 A 
HETATM   26  C10 UNL     1      25.750   5.422  48.920  1.00  0.00     0.037 A 
HETATM   27  C11 UNL     1      26.884   4.704  49.229  1.00  0.00     0.065 A 
HETATM   28  C12 UNL     1      26.700   3.421  49.680  1.00  0.00     0.037 A 
HETATM   29  C13 UNL     1      25.488   2.810  49.842  1.00  0.00     0.016 A 
BRANCH  27  30
HETATM   30  O1  UNL     1      28.183   5.180  49.120  1.00  0.00    -0.361 OA
HETATM   31  H10 UNL     1      28.876   5.044  49.837  1.00  0.00     0.217 HD
ENDBRANCH  27  30
ENDBRANCH   7  24
TORSDOF 6
ENDMDL
MODEL 4
REMARK VINA RESULT:      -8.6      4.970      7.556
REMARK  6 active torsions:
REMARK  status: ('A' for Active; 'I' for Inactive)
REMARK    1  A    between atoms: C2_2  and  N1_3 
REMARK    2  A    between atoms: C2_2  and  C14_19 
REMARK    3  A    between atoms: N1_3  and  C3_4 
REMARK    4  A    between atoms: C7_10  and  C8_11 
REMARK    5  A    between atoms: C11_14  and  O1_15 
REMARK    6  A    between atoms: C17_22  and  C18_23 
ROOT
HETATM    1  C3  UNL     1      26.460   2.393  52.161  1.00  0.00     0.157 A 
HETATM    2  N2  UNL     1      27.769   2.434  52.229  1.00  0.00    -0.224 NA
HETATM    3  C4  UNL     1      28.213   1.302  52.989  1.00  0.00     0.232 A 
HETATM    4  N3  UNL     1      27.210   0.590  53.374  1.00  0.00    -0.239 NA
HETATM    5  C5  UNL     1      26.028   1.212  52.890  1.00  0.00     0.208 A 
HETATM    6  C6  UNL     1      25.022   0.342  52.259  1.00  0.00     0.066 A 
HETATM    7  C7  UNL     1      24.056   0.533  53.159  1.00  0.00     0.041 A 
HETATM    8  N4  UNL     1      24.961   1.395  53.846  1.00  0.00    -0.352 N 
HETATM    9  H13 UNL     1      24.903   1.970  54.729  1.00  0.00     0.163 HD
ENDROOT
BRANCH   1  10
HETATM   10  N1  UNL     1      25.674   3.369  51.477  1.00  0.00    -0.366 N 
HETATM   11  H5  UNL     1      25.197   4.101  52.084  1.00  0.00     0.161 HD
BRANCH  10  12
HETATM   12  C2  UNL     1      25.562   3.320  50.014  1.00  0.00     0.112 C 
HETATM   13  C1  UNL     1      24.130   3.104  49.592  1.00  0.00     0.037 C 
BRANCH  12  14
HETATM   14  C14 UNL     1      26.205   4.454  49.343  1.00  0.00    -0.036 A 
HETATM   15  C15 UNL     1      27.527   4.381  48.967  1.00  0.00     0.010 A 
HETATM   16  C16 UNL     1      28.137   5.449  48.332  1.00  0.00     0.017 A 
HETATM   17  C17 UNL     1      27.338   6.574  48.108  1.00  0.00     0.047 A 
HETATM   18  C19 UNL     1      26.004   6.651  48.486  1.00  0.00     0.017 A 
HETATM   19  C20 UNL     1      25.422   5.569  49.117  1.00  0.00     0.010 A 
BRANCH  17  20
HETATM   20  C18 UNL     1      28.075   7.689  47.416  1.00  0.00     0.417 C 
HETATM   21  F1  UNL     1      27.184   8.366  46.576  1.00  0.00    -0.166 F 
HETATM   22  F2  UNL     1      29.139   7.202  46.684  1.00  0.00    -0.166 F 
HETATM   23  F3  UNL     1      28.564   8.615  48.316  1.00  0.00    -0.166 F 
ENDBRANCH  17  20
ENDBRANCH  12  14
ENDBRANCH  10  12
ENDBRANCH   1  10
BRANCH   7  24
HETATM   24  C8  UNL     1      22.686   0.065  53.352  1.00  0.00    -0.010 A 
HETATM   25  C9  UNL     1      21.669   0.722  52.674  1.00  0.00     0.016 A 
HETATM   26  C10 UNL     1      20.375   0.262  52.871  1.00  0.00     0.037 A 
HETATM   27  C11 UNL     1      20.097  -0.800  53.701  1.00  0.00     0.065 A 
HETATM   28  C12 UNL     1      21.165  -1.390  54.330  1.00  0.00     0.037 A 
HETATM   29  C13 UNL     1      22.469  -1.004  54.195  1.00  0.00     0.016 A 
BRANCH  27  30
HETATM   30  O1  UNL     1      18.830  -1.313  53.944  1.00  0.00    -0.361 OA
HETATM   31  H10 UNL     1      18.172  -0.872  54.564  1.00  0.00     0.217 HD
ENDBRANCH  27  30
ENDBRANCH   7  24
TORSDOF 6
ENDMDL
MODEL 5
REMARK VINA RESULT:      -8.5      3.050      4.793
REMARK  6 active torsions:
REMARK  status: ('A' for Active; 'I' for Inactive)
REMARK    1  A    between atoms: C2_2  and  N1_3 
REMARK    2  A    between atoms: C2_2  and  C14_19 
REMARK    3  A    between atoms: N1_3  and  C3_4 
REMARK    4  A    between atoms: C7_10  and  C8_11 
REMARK    5  A    between atoms: C11_14  and  O1_15 
REMARK    6  A    between atoms: C17_22  and  C18_23 
ROOT
HETATM    1  C3  UNL     1      24.004   4.955  51.255  1.00  0.00     0.157 A 
HETATM    2  N2  UNL     1      22.744   5.153  51.562  1.00  0.00    -0.224 NA
HETATM    3  C4  UNL     1      22.245   6.214  50.736  1.00  0.00     0.232 A 
HETATM    4  N3  UNL     1      23.169   6.652  49.950  1.00  0.00    -0.239 NA
HETATM    5  C5  UNL     1      24.347   5.902  50.208  1.00  0.00     0.208 A 
HETATM    6  C6  UNL     1      25.093   5.400  49.042  1.00  0.00     0.066 A 
HETATM    7  C7  UNL     1      26.203   6.114  49.242  1.00  0.00     0.041 A 
HETATM    8  N4  UNL     1      25.563   6.659  50.393  1.00  0.00    -0.352 N 
HETATM    9  H13 UNL     1      25.846   7.360  51.130  1.00  0.00     0.163 HD
ENDROOT
BRANCH   1  10
HETATM   10  N1  UNL     1      24.822   3.968  51.883  1.00  0.00    -0.366 N 
HETATM   11  H5  UNL     1      25.366   4.281  52.743  1.00  0.00     0.161 HD
BRANCH  10  12
HETATM   12  C2  UNL     1      24.877   2.608  51.333  1.00  0.00     0.112 C 
HETATM   13  C1  UNL     1      26.293   2.228  50.978  1.00  0.00     0.037 C 
BRANCH  12  14
HETATM   14  C14 UNL     1      24.197   1.613  52.168  1.00  0.00    -0.036 A 
HETATM   15  C15 UNL     1      24.926   0.756  52.962  1.00  0.00     0.010 A 
HETATM   16  C16 UNL     1      24.288  -0.184  53.752  1.00  0.00     0.017 A 
HETATM   17  C17 UNL     1      22.892  -0.200  53.689  1.00  0.00     0.047 A 
HETATM   18  C19 UNL     1      22.153   0.663  52.890  1.00  0.00     0.017 A 
HETATM   19  C20 UNL     1      22.818   1.590  52.112  1.00  0.00     0.010 A 
BRANCH  17  20
HETATM   20  C18 UNL     1      22.276  -1.249  54.576  1.00  0.00     0.417 C 
HETATM   21  F1  UNL     1      21.180  -0.690  55.242  1.00  0.00    -0.166 F 
HETATM   22  F2  UNL     1      23.194  -1.728  55.488  1.00  0.00    -0.166 F 
HETATM   23  F3  UNL     1      21.801  -2.322  53.846  1.00  0.00    -0.166 F 
ENDBRANCH  17  20
ENDBRANCH  12  14
ENDBRANCH  10  12
ENDBRANCH   1  10
BRANCH   7  24
HETATM   24  C8  UNL     1      27.493   6.266  48.576  1.00  0.00    -0.010 A 
HETATM   25  C9  UNL     1      27.768   7.472  47.946  1.00  0.00     0.016 A 
HETATM   26  C10 UNL     1      28.999   7.595  47.320  1.00  0.00     0.037 A 
HETATM   27  C11 UNL     1      29.921   6.572  47.316  1.00  0.00     0.065 A 
HETATM   28  C12 UNL     1      29.565   5.416  47.964  1.00  0.00     0.037 A 
HETATM   29  C13 UNL     1      28.377   5.208  48.605  1.00  0.00     0.016 A 
BRANCH  27  30
HETATM   30  O1  UNL     1      31.169   6.626  46.711  1.00  0.00    -0.361 OA
HETATM   31  H10 UNL     1      31.715   7.470  46.659  1.00  0.00     0.217 HD
ENDBRANCH  27  30
ENDBRANCH   7  24
TORSDOF 6
ENDMDL
MODEL 6
REMARK VINA RESULT:      -8.4      3.415      5.609
REMARK  6 active torsions:
REMARK  status: ('A' for Active; 'I' for Inactive)
REMARK    1  A    between atoms: C2_2  and  N1_3 
REMARK    2  A    between atoms: C2_2  and  C14_19 
REMARK    3  A    between atoms: N1_3  and  C3_4 
REMARK    4  A    between atoms: C7_10  and  C8_11 
REMARK    5  A    between atoms: C11_14  and  O1_15 
REMARK    6  A    between atoms: C17_22  and  C18_23 
ROOT
HETATM    1  C3  UNL     1      23.109   3.646  51.053  1.00  0.00     0.157 A 
HETATM    2  N2  UNL     1      21.882   3.770  51.499  1.00  0.00    -0.224 NA
HETATM    3  C4  UNL     1      21.448   5.113  51.246  1.00  0.00     0.232 A 
HETATM    4  N3  UNL     1      22.378   5.790  50.665  1.00  0.00    -0.239 NA
HETATM    5  C5  UNL     1      23.497   4.931  50.495  1.00  0.00     0.208 A 
HETATM    6  C6  UNL     1      24.157   4.940  49.179  1.00  0.00     0.066 A 
HETATM    7  C7  UNL     1      25.329   5.425  49.591  1.00  0.00     0.041 A 
HETATM    8  N4  UNL     1      24.778   5.455  50.905  1.00  0.00    -0.352 N 
HETATM    9  H13 UNL     1      25.144   5.747  51.851  1.00  0.00     0.163 HD
ENDROOT
BRANCH   1  10
HETATM   10  N1  UNL     1      23.861   2.436  51.138  1.00  0.00    -0.366 N 
HETATM   11  H5  UNL     1      24.340   2.112  50.245  1.00  0.00     0.161 HD
BRANCH  10  12
HETATM   12  C2  UNL     1      23.936   1.712  52.414  1.00  0.00     0.112 C 
HETATM   13  C1  UNL     1      23.020   0.514  52.407  1.00  0.00     0.037 C 
BRANCH  12  14
HETATM   14  C14 UNL     1      25.308   1.397  52.824  1.00  0.00    -0.036 A 
HETATM   15  C15 UNL     1      25.993   2.243  53.667  1.00  0.00     0.010 A 
HETATM   16  C16 UNL     1      27.288   1.949  54.057  1.00  0.00     0.017 A 
HETATM   17  C17 UNL     1      27.834   0.767  53.548  1.00  0.00     0.047 A 
HETATM   18  C19 UNL     1      27.146  -0.088  52.697  1.00  0.00     0.017 A 
HETATM   19  C20 UNL     1      25.855   0.231  52.325  1.00  0.00     0.010 A 
BRANCH  17  20
HETATM   20  C18 UNL     1      29.243   0.521  54.018  1.00  0.00     0.417 C 
HETATM   21  F1  UNL     1      29.231  -0.518  54.955  1.00  0.00    -0.166 F 
HETATM   22  F2  UNL     1      29.785   1.660  54.579  1.00  0.00    -0.166 F 
HETATM   23  F3  UNL     1      30.066   0.122  52.983  1.00  0.00    -0.166 F 
ENDBRANCH  17  20
ENDBRANCH  12  14
ENDBRANCH  10  12
ENDBRANCH   1  10
BRANCH   7  24
HETATM   24  C8  UNL     1      26.606   5.770  48.970  1.00  0.00    -0.010 A 
HETATM   25  C9  UNL     1      27.545   4.763  48.800  1.00  0.00     0.016 A 
HETATM   26  C10 UNL     1      28.749   5.111  48.208  1.00  0.00     0.037 A 
HETATM   27  C11 UNL     1      29.016   6.399  47.800  1.00  0.00     0.065 A 
HETATM   28  C12 UNL     1      28.029   7.330  48.007  1.00  0.00     0.037 A 
HETATM   29  C13 UNL     1      26.815   7.076  48.581  1.00  0.00     0.016 A 
BRANCH  27  30
HETATM   30  O1  UNL     1      30.196   6.818  47.202  1.00  0.00    -0.361 OA
HETATM   31  H10 UNL     1      30.988   7.150  47.728  1.00  0.00     0.217 HD
ENDBRANCH  27  30
ENDBRANCH   7  24
TORSDOF 6
ENDMDL
MODEL 7
REMARK VINA RESULT:      -8.2      2.778      4.732
REMARK  6 active torsions:
REMARK  status: ('A' for Active; 'I' for Inactive)
REMARK    1  A    between atoms: C2_2  and  N1_3 
REMARK    2  A    between atoms: C2_2  and  C14_19 
REMARK    3  A    between atoms: N1_3  and  C3_4 
REMARK    4  A    between atoms: C7_10  and  C8_11 
REMARK    5  A    between atoms: C11_14  and  O1_15 
REMARK    6  A    between atoms: C17_22  and  C18_23 
ROOT
HETATM    1  C3  UNL     1      20.132   3.510  51.516  1.00  0.00     0.157 A 
HETATM    2  N2  UNL     1      18.832   3.602  51.364  1.00  0.00    -0.224 NA
HETATM    3  C4  UNL     1      18.574   4.244  50.109  1.00  0.00     0.232 A 
HETATM    4  N3  UNL     1      19.678   4.537  49.511  1.00  0.00    -0.239 NA
HETATM    5  C5  UNL     1      20.746   4.103  50.340  1.00  0.00     0.208 A 
HETATM    6  C6  UNL     1      21.844   3.368  49.691  1.00  0.00     0.066 A 
HETATM    7  C7  UNL     1      22.801   4.269  49.924  1.00  0.00     0.041 A 
HETATM    8  N4  UNL     1      21.806   5.056  50.574  1.00  0.00    -0.352 N 
HETATM    9  H13 UNL     1      21.809   5.993  51.058  1.00  0.00     0.163 HD
ENDROOT
BRANCH   1  10
HETATM   10  N1  UNL     1      20.752   2.920  52.658  1.00  0.00    -0.366 N 
HETATM   11  H5  UNL     1      21.105   3.592  53.404  1.00  0.00     0.161 HD
BRANCH  10  12
HETATM   12  C2  UNL     1      20.874   1.460  52.750  1.00  0.00     0.112 C 
HETATM   13  C1  UNL     1      20.177   0.789  51.593  1.00  0.00     0.037 C 
BRANCH  12  14
HETATM   14  C14 UNL     1      22.252   1.002  52.949  1.00  0.00    -0.036 A 
HETATM   15  C15 UNL     1      23.303   1.881  52.822  1.00  0.00     0.010 A 
HETATM   16  C16 UNL     1      24.605   1.452  53.009  1.00  0.00     0.017 A 
HETATM   17  C17 UNL     1      24.772   0.101  53.326  1.00  0.00     0.047 A 
HETATM   18  C19 UNL     1      23.714  -0.789  53.454  1.00  0.00     0.017 A 
HETATM   19  C20 UNL     1      22.426  -0.332  53.262  1.00  0.00     0.010 A 
BRANCH  17  20
HETATM   20  C18 UNL     1      26.215  -0.285  53.512  1.00  0.00     0.417 C 
HETATM   21  F1  UNL     1      26.362  -1.643  53.211  1.00  0.00    -0.166 F 
HETATM   22  F2  UNL     1      26.632  -0.037  54.804  1.00  0.00    -0.166 F 
HETATM   23  F3  UNL     1      27.046   0.411  52.654  1.00  0.00    -0.166 F 
ENDBRANCH  17  20
ENDBRANCH  12  14
ENDBRANCH  10  12
ENDBRANCH   1  10
BRANCH   7  24
HETATM   24  C8  UNL     1      24.228   4.390  49.639  1.00  0.00    -0.010 A 
HETATM   25  C9  UNL     1      25.039   3.289  49.878  1.00  0.00     0.016 A 
HETATM   26  C10 UNL     1      26.391   3.425  49.600  1.00  0.00     0.037 A 
HETATM   27  C11 UNL     1      26.920   4.597  49.107  1.00  0.00     0.065 A 
HETATM   28  C12 UNL     1      26.043   5.632  48.900  1.00  0.00     0.037 A 
HETATM   29  C13 UNL     1      24.700   5.587  49.145  1.00  0.00     0.016 A 
BRANCH  27  30
HETATM   30  O1  UNL     1      28.259   4.803  48.806  1.00  0.00    -0.361 OA
HETATM   31  H10 UNL     1      28.665   4.554  47.920  1.00  0.00     0.217 HD
ENDBRANCH  27  30
ENDBRANCH   7  24
TORSDOF 6
ENDMDL
MODEL 8
REMARK VINA RESULT:      -8.1      2.813      5.444
REMARK  6 active torsions:
REMARK  status: ('A' for Active; 'I' for Inactive)
REMARK    1  A    between atoms: C2_2  and  N1_3 
REMARK    2  A    between atoms: C2_2  and  C14_19 
REMARK    3  A    between atoms: N1_3  and  C3_4 
REMARK    4  A    between atoms: C7_10  and  C8_11 
REMARK    5  A    between atoms: C11_14  and  O1_15 
REMARK    6  A    between atoms: C17_22  and  C18_23 
ROOT
HETATM    1  C3  UNL     1      22.640   5.029  50.403  1.00  0.00     0.157 A 
HETATM    2  N2  UNL     1      22.618   6.114  49.666  1.00  0.00    -0.224 NA
HETATM    3  C4  UNL     1      21.287   6.285  49.163  1.00  0.00     0.232 A 
HETATM    4  N3  UNL     1      20.518   5.336  49.577  1.00  0.00    -0.239 NA
HETATM    5  C5  UNL     1      21.299   4.470  50.387  1.00  0.00     0.208 A 
HETATM    6  C6  UNL     1      20.716   4.042  51.669  1.00  0.00     0.066 A 
HETATM    7  C7  UNL     1      20.628   2.742  51.380  1.00  0.00     0.041 A 
HETATM    8  N4  UNL     1      21.189   3.057  50.108  1.00  0.00    -0.352 N 
HETATM    9  H13 UNL     1      21.443   2.491  49.255  1.00  0.00     0.163 HD
ENDROOT
BRANCH   1  10
HETATM   10  N1  UNL     1      23.810   4.550  51.066  1.00  0.00    -0.366 N 
HETATM   11  H5  UNL     1      23.942   4.861  52.075  1.00  0.00     0.161 HD
BRANCH  10  12
HETATM   12  C2  UNL     1      24.749   3.677  50.350  1.00  0.00     0.112 C 
HETATM   13  C1  UNL     1      25.913   4.469  49.809  1.00  0.00     0.037 C 
BRANCH  12  14
HETATM   14  C14 UNL     1      25.153   2.498  51.121  1.00  0.00    -0.036 A 
HETATM   15  C15 UNL     1      26.474   2.113  51.163  1.00  0.00     0.010 A 
HETATM   16  C16 UNL     1      26.859   1.000  51.890  1.00  0.00     0.017 A 
HETATM   17  C17 UNL     1      25.840   0.316  52.560  1.00  0.00     0.047 A 
HETATM   18  C19 UNL     1      24.507   0.702  52.521  1.00  0.00     0.017 A 
HETATM   19  C20 UNL     1      24.153   1.816  51.786  1.00  0.00     0.010 A 
BRANCH  17  20
HETATM   20  C18 UNL     1      26.341  -0.879  53.326  1.00  0.00     0.417 C 
HETATM   21  F1  UNL     1      26.472  -1.958  52.445  1.00  0.00    -0.166 F 
HETATM   22  F2  UNL     1      25.480  -1.206  54.354  1.00  0.00    -0.166 F 
HETATM   23  F3  UNL     1      27.590  -0.651  53.872  1.00  0.00    -0.166 F 
ENDBRANCH  17  20
ENDBRANCH  12  14
ENDBRANCH  10  12
ENDBRANCH   1  10
BRANCH   7  24
HETATM   24  C8  UNL     1      20.164   1.538  52.064  1.00  0.00    -0.010 A 
HETATM   25  C9  UNL     1      20.842   1.131  53.205  1.00  0.00     0.016 A 
HETATM   26  C10 UNL     1      20.386  -0.014  53.840  1.00  0.00     0.037 A 
HETATM   27  C11 UNL     1      19.305  -0.727  53.370  1.00  0.00     0.065 A 
HETATM   28  C12 UNL     1      18.695  -0.250  52.236  1.00  0.00     0.037 A 
HETATM   29  C13 UNL     1      19.077   0.867  51.548  1.00  0.00     0.016 A 
BRANCH  27  30
HETATM   30  O1  UNL     1      18.795  -1.878  53.953  1.00  0.00    -0.361 OA
HETATM   31  H10 UNL     1      18.612  -1.957  54.939  1.00  0.00     0.217 HD
ENDBRANCH  27  30
ENDBRANCH   7  24
TORSDOF 6
ENDMDL
MODEL 9
REMARK VINA RESULT:      -8.1      3.815      5.796
REMARK  6 active torsions:
REMARK  status: ('A' for Active; 'I' for Inactive)
REMARK    1  A    between atoms: C2_2  and  N1_3 
REMARK    2  A    between atoms: C2_2  and  C14_19 
REMARK    3  A    between atoms: N1_3  and  C3_4 
REMARK    4  A    between atoms: C7_10  and  C8_11 
REMARK    5  A    between atoms: C11_14  and  O1_15 
REMARK    6  A    between atoms: C17_22  and  C18_23 
ROOT
HETATM    1  C3  UNL     1      21.501   0.089  53.055  1.00  0.00     0.157 A 
HETATM    2  N2  UNL     1      20.364  -0.489  53.360  1.00  0.00    -0.224 NA
HETATM    3  C4  UNL     1      20.648  -1.622  54.192  1.00  0.00     0.232 A 
HETATM    4  N3  UNL     1      21.917  -1.735  54.389  1.00  0.00    -0.239 NA
HETATM    5  C5  UNL     1      22.559  -0.675  53.695  1.00  0.00     0.208 A 
HETATM    6  C6  UNL     1      23.604   0.067  54.419  1.00  0.00     0.066 A 
HETATM    7  C7  UNL     1      24.624  -0.287  53.635  1.00  0.00     0.041 A 
HETATM    8  N4  UNL     1      23.686  -1.039  52.869  1.00  0.00    -0.352 N 
HETATM    9  H13 UNL     1      23.757  -1.647  52.009  1.00  0.00     0.163 HD
ENDROOT
BRANCH   1  10
HETATM   10  N1  UNL     1      21.598   1.254  52.236  1.00  0.00    -0.366 N 
HETATM   11  H5  UNL     1      21.367   2.181  52.703  1.00  0.00     0.161 HD
BRANCH  10  12
HETATM   12  C2  UNL     1      22.000   1.125  50.829  1.00  0.00     0.112 C 
HETATM   13  C1  UNL     1      20.792   1.005  49.934  1.00  0.00     0.037 C 
BRANCH  12  14
HETATM   14  C14 UNL     1      22.947   2.157  50.397  1.00  0.00    -0.036 A 
HETATM   15  C15 UNL     1      22.668   2.943  49.302  1.00  0.00     0.010 A 
HETATM   16  C16 UNL     1      23.560   3.918  48.891  1.00  0.00     0.017 A 
HETATM   17  C17 UNL     1      24.730   4.045  49.646  1.00  0.00     0.047 A 
HETATM   18  C19 UNL     1      25.015   3.254  50.751  1.00  0.00     0.017 A 
HETATM   19  C20 UNL     1      24.106   2.288  51.138  1.00  0.00     0.010 A 
BRANCH  17  20
HETATM   20  C18 UNL     1      25.645   5.125  49.135  1.00  0.00     0.417 C 
HETATM   21  F1  UNL     1      25.973   5.977  50.194  1.00  0.00    -0.166 F 
HETATM   22  F2  UNL     1      25.047   5.840  48.116  1.00  0.00    -0.166 F 
HETATM   23  F3  UNL     1      26.830   4.606  48.652  1.00  0.00    -0.166 F 
ENDBRANCH  17  20
ENDBRANCH  12  14
ENDBRANCH  10  12
ENDBRANCH   1  10
BRANCH   7  24
HETATM   24  C8  UNL     1      26.060  -0.021  53.588  1.00  0.00    -0.010 A 
HETATM   25  C9  UNL     1      26.907  -1.061  53.233  1.00  0.00     0.016 A 
HETATM   26  C10 UNL     1      28.266  -0.788  53.193  1.00  0.00     0.037 A 
HETATM   27  C11 UNL     1      28.768   0.460  53.491  1.00  0.00     0.065 A 
HETATM   28  C12 UNL     1      27.856   1.428  53.830  1.00  0.00     0.037 A 
HETATM   29  C13 UNL     1      26.503   1.247  53.894  1.00  0.00     0.016 A 
BRANCH  27  30
HETATM   30  O1  UNL     1      30.112   0.804  53.471  1.00  0.00    -0.361 OA
HETATM   31  H10 UNL     1      30.506   1.430  52.788  1.00  0.00     0.217 HD
ENDBRANCH  27  30
ENDBRANCH   7  24
TORSDOF 6
ENDMDL
