MODEL 1
REMARK VINA RESULT:      -7.5      0.000      0.000
REMARK  8 active torsions:
REMARK  status: ('A' for Active; 'I' for Inactive)
REMARK    1  A    between atoms: N1_2  and  C2_3 
REMARK    2  A    between atoms: N2_4  and  C3_5 
REMARK    3  A    between atoms: C3_5  and  C4_6 
REMARK    4  A    between atoms: C3_5  and  N4_9 
REMARK    5  A    between atoms: C6_10  and  S1_11 
REMARK    6  A    between atoms: N6_19  and  C13_20 
REMARK    7  A    between atoms: C16_24  and  C17_25 
REMARK    8  A    between atoms: C17_25  and  C18_26 
ROOT
HETATM    1  C4  UNL     1      23.292   0.127  53.648  1.00  0.00     0.174 C 
HETATM    2  C5  UNL     1      22.873  -0.899  54.585  1.00  0.00     0.063 C 
HETATM    3  N3  UNL     1      22.534  -1.711  55.333  1.00  0.00    -0.197 NA
ENDROOT
BRANCH   1   4
HETATM    4  C3  UNL     1      24.711  -0.209  53.163  1.00  0.00     0.243 C 
BRANCH   4   5
HETATM    5  N2  UNL     1      25.495  -0.397  54.328  1.00  0.00    -0.257 NA
HETATM    6  C2  UNL     1      26.454   0.302  54.704  1.00  0.00     0.198 C 
BRANCH   6   7
HETATM    7  N1  UNL     1      27.333   1.393  54.546  1.00  0.00    -0.389 N 
HETATM    8  C1  UNL     1      28.503   0.848  53.885  1.00  0.00     0.147 C 
HETATM    9  H4  UNL     1      26.879   2.235  54.949  1.00  0.00     0.159 HD
ENDBRANCH   6   7
ENDBRANCH   4   5
BRANCH   4  10
HETATM   10  N4  UNL     1      25.185   0.879  52.330  1.00  0.00    -0.264 NA
HETATM   11  C6  UNL     1      24.294   1.547  51.658  1.00  0.00     0.192 C 
BRANCH  11  12
HETATM   12  S1  UNL     1      25.123   2.787  50.746  1.00  0.00     0.045 SA
HETATM   13  N5  UNL     1      26.672   2.952  50.213  1.00  0.00    -0.199 NA
HETATM   14  C7  UNL     1      26.666   4.328  49.466  1.00  0.00     0.094 A 
HETATM   15  C8  UNL     1      27.848   4.746  48.904  1.00  0.00     0.035 A 
HETATM   16  C12 UNL     1      25.479   5.024  49.423  1.00  0.00     0.077 A 
HETATM   17  C9  UNL     1      27.876   5.928  48.255  1.00  0.00     0.002 A 
HETATM   18  C10 UNL     1      26.744   6.702  48.157  1.00  0.00     0.002 A 
HETATM   19  C11 UNL     1      25.606   6.206  48.748  1.00  0.00     0.033 A 
HETATM   20  N6  UNL     1      24.415   4.374  50.082  1.00  0.00    -0.269 N 
BRANCH  20  21
HETATM   21  C13 UNL     1      23.075   4.786  50.241  1.00  0.00     0.070 A 
HETATM   22  C14 UNL     1      22.581   5.651  51.122  1.00  0.00     0.027 A 
HETATM   23  C15 UNL     1      21.129   5.770  50.920  1.00  0.00     0.178 A 
HETATM   24  N7  UNL     1      20.872   4.880  49.833  1.00  0.00    -0.288 NA
HETATM   25  C16 UNL     1      21.959   4.307  49.427  1.00  0.00     0.063 A 
BRANCH  25  26
HETATM   26  C17 UNL     1      22.042   3.331  48.291  1.00  0.00     0.139 C 
BRANCH  26  27
HETATM   27  C18 UNL     1      21.102   2.212  48.550  1.00  0.00     0.128 C 
HETATM   28  C19 UNL     1      21.303   1.073  49.497  1.00  0.00     0.091 C 
HETATM   29  O1  UNL     1      20.120   2.421  47.816  1.00  0.00    -0.298 OA
ENDBRANCH  26  27
ENDBRANCH  25  26
ENDBRANCH  20  21
ENDBRANCH  11  12
ENDBRANCH   4  10
ENDBRANCH   1   4
TORSDOF 8
ENDMDL
MODEL 2
REMARK VINA RESULT:      -7.4      2.556      6.217
REMARK  8 active torsions:
REMARK  status: ('A' for Active; 'I' for Inactive)
REMARK    1  A    between atoms: N1_2  and  C2_3 
REMARK    2  A    between atoms: N2_4  and  C3_5 
REMARK    3  A    between atoms: C3_5  and  C4_6 
REMARK    4  A    between atoms: C3_5  and  N4_9 
REMARK    5  A    between atoms: C6_10  and  S1_11 
REMARK    6  A    between atoms: N6_19  and  C13_20 
REMARK    7  A    between atoms: C16_24  and  C17_25 
REMARK    8  A    between atoms: C17_25  and  C18_26 
ROOT
HETATM    1  C4  UNL     1      26.637   2.307  53.507  1.00  0.00     0.174 C 
HETATM    2  C5  UNL     1      28.031   2.164  53.885  1.00  0.00     0.063 C 
HETATM    3  N3  UNL     1      29.140   2.055  54.189  1.00  0.00    -0.197 NA
ENDROOT
BRANCH   1   4
HETATM    4  C3  UNL     1      26.385   1.460  52.249  1.00  0.00     0.243 C 
BRANCH   4   5
HETATM    5  N2  UNL     1      26.805   2.248  51.149  1.00  0.00    -0.257 NA
HETATM    6  C2  UNL     1      26.226   3.246  50.680  1.00  0.00     0.198 C 
BRANCH   6   7
HETATM    7  N1  UNL     1      25.170   4.179  50.674  1.00  0.00    -0.389 N 
HETATM    8  C1  UNL     1      25.572   5.206  49.732  1.00  0.00     0.147 C 
HETATM    9  H4  UNL     1      24.444   3.850  51.340  1.00  0.00     0.159 HD
ENDBRANCH   6   7
ENDBRANCH   4   5
BRANCH   4  10
HETATM   10  N4  UNL     1      24.978   1.117  52.197  1.00  0.00    -0.264 NA
HETATM   11  C6  UNL     1      24.205   1.627  53.111  1.00  0.00     0.192 C 
BRANCH  11  12
HETATM   12  S1  UNL     1      22.577   1.058  52.821  1.00  0.00     0.045 SA
HETATM   13  N5  UNL     1      21.544   0.108  53.680  1.00  0.00    -0.199 NA
HETATM   14  C7  UNL     1      20.263   0.040  52.781  1.00  0.00     0.094 A 
HETATM   15  C8  UNL     1      19.205  -0.703  53.245  1.00  0.00     0.035 A 
HETATM   16  C12 UNL     1      20.285   0.728  51.589  1.00  0.00     0.077 A 
HETATM   17  C9  UNL     1      18.088  -0.782  52.493  1.00  0.00     0.002 A 
HETATM   18  C10 UNL     1      18.009  -0.133  51.284  1.00  0.00     0.002 A 
HETATM   19  C11 UNL     1      19.114   0.587  50.898  1.00  0.00     0.033 A 
HETATM   20  N6  UNL     1      21.497   1.409  51.348  1.00  0.00    -0.269 N 
BRANCH  20  21
HETATM   21  C13 UNL     1      21.874   2.203  50.244  1.00  0.00     0.070 A 
HETATM   22  C14 UNL     1      22.442   1.812  49.107  1.00  0.00     0.027 A 
HETATM   23  C15 UNL     1      22.656   2.984  48.246  1.00  0.00     0.178 A 
HETATM   24  N7  UNL     1      22.145   4.066  49.026  1.00  0.00    -0.288 NA
HETATM   25  C16 UNL     1      21.695   3.651  50.166  1.00  0.00     0.063 A 
BRANCH  25  26
HETATM   26  C17 UNL     1      21.073   4.527  51.213  1.00  0.00     0.139 C 
BRANCH  26  27
HETATM   27  C18 UNL     1      21.940   5.715  51.422  1.00  0.00     0.128 C 
HETATM   28  C19 UNL     1      21.740   7.082  50.853  1.00  0.00     0.091 C 
HETATM   29  O1  UNL     1      22.863   5.332  52.164  1.00  0.00    -0.298 OA
ENDBRANCH  26  27
ENDBRANCH  25  26
ENDBRANCH  20  21
ENDBRANCH  11  12
ENDBRANCH   4  10
ENDBRANCH   1   4
TORSDOF 8
ENDMDL
MODEL 3
REMARK VINA RESULT:      -7.1      1.644      2.866
REMARK  8 active torsions:
REMARK  status: ('A' for Active; 'I' for Inactive)
REMARK    1  A    between atoms: N1_2  and  C2_3 
REMARK    2  A    between atoms: N2_4  and  C3_5 
REMARK    3  A    between atoms: C3_5  and  C4_6 
REMARK    4  A    between atoms: C3_5  and  N4_9 
REMARK    5  A    between atoms: C6_10  and  S1_11 
REMARK    6  A    between atoms: N6_19  and  C13_20 
REMARK    7  A    between atoms: C16_24  and  C17_25 
REMARK    8  A    between atoms: C17_25  and  C18_26 
ROOT
HETATM    1  C4  UNL     1      26.722  -0.345  52.341  1.00  0.00     0.174 C 
HETATM    2  C5  UNL     1      27.776  -1.050  53.047  1.00  0.00     0.063 C 
HETATM    3  N3  UNL     1      28.614  -1.616  53.605  1.00  0.00    -0.197 NA
ENDROOT
BRANCH   1   4
HETATM    4  C3  UNL     1      26.328   0.891  53.165  1.00  0.00     0.243 C 
BRANCH   4   5
HETATM    5  N2  UNL     1      25.076   0.593  53.757  1.00  0.00    -0.257 NA
HETATM    6  C2  UNL     1      23.965   0.589  53.194  1.00  0.00     0.198 C 
BRANCH   6   7
HETATM    7  N1  UNL     1      23.150   0.758  52.058  1.00  0.00    -0.389 N 
HETATM    8  C1  UNL     1      21.906   0.082  52.375  1.00  0.00     0.147 C 
HETATM    9  H4  UNL     1      23.685   1.302  51.353  1.00  0.00     0.159 HD
ENDBRANCH   6   7
ENDBRANCH   4   5
BRANCH   4  10
HETATM   10  N4  UNL     1      26.279   2.039  52.282  1.00  0.00    -0.264 NA
HETATM   11  C6  UNL     1      26.519   1.833  51.021  1.00  0.00     0.192 C 
BRANCH  11  12
HETATM   12  S1  UNL     1      26.398   3.366  50.188  1.00  0.00     0.045 SA
HETATM   13  N5  UNL     1      27.459   4.252  49.295  1.00  0.00    -0.199 NA
HETATM   14  C7  UNL     1      26.631   5.514  48.875  1.00  0.00     0.094 A 
HETATM   15  C8  UNL     1      27.266   6.459  48.107  1.00  0.00     0.035 A 
HETATM   16  C12 UNL     1      25.325   5.590  49.305  1.00  0.00     0.077 A 
HETATM   17  C9  UNL     1      26.581   7.558  47.731  1.00  0.00     0.002 A 
HETATM   18  C10 UNL     1      25.271   7.731  48.109  1.00  0.00     0.002 A 
HETATM   19  C11 UNL     1      24.714   6.735  48.876  1.00  0.00     0.033 A 
HETATM   20  N6  UNL     1      24.918   4.487  50.083  1.00  0.00    -0.269 N 
BRANCH  20  21
HETATM   21  C13 UNL     1      23.668   4.229  50.687  1.00  0.00     0.070 A 
HETATM   22  C14 UNL     1      23.201   4.697  51.840  1.00  0.00     0.027 A 
HETATM   23  C15 UNL     1      21.852   4.160  52.069  1.00  0.00     0.178 A 
HETATM   24  N7  UNL     1      21.621   3.345  50.919  1.00  0.00    -0.288 NA
HETATM   25  C16 UNL     1      22.636   3.366  50.117  1.00  0.00     0.063 A 
BRANCH  25  26
HETATM   26  C17 UNL     1      22.712   2.634  48.810  1.00  0.00     0.139 C 
BRANCH  26  27
HETATM   27  C18 UNL     1      21.913   3.373  47.799  1.00  0.00     0.128 C 
HETATM   28  C19 UNL     1      22.287   4.651  47.120  1.00  0.00     0.091 C 
HETATM   29  O1  UNL     1      20.874   2.707  47.640  1.00  0.00    -0.298 OA
ENDBRANCH  26  27
ENDBRANCH  25  26
ENDBRANCH  20  21
ENDBRANCH  11  12
ENDBRANCH   4  10
ENDBRANCH   1   4
TORSDOF 8
ENDMDL
MODEL 4
REMARK VINA RESULT:      -7.1      1.321      2.613
REMARK  8 active torsions:
REMARK  status: ('A' for Active; 'I' for Inactive)
REMARK    1  A    between atoms: N1_2  and  C2_3 
REMARK    2  A    between atoms: N2_4  and  C3_5 
REMARK    3  A    between atoms: C3_5  and  C4_6 
REMARK    4  A    between atoms: C3_5  and  N4_9 
REMARK    5  A    between atoms: C6_10  and  S1_11 
REMARK    6  A    between atoms: N6_19  and  C13_20 
REMARK    7  A    between atoms: C16_24  and  C17_25 
REMARK    8  A    between atoms: C17_25  and  C18_26 
ROOT
HETATM    1  C4  UNL     1      25.059  -0.019  53.117  1.00  0.00     0.174 C 
HETATM    2  C5  UNL     1      25.808  -0.230  54.342  1.00  0.00     0.063 C 
HETATM    3  N3  UNL     1      26.404  -0.403  55.315  1.00  0.00    -0.197 NA
ENDROOT
BRANCH   1   4
HETATM    4  C3  UNL     1      24.300   1.312  53.233  1.00  0.00     0.243 C 
BRANCH   4   5
HETATM    5  N2  UNL     1      22.948   1.027  52.922  1.00  0.00    -0.257 NA
HETATM    6  C2  UNL     1      22.167   0.308  53.573  1.00  0.00     0.198 C 
BRANCH   6   7
HETATM    7  N1  UNL     1      21.872  -0.530  54.667  1.00  0.00    -0.389 N 
HETATM    8  C1  UNL     1      20.823  -1.415  54.199  1.00  0.00     0.147 C 
HETATM    9  H4  UNL     1      22.484  -0.255  55.460  1.00  0.00     0.159 HD
ENDBRANCH   6   7
ENDBRANCH   4   5
BRANCH   4  10
HETATM   10  N4  UNL     1      24.902   2.269  52.326  1.00  0.00    -0.264 NA
HETATM   11  C6  UNL     1      24.668   2.116  51.056  1.00  0.00     0.192 C 
BRANCH  11  12
HETATM   12  S1  UNL     1      25.503   3.388  50.195  1.00  0.00     0.045 SA
HETATM   13  N5  UNL     1      27.041   3.548  49.629  1.00  0.00    -0.199 NA
HETATM   14  C7  UNL     1      27.049   4.965  48.964  1.00  0.00     0.094 A 
HETATM   15  C8  UNL     1      28.225   5.389  48.395  1.00  0.00     0.035 A 
HETATM   16  C12 UNL     1      25.879   5.690  48.995  1.00  0.00     0.077 A 
HETATM   17  C9  UNL     1      28.265   6.606  47.815  1.00  0.00     0.002 A 
HETATM   18  C10 UNL     1      27.151   7.410  47.794  1.00  0.00     0.002 A 
HETATM   19  C11 UNL     1      26.017   6.906  48.387  1.00  0.00     0.033 A 
HETATM   20  N6  UNL     1      24.817   5.027  49.644  1.00  0.00    -0.269 N 
BRANCH  20  21
HETATM   21  C13 UNL     1      23.492   5.460  49.865  1.00  0.00     0.070 A 
HETATM   22  C14 UNL     1      22.969   5.969  50.976  1.00  0.00     0.027 A 
HETATM   23  C15 UNL     1      21.550   6.277  50.745  1.00  0.00     0.178 A 
HETATM   24  N7  UNL     1      21.343   5.885  49.388  1.00  0.00    -0.288 NA
HETATM   25  C16 UNL     1      22.429   5.417  48.863  1.00  0.00     0.063 A 
BRANCH  25  26
HETATM   26  C17 UNL     1      22.561   4.936  47.448  1.00  0.00     0.139 C 
BRANCH  26  27
HETATM   27  C18 UNL     1      21.984   3.571  47.350  1.00  0.00     0.128 C 
HETATM   28  C19 UNL     1      22.543   2.317  47.941  1.00  0.00     0.091 C 
HETATM   29  O1  UNL     1      20.947   3.692  46.674  1.00  0.00    -0.298 OA
ENDBRANCH  26  27
ENDBRANCH  25  26
ENDBRANCH  20  21
ENDBRANCH  11  12
ENDBRANCH   4  10
ENDBRANCH   1   4
TORSDOF 8
ENDMDL
MODEL 5
REMARK VINA RESULT:      -7.0      3.247      6.289
REMARK  8 active torsions:
REMARK  status: ('A' for Active; 'I' for Inactive)
REMARK    1  A    between atoms: N1_2  and  C2_3 
REMARK    2  A    between atoms: N2_4  and  C3_5 
REMARK    3  A    between atoms: C3_5  and  C4_6 
REMARK    4  A    between atoms: C3_5  and  N4_9 
REMARK    5  A    between atoms: C6_10  and  S1_11 
REMARK    6  A    between atoms: N6_19  and  C13_20 
REMARK    7  A    between atoms: C16_24  and  C17_25 
REMARK    8  A    between atoms: C17_25  and  C18_26 
ROOT
HETATM    1  C4  UNL     1      26.056   0.828  51.972  1.00  0.00     0.174 C 
HETATM    2  C5  UNL     1      27.156   1.724  52.280  1.00  0.00     0.063 C 
HETATM    3  N3  UNL     1      28.033   2.437  52.519  1.00  0.00    -0.197 NA
ENDROOT
BRANCH   1   4
HETATM    4  C3  UNL     1      25.451   0.330  53.294  1.00  0.00     0.243 C 
BRANCH   4   5
HETATM    5  N2  UNL     1      26.165  -0.844  53.641  1.00  0.00    -0.257 NA
HETATM    6  C2  UNL     1      27.297  -0.904  54.158  1.00  0.00     0.198 C 
BRANCH   6   7
HETATM    7  N1  UNL     1      28.457  -0.297  54.678  1.00  0.00    -0.389 N 
HETATM    8  C1  UNL     1      29.534  -0.718  53.804  1.00  0.00     0.147 C 
HETATM    9  H4  UNL     1      28.187   0.252  55.517  1.00  0.00     0.159 HD
ENDBRANCH   6   7
ENDBRANCH   4   5
BRANCH   4  10
HETATM   10  N4  UNL     1      24.035   0.094  53.094  1.00  0.00    -0.264 NA
HETATM   11  C6  UNL     1      23.262   1.137  53.014  1.00  0.00     0.192 C 
BRANCH  11  12
HETATM   12  S1  UNL     1      21.622   0.577  52.777  1.00  0.00     0.045 SA
HETATM   13  N5  UNL     1      20.580  -0.293  53.708  1.00  0.00    -0.199 NA
HETATM   14  C7  UNL     1      19.291  -0.401  52.825  1.00  0.00     0.094 A 
HETATM   15  C8  UNL     1      18.224  -1.092  53.348  1.00  0.00     0.035 A 
HETATM   16  C12 UNL     1      19.315   0.201  51.588  1.00  0.00     0.077 A 
HETATM   17  C9  UNL     1      17.100  -1.204  52.612  1.00  0.00     0.002 A 
HETATM   18  C10 UNL     1      17.021  -0.640  51.361  1.00  0.00     0.002 A 
HETATM   19  C11 UNL     1      18.135   0.033  50.917  1.00  0.00     0.033 A 
HETATM   20  N6  UNL     1      20.535   0.842  51.291  1.00  0.00    -0.269 N 
BRANCH  20  21
HETATM   21  C13 UNL     1      20.916   1.551  50.132  1.00  0.00     0.070 A 
HETATM   22  C14 UNL     1      21.426   1.066  49.003  1.00  0.00     0.027 A 
HETATM   23  C15 UNL     1      21.671   2.174  48.068  1.00  0.00     0.178 A 
HETATM   24  N7  UNL     1      21.241   3.324  48.798  1.00  0.00    -0.288 NA
HETATM   25  C16 UNL     1      20.807   3.000  49.973  1.00  0.00     0.063 A 
BRANCH  25  26
HETATM   26  C17 UNL     1      20.265   3.966  50.984  1.00  0.00     0.139 C 
BRANCH  26  27
HETATM   27  C18 UNL     1      18.783   3.882  50.982  1.00  0.00     0.128 C 
HETATM   28  C19 UNL     1      17.875   4.082  49.811  1.00  0.00     0.091 C 
HETATM   29  O1  UNL     1      18.459   3.615  52.153  1.00  0.00    -0.298 OA
ENDBRANCH  26  27
ENDBRANCH  25  26
ENDBRANCH  20  21
ENDBRANCH  11  12
ENDBRANCH   4  10
ENDBRANCH   1   4
TORSDOF 8
ENDMDL
MODEL 6
REMARK VINA RESULT:      -7.0      3.225      6.653
REMARK  8 active torsions:
REMARK  status: ('A' for Active; 'I' for Inactive)
REMARK    1  A    between atoms: N1_2  and  C2_3 
REMARK    2  A    between atoms: N2_4  and  C3_5 
REMARK    3  A    between atoms: C3_5  and  C4_6 
REMARK    4  A    between atoms: C3_5  and  N4_9 
REMARK    5  A    between atoms: C6_10  and  S1_11 
REMARK    6  A    between atoms: N6_19  and  C13_20 
REMARK    7  A    between atoms: C16_24  and  C17_25 
REMARK    8  A    between atoms: C17_25  and  C18_26 
ROOT
HETATM    1  C4  UNL     1      24.861  -0.360  54.117  1.00  0.00     0.174 C 
HETATM    2  C5  UNL     1      26.303  -0.341  54.278  1.00  0.00     0.063 C 
HETATM    3  N3  UNL     1      27.450  -0.328  54.413  1.00  0.00    -0.197 NA
ENDROOT
BRANCH   1   4
HETATM    4  C3  UNL     1      24.496   0.518  52.909  1.00  0.00     0.243 C 
BRANCH   4   5
HETATM    5  N2  UNL     1      24.786   1.853  53.286  1.00  0.00    -0.257 NA
HETATM    6  C2  UNL     1      24.532   2.884  52.636  1.00  0.00     0.198 C 
BRANCH   6   7
HETATM    7  N1  UNL     1      24.004   3.541  51.506  1.00  0.00    -0.389 N 
HETATM    8  C1  UNL     1      23.585   4.845  51.982  1.00  0.00     0.147 C 
HETATM    9  H4  UNL     1      24.074   2.895  50.695  1.00  0.00     0.159 HD
ENDBRANCH   6   7
ENDBRANCH   4   5
BRANCH   4  10
HETATM   10  N4  UNL     1      23.098   0.309  52.591  1.00  0.00    -0.264 NA
HETATM   11  C6  UNL     1      22.266   0.215  53.587  1.00  0.00     0.192 C 
BRANCH  11  12
HETATM   12  S1  UNL     1      20.664  -0.033  52.933  1.00  0.00     0.045 SA
HETATM   13  N5  UNL     1      19.335  -0.840  53.475  1.00  0.00    -0.199 NA
HETATM   14  C7  UNL     1      18.275  -0.617  52.344  1.00  0.00     0.094 A 
HETATM   15  C8  UNL     1      17.038  -1.189  52.517  1.00  0.00     0.035 A 
HETATM   16  C12 UNL     1      18.655   0.134  51.255  1.00  0.00     0.077 A 
HETATM   17  C9  UNL     1      16.104  -1.016  51.560  1.00  0.00     0.002 A 
HETATM   18  C10 UNL     1      16.382  -0.284  50.431  1.00  0.00     0.002 A 
HETATM   19  C11 UNL     1      17.645   0.251  50.341  1.00  0.00     0.033 A 
HETATM   20  N6  UNL     1      19.983   0.602  51.323  1.00  0.00    -0.269 N 
BRANCH  20  21
HETATM   21  C13 UNL     1      20.704   1.389  50.399  1.00  0.00     0.070 A 
HETATM   22  C14 UNL     1      21.435   0.979  49.366  1.00  0.00     0.027 A 
HETATM   23  C15 UNL     1      22.004   2.150  48.682  1.00  0.00     0.178 A 
HETATM   24  N7  UNL     1      21.511   3.251  49.446  1.00  0.00    -0.288 NA
HETATM   25  C16 UNL     1      20.769   2.848  50.427  1.00  0.00     0.063 A 
BRANCH  25  26
HETATM   26  C17 UNL     1      20.081   3.750  51.408  1.00  0.00     0.139 C 
BRANCH  26  27
HETATM   27  C18 UNL     1      18.657   3.895  51.010  1.00  0.00     0.128 C 
HETATM   28  C19 UNL     1      18.139   4.289  49.664  1.00  0.00     0.091 C 
HETATM   29  O1  UNL     1      17.994   3.623  52.026  1.00  0.00    -0.298 OA
ENDBRANCH  26  27
ENDBRANCH  25  26
ENDBRANCH  20  21
ENDBRANCH  11  12
ENDBRANCH   4  10
ENDBRANCH   1   4
TORSDOF 8
ENDMDL
MODEL 7
REMARK VINA RESULT:      -6.9      2.147      6.500
REMARK  8 active torsions:
REMARK  status: ('A' for Active; 'I' for Inactive)
REMARK    1  A    between atoms: N1_2  and  C2_3 
REMARK    2  A    between atoms: N2_4  and  C3_5 
REMARK    3  A    between atoms: C3_5  and  C4_6 
REMARK    4  A    between atoms: C3_5  and  N4_9 
REMARK    5  A    between atoms: C6_10  and  S1_11 
REMARK    6  A    between atoms: N6_19  and  C13_20 
REMARK    7  A    between atoms: C16_24  and  C17_25 
REMARK    8  A    between atoms: C17_25  and  C18_26 
ROOT
HETATM    1  C4  UNL     1      25.263   8.010  50.128  1.00  0.00     0.174 C 
HETATM    2  C5  UNL     1      26.208   9.111  50.142  1.00  0.00     0.063 C 
HETATM    3  N3  UNL     1      26.956   9.991  50.155  1.00  0.00    -0.197 NA
ENDROOT
BRANCH   1   4
HETATM    4  C3  UNL     1      25.833   6.891  49.242  1.00  0.00     0.243 C 
BRANCH   4   5
HETATM    5  N2  UNL     1      25.083   6.915  48.040  1.00  0.00    -0.257 NA
HETATM    6  C2  UNL     1      23.909   6.530  47.884  1.00  0.00     0.198 C 
BRANCH   6   7
HETATM    7  N1  UNL     1      22.709   5.978  48.374  1.00  0.00    -0.389 N 
HETATM    8  C1  UNL     1      22.226   5.112  47.316  1.00  0.00     0.147 C 
HETATM    9  H4  UNL     1      22.541   6.361  49.325  1.00  0.00     0.159 HD
ENDBRANCH   6   7
ENDBRANCH   4   5
BRANCH   4  10
HETATM   10  N4  UNL     1      25.722   5.634  49.955  1.00  0.00    -0.264 NA
HETATM   11  C6  UNL     1      26.317   4.600  49.437  1.00  0.00     0.192 C 
BRANCH  11  12
HETATM   12  S1  UNL     1      26.028   3.229  50.483  1.00  0.00     0.045 SA
HETATM   13  N5  UNL     1      26.964   1.968  50.977  1.00  0.00    -0.199 NA
HETATM   14  C7  UNL     1      26.015   1.142  51.910  1.00  0.00     0.094 A 
HETATM   15  C8  UNL     1      26.528   0.003  52.482  1.00  0.00     0.035 A 
HETATM   16  C12 UNL     1      24.734   1.612  52.093  1.00  0.00     0.077 A 
HETATM   17  C9  UNL     1      25.735  -0.732  53.289  1.00  0.00     0.002 A 
HETATM   18  C10 UNL     1      24.438  -0.350  53.535  1.00  0.00     0.002 A 
HETATM   19  C11 UNL     1      24.009   0.803  52.922  1.00  0.00     0.033 A 
HETATM   20  N6  UNL     1      24.460   2.802  51.389  1.00  0.00    -0.269 N 
BRANCH  20  21
HETATM   21  C13 UNL     1      23.270   3.559  51.337  1.00  0.00     0.070 A 
HETATM   22  C14 UNL     1      22.973   4.670  52.005  1.00  0.00     0.027 A 
HETATM   23  C15 UNL     1      21.619   5.109  51.637  1.00  0.00     0.178 A 
HETATM   24  N7  UNL     1      21.197   4.123  50.693  1.00  0.00    -0.288 NA
HETATM   25  C16 UNL     1      22.115   3.231  50.504  1.00  0.00     0.063 A 
BRANCH  25  26
HETATM   26  C17 UNL     1      22.001   2.069  49.562  1.00  0.00     0.139 C 
BRANCH  26  27
HETATM   27  C18 UNL     1      20.898   1.186  50.019  1.00  0.00     0.128 C 
HETATM   28  C19 UNL     1      20.882   0.335  51.248  1.00  0.00     0.091 C 
HETATM   29  O1  UNL     1      19.998   1.303  49.168  1.00  0.00    -0.298 OA
ENDBRANCH  26  27
ENDBRANCH  25  26
ENDBRANCH  20  21
ENDBRANCH  11  12
ENDBRANCH   4  10
ENDBRANCH   1   4
TORSDOF 8
ENDMDL
MODEL 8
REMARK VINA RESULT:      -6.8      2.750      5.676
REMARK  8 active torsions:
REMARK  status: ('A' for Active; 'I' for Inactive)
REMARK    1  A    between atoms: N1_2  and  C2_3 
REMARK    2  A    between atoms: N2_4  and  C3_5 
REMARK    3  A    between atoms: C3_5  and  C4_6 
REMARK    4  A    between atoms: C3_5  and  N4_9 
REMARK    5  A    between atoms: C6_10  and  S1_11 
REMARK    6  A    between atoms: N6_19  and  C13_20 
REMARK    7  A    between atoms: C16_24  and  C17_25 
REMARK    8  A    between atoms: C17_25  and  C18_26 
ROOT
HETATM    1  C4  UNL     1      18.379   1.131  50.876  1.00  0.00     0.174 C 
HETATM    2  C5  UNL     1      17.590   0.008  51.347  1.00  0.00     0.063 C 
HETATM    3  N3  UNL     1      16.959  -0.886  51.716  1.00  0.00    -0.197 NA
ENDROOT
BRANCH   1   4
HETATM    4  C3  UNL     1      18.971   1.855  52.097  1.00  0.00     0.243 C 
BRANCH   4   5
HETATM    5  N2  UNL     1      18.707   3.234  51.908  1.00  0.00    -0.257 NA
HETATM    6  C2  UNL     1      19.236   3.988  51.070  1.00  0.00     0.198 C 
BRANCH   6   7
HETATM    7  N1  UNL     1      20.130   4.230  50.008  1.00  0.00    -0.389 N 
HETATM    8  C1  UNL     1      19.779   5.543  49.504  1.00  0.00     0.147 C 
HETATM    9  H4  UNL     1      20.751   3.403  49.914  1.00  0.00     0.159 HD
ENDBRANCH   6   7
ENDBRANCH   4   5
BRANCH   4  10
HETATM   10  N4  UNL     1      20.386   1.553  52.172  1.00  0.00    -0.264 NA
HETATM   11  C6  UNL     1      20.832   1.058  53.289  1.00  0.00     0.192 C 
BRANCH  11  12
HETATM   12  S1  UNL     1      22.551   0.790  53.114  1.00  0.00     0.045 SA
HETATM   13  N5  UNL     1      23.538  -0.479  53.469  1.00  0.00    -0.199 NA
HETATM   14  C7  UNL     1      24.957   0.018  53.031  1.00  0.00     0.094 A 
HETATM   15  C8  UNL     1      26.011  -0.844  53.213  1.00  0.00     0.035 A 
HETATM   16  C12 UNL     1      25.052   1.283  52.497  1.00  0.00     0.077 A 
HETATM   17  C9  UNL     1      27.247  -0.445  52.847  1.00  0.00     0.002 A 
HETATM   18  C10 UNL     1      27.450   0.801  52.305  1.00  0.00     0.002 A 
HETATM   19  C11 UNL     1      26.339   1.598  52.159  1.00  0.00     0.033 A 
HETATM   20  N6  UNL     1      23.819   1.963  52.423  1.00  0.00    -0.269 N 
BRANCH  20  21
HETATM   21  C13 UNL     1      23.537   3.259  51.941  1.00  0.00     0.070 A 
HETATM   22  C14 UNL     1      23.220   4.344  52.641  1.00  0.00     0.027 A 
HETATM   23  C15 UNL     1      23.012   5.470  51.718  1.00  0.00     0.178 A 
HETATM   24  N7  UNL     1      23.249   4.893  50.434  1.00  0.00    -0.288 NA
HETATM   25  C16 UNL     1      23.550   3.638  50.530  1.00  0.00     0.063 A 
BRANCH  25  26
HETATM   26  C17 UNL     1      23.876   2.743  49.372  1.00  0.00     0.139 C 
BRANCH  26  27
HETATM   27  C18 UNL     1      22.628   2.455  48.621  1.00  0.00     0.128 C 
HETATM   28  C19 UNL     1      22.240   3.001  47.284  1.00  0.00     0.091 C 
HETATM   29  O1  UNL     1      21.978   1.671  49.336  1.00  0.00    -0.298 OA
ENDBRANCH  26  27
ENDBRANCH  25  26
ENDBRANCH  20  21
ENDBRANCH  11  12
ENDBRANCH   4  10
ENDBRANCH   1   4
TORSDOF 8
ENDMDL
MODEL 9
REMARK VINA RESULT:      -6.7      2.308      6.405
REMARK  8 active torsions:
REMARK  status: ('A' for Active; 'I' for Inactive)
REMARK    1  A    between atoms: N1_2  and  C2_3 
REMARK    2  A    between atoms: N2_4  and  C3_5 
REMARK    3  A    between atoms: C3_5  and  C4_6 
REMARK    4  A    between atoms: C3_5  and  N4_9 
REMARK    5  A    between atoms: C6_10  and  S1_11 
REMARK    6  A    between atoms: N6_19  and  C13_20 
REMARK    7  A    between atoms: C16_24  and  C17_25 
REMARK    8  A    between atoms: C17_25  and  C18_26 
ROOT
HETATM    1  C4  UNL     1      24.491   6.933  48.411  1.00  0.00     0.174 C 
HETATM    2  C5  UNL     1      23.568   8.001  48.748  1.00  0.00     0.063 C 
HETATM    3  N3  UNL     1      22.830   8.850  49.010  1.00  0.00    -0.197 NA
ENDROOT
BRANCH   1   4
HETATM    4  C3  UNL     1      25.633   6.935  49.441  1.00  0.00     0.243 C 
BRANCH   4   5
HETATM    5  N2  UNL     1      26.824   7.179  48.713  1.00  0.00    -0.257 NA
HETATM    6  C2  UNL     1      27.746   7.954  49.027  1.00  0.00     0.198 C 
BRANCH   6   7
HETATM    7  N1  UNL     1      28.335   8.894  49.897  1.00  0.00    -0.389 N 
HETATM    8  C1  UNL     1      28.339  10.145  49.163  1.00  0.00     0.147 C 
HETATM    9  H4  UNL     1      28.585   8.406  50.779  1.00  0.00     0.159 HD
ENDBRANCH   6   7
ENDBRANCH   4   5
BRANCH   4  10
HETATM   10  N4  UNL     1      25.639   5.659  50.128  1.00  0.00    -0.264 NA
HETATM   11  C6  UNL     1      25.999   4.614  49.443  1.00  0.00     0.192 C 
BRANCH  11  12
HETATM   12  S1  UNL     1      25.917   3.222  50.497  1.00  0.00     0.045 SA
HETATM   13  N5  UNL     1      26.994   2.041  50.894  1.00  0.00    -0.199 NA
HETATM   14  C7  UNL     1      26.203   1.137  51.900  1.00  0.00     0.094 A 
HETATM   15  C8  UNL     1      26.857   0.043  52.413  1.00  0.00     0.035 A 
HETATM   16  C12 UNL     1      24.909   1.499  52.200  1.00  0.00     0.077 A 
HETATM   17  C9  UNL     1      26.203  -0.757  53.280  1.00  0.00     0.002 A 
HETATM   18  C10 UNL     1      24.905  -0.484  53.644  1.00  0.00     0.002 A 
HETATM   19  C11 UNL     1      24.330   0.631  53.082  1.00  0.00     0.033 A 
HETATM   20  N6  UNL     1      24.477   2.664  51.534  1.00  0.00    -0.269 N 
BRANCH  20  21
HETATM   21  C13 UNL     1      23.228   3.320  51.596  1.00  0.00     0.070 A 
HETATM   22  C14 UNL     1      22.939   4.483  52.172  1.00  0.00     0.027 A 
HETATM   23  C15 UNL     1      21.509   4.772  51.986  1.00  0.00     0.178 A 
HETATM   24  N7  UNL     1      21.038   3.645  51.246  1.00  0.00    -0.288 NA
HETATM   25  C16 UNL     1      21.993   2.805  51.010  1.00  0.00     0.063 A 
BRANCH  25  26
HETATM   26  C17 UNL     1      21.840   1.527  50.240  1.00  0.00     0.139 C 
BRANCH  26  27
HETATM   27  C18 UNL     1      22.064   1.805  48.798  1.00  0.00     0.128 C 
HETATM   28  C19 UNL     1      22.707   3.019  48.209  1.00  0.00     0.091 C 
HETATM   29  O1  UNL     1      21.604   0.821  48.190  1.00  0.00    -0.298 OA
ENDBRANCH  26  27
ENDBRANCH  25  26
ENDBRANCH  20  21
ENDBRANCH  11  12
ENDBRANCH   4  10
ENDBRANCH   1   4
TORSDOF 8
ENDMDL
