MODEL 1
REMARK VINA RESULT:      -7.7      0.000      0.000
REMARK  2 active torsions:
REMARK  status: ('A' for Active; 'I' for Inactive)
REMARK    1  A    between atoms: C3_5  and  C4_6 
REMARK       I    between atoms: C4_6  and  N2_8 
REMARK    2  A    between atoms: N2_8  and  C5_9 
ROOT
HETATM    1  C1  UNL     1      20.725   3.655  52.200  1.00  0.00     0.165 C 
HETATM    2  N1  UNL     1      21.699   2.584  52.181  1.00  0.00    -0.321 N 
HETATM    3  C2  UNL     1      22.982   2.352  51.605  1.00  0.00     0.103 A 
HETATM    4  S1  UNL     1      23.670   3.528  50.687  1.00  0.00    -0.063 SA
HETATM    5  C3  UNL     1      23.680   1.102  51.816  1.00  0.00     0.181 A 
HETATM    6  C11 UNL     1      22.912   0.177  52.659  1.00  0.00     0.012 A 
HETATM    7  C12 UNL     1      22.951  -1.038  53.206  1.00  0.00     0.017 A 
HETATM    8  C13 UNL     1      21.862  -1.588  54.044  1.00  0.00     0.002 A 
HETATM    9  C14 UNL     1      20.695  -1.064  54.424  1.00  0.00     0.008 A 
HETATM   10  C15 UNL     1      20.334   0.288  53.984  1.00  0.00     0.060 A 
HETATM   11  S2  UNL     1      21.387   1.073  53.055  1.00  0.00    -0.068 SA
ENDROOT
BRANCH   5  12
HETATM   12  C4  UNL     1      25.010   1.212  52.447  1.00  0.00     0.238 C 
HETATM   13  O1  UNL     1      25.250   1.841  53.533  1.00  0.00    -0.272 OA
HETATM   14  N2  UNL     1      26.216   0.624  51.923  1.00  0.00    -0.326 N 
HETATM   15  H5  UNL     1      26.131   0.076  51.019  1.00  0.00     0.169 HD
BRANCH  14  16
HETATM   16  C5  UNL     1      27.307   0.943  52.807  1.00  0.00     0.034 A 
HETATM   17  C6  UNL     1      27.878   2.213  52.880  1.00  0.00     0.029 A 
HETATM   18  C7  UNL     1      28.928   2.434  53.762  1.00  0.00     0.002 A 
HETATM   19  C8  UNL     1      29.388   1.388  54.552  1.00  0.00     0.000 A 
HETATM   20  C9  UNL     1      28.804   0.133  54.461  1.00  0.00     0.002 A 
HETATM   21  C10 UNL     1      27.752  -0.109  53.584  1.00  0.00     0.029 A 
ENDBRANCH  14  16
ENDBRANCH   5  12
TORSDOF 2
ENDMDL
MODEL 2
REMARK VINA RESULT:      -7.4      1.670      2.015
REMARK  2 active torsions:
REMARK  status: ('A' for Active; 'I' for Inactive)
REMARK    1  A    between atoms: C3_5  and  C4_6 
REMARK       I    between atoms: C4_6  and  N2_8 
REMARK    2  A    between atoms: N2_8  and  C5_9 
ROOT
HETATM    1  C1  UNL     1      22.195   5.830  51.211  1.00  0.00     0.165 C 
HETATM    2  N1  UNL     1      22.743   4.490  51.220  1.00  0.00    -0.321 N 
HETATM    3  C2  UNL     1      23.960   3.860  50.827  1.00  0.00     0.103 A 
HETATM    4  S1  UNL     1      25.157   4.773  50.170  1.00  0.00    -0.063 SA
HETATM    5  C3  UNL     1      24.152   2.436  50.997  1.00  0.00     0.181 A 
HETATM    6  C11 UNL     1      22.978   1.789  51.597  1.00  0.00     0.012 A 
HETATM    7  C12 UNL     1      22.510   0.607  51.999  1.00  0.00     0.017 A 
HETATM    8  C13 UNL     1      21.164   0.424  52.589  1.00  0.00     0.002 A 
HETATM    9  C14 UNL     1      20.188   1.297  52.841  1.00  0.00     0.008 A 
HETATM   10  C15 UNL     1      20.385   2.713  52.511  1.00  0.00     0.060 A 
HETATM   11  S2  UNL     1      21.791   3.134  51.853  1.00  0.00    -0.068 SA
ENDROOT
BRANCH   5  12
HETATM   12  C4  UNL     1      25.301   2.041  51.835  1.00  0.00     0.238 C 
HETATM   13  O1  UNL     1      26.219   1.228  51.474  1.00  0.00    -0.272 OA
HETATM   14  N2  UNL     1      25.542   2.519  53.173  1.00  0.00    -0.326 N 
HETATM   15  H5  UNL     1      24.837   3.202  53.573  1.00  0.00     0.169 HD
BRANCH  14  16
HETATM   16  C5  UNL     1      26.753   1.917  53.667  1.00  0.00     0.034 A 
HETATM   17  C6  UNL     1      28.018   2.455  53.435  1.00  0.00     0.029 A 
HETATM   18  C7  UNL     1      29.134   1.809  53.950  1.00  0.00     0.002 A 
HETATM   19  C8  UNL     1      28.969   0.642  54.685  1.00  0.00     0.000 A 
HETATM   20  C9  UNL     1      27.700   0.125  54.903  1.00  0.00     0.002 A 
HETATM   21  C10 UNL     1      26.569   0.757  54.395  1.00  0.00     0.029 A 
ENDBRANCH  14  16
ENDBRANCH   5  12
TORSDOF 2
ENDMDL
MODEL 3
REMARK VINA RESULT:      -7.3      1.999      3.814
REMARK  2 active torsions:
REMARK  status: ('A' for Active; 'I' for Inactive)
REMARK    1  A    between atoms: C3_5  and  C4_6 
REMARK       I    between atoms: C4_6  and  N2_8 
REMARK    2  A    between atoms: N2_8  and  C5_9 
ROOT
HETATM    1  C1  UNL     1      20.815   0.131  51.374  1.00  0.00     0.165 C 
HETATM    2  N1  UNL     1      22.056   0.725  51.823  1.00  0.00    -0.321 N 
HETATM    3  C2  UNL     1      22.921   0.603  52.950  1.00  0.00     0.103 A 
HETATM    4  S1  UNL     1      22.537  -0.460  54.142  1.00  0.00    -0.063 SA
HETATM    5  C3  UNL     1      24.125   1.399  53.056  1.00  0.00     0.181 A 
HETATM    6  C11 UNL     1      24.302   2.288  51.900  1.00  0.00     0.012 A 
HETATM    7  C12 UNL     1      25.117   3.211  51.389  1.00  0.00     0.017 A 
HETATM    8  C13 UNL     1      24.870   3.887  50.095  1.00  0.00     0.002 A 
HETATM    9  C14 UNL     1      23.879   3.758  49.211  1.00  0.00     0.008 A 
HETATM   10  C15 UNL     1      22.796   2.804  49.476  1.00  0.00     0.060 A 
HETATM   11  S2  UNL     1      22.869   1.957  50.841  1.00  0.00    -0.068 SA
ENDROOT
BRANCH   5  12
HETATM   12  C4  UNL     1      25.386   0.639  53.175  1.00  0.00     0.238 C 
HETATM   13  O1  UNL     1      26.005   0.426  54.273  1.00  0.00    -0.272 OA
HETATM   14  N2  UNL     1      26.086   0.036  52.070  1.00  0.00    -0.326 N 
HETATM   15  H5  UNL     1      25.657   0.153  51.108  1.00  0.00     0.169 HD
BRANCH  14  16
HETATM   16  C5  UNL     1      27.267  -0.616  52.573  1.00  0.00     0.034 A 
HETATM   17  C6  UNL     1      28.367   0.084  53.069  1.00  0.00     0.029 A 
HETATM   18  C7  UNL     1      29.466  -0.625  53.536  1.00  0.00     0.002 A 
HETATM   19  C8  UNL     1      29.450  -2.014  53.499  1.00  0.00     0.000 A 
HETATM   20  C9  UNL     1      28.344  -2.688  53.000  1.00  0.00     0.002 A 
HETATM   21  C10 UNL     1      27.233  -1.996  52.528  1.00  0.00     0.029 A 
ENDBRANCH  14  16
ENDBRANCH   5  12
TORSDOF 2
ENDMDL
MODEL 4
REMARK VINA RESULT:      -6.9      2.270      4.234
REMARK  2 active torsions:
REMARK  status: ('A' for Active; 'I' for Inactive)
REMARK    1  A    between atoms: C3_5  and  C4_6 
REMARK       I    between atoms: C4_6  and  N2_8 
REMARK    2  A    between atoms: N2_8  and  C5_9 
ROOT
HETATM    1  C1  UNL     1      21.252   0.985  49.158  1.00  0.00     0.165 C 
HETATM    2  N1  UNL     1      22.095   1.736  50.064  1.00  0.00    -0.321 N 
HETATM    3  C2  UNL     1      22.549   1.612  51.409  1.00  0.00     0.103 A 
HETATM    4  S1  UNL     1      22.071   0.316  52.298  1.00  0.00    -0.063 SA
HETATM    5  C3  UNL     1      23.421   2.606  51.997  1.00  0.00     0.181 A 
HETATM    6  C11 UNL     1      23.741   3.686  51.055  1.00  0.00     0.012 A 
HETATM    7  C12 UNL     1      24.426   4.824  50.941  1.00  0.00     0.017 A 
HETATM    8  C13 UNL     1      24.455   5.635  49.703  1.00  0.00     0.002 A 
HETATM    9  C14 UNL     1      23.868   5.453  48.519  1.00  0.00     0.008 A 
HETATM   10  C15 UNL     1      23.025   4.272  48.306  1.00  0.00     0.060 A 
HETATM   11  S2  UNL     1      22.856   3.248  49.535  1.00  0.00    -0.068 SA
ENDROOT
BRANCH   5  12
HETATM   12  C4  UNL     1      24.719   2.106  52.491  1.00  0.00     0.238 C 
HETATM   13  O1  UNL     1      25.384   1.155  51.955  1.00  0.00    -0.272 OA
HETATM   14  N2  UNL     1      25.411   2.623  53.645  1.00  0.00    -0.326 N 
HETATM   15  H5  UNL     1      24.945   3.418  54.168  1.00  0.00     0.169 HD
BRANCH  14  16
HETATM   16  C5  UNL     1      26.638   1.889  53.814  1.00  0.00     0.034 A 
HETATM   17  C6  UNL     1      27.847   2.292  53.247  1.00  0.00     0.029 A 
HETATM   18  C7  UNL     1      28.985   1.524  53.462  1.00  0.00     0.002 A 
HETATM   19  C8  UNL     1      28.896   0.373  54.235  1.00  0.00     0.000 A 
HETATM   20  C9  UNL     1      27.682  -0.007  54.788  1.00  0.00     0.002 A 
HETATM   21  C10 UNL     1      26.532   0.748  54.585  1.00  0.00     0.029 A 
ENDBRANCH  14  16
ENDBRANCH   5  12
TORSDOF 2
ENDMDL
MODEL 5
REMARK VINA RESULT:      -6.8      2.582      6.323
REMARK  2 active torsions:
REMARK  status: ('A' for Active; 'I' for Inactive)
REMARK    1  A    between atoms: C3_5  and  C4_6 
REMARK       I    between atoms: C4_6  and  N2_8 
REMARK    2  A    between atoms: N2_8  and  C5_9 
ROOT
HETATM    1  C1  UNL     1      26.326   3.388  50.108  1.00  0.00     0.165 C 
HETATM    2  N1  UNL     1      25.396   2.839  51.072  1.00  0.00    -0.321 N 
HETATM    3  C2  UNL     1      24.130   3.199  51.619  1.00  0.00     0.103 A 
HETATM    4  S1  UNL     1      23.405   4.585  51.113  1.00  0.00    -0.063 SA
HETATM    5  C3  UNL     1      23.479   2.366  52.606  1.00  0.00     0.181 A 
HETATM    6  C11 UNL     1      24.273   1.174  52.933  1.00  0.00     0.012 A 
HETATM    7  C12 UNL     1      24.276   0.078  53.691  1.00  0.00     0.017 A 
HETATM    8  C13 UNL     1      25.377  -0.912  53.685  1.00  0.00     0.002 A 
HETATM    9  C14 UNL     1      26.518  -0.954  52.996  1.00  0.00     0.008 A 
HETATM   10  C15 UNL     1      26.830   0.125  52.052  1.00  0.00     0.060 A 
HETATM   11  S2  UNL     1      25.757   1.315  51.902  1.00  0.00    -0.068 SA
ENDROOT
BRANCH   5  12
HETATM   12  C4  UNL     1      22.139   1.867  52.239  1.00  0.00     0.238 C 
HETATM   13  O1  UNL     1      21.038   2.354  52.671  1.00  0.00    -0.272 OA
HETATM   14  N2  UNL     1      21.891   0.764  51.346  1.00  0.00    -0.326 N 
HETATM   15  H5  UNL     1      22.739   0.284  50.929  1.00  0.00     0.169 HD
BRANCH  14  16
HETATM   16  C5  UNL     1      20.469   0.572  51.232  1.00  0.00     0.034 A 
HETATM   17  C6  UNL     1      19.719   1.072  50.167  1.00  0.00     0.029 A 
HETATM   18  C7  UNL     1      18.350   0.840  50.135  1.00  0.00     0.002 A 
HETATM   19  C8  UNL     1      17.756   0.118  51.162  1.00  0.00     0.000 A 
HETATM   20  C9  UNL     1      18.522  -0.369  52.211  1.00  0.00     0.002 A 
HETATM   21  C10 UNL     1      19.895  -0.148  52.261  1.00  0.00     0.029 A 
ENDBRANCH  14  16
ENDBRANCH   5  12
TORSDOF 2
ENDMDL
MODEL 6
REMARK VINA RESULT:      -6.6      2.767      6.505
REMARK  2 active torsions:
REMARK  status: ('A' for Active; 'I' for Inactive)
REMARK    1  A    between atoms: C3_5  and  C4_6 
REMARK       I    between atoms: C4_6  and  N2_8 
REMARK    2  A    between atoms: N2_8  and  C5_9 
ROOT
HETATM    1  C1  UNL     1      24.162   5.131  49.022  1.00  0.00     0.165 C 
HETATM    2  N1  UNL     1      23.743   4.421  50.212  1.00  0.00    -0.321 N 
HETATM    3  C2  UNL     1      22.589   4.379  51.048  1.00  0.00     0.103 A 
HETATM    4  S1  UNL     1      21.307   5.342  50.689  1.00  0.00    -0.063 SA
HETATM    5  C3  UNL     1      22.533   3.506  52.200  1.00  0.00     0.181 A 
HETATM    6  C11 UNL     1      23.766   2.725  52.361  1.00  0.00     0.012 A 
HETATM    7  C12 UNL     1      24.346   1.809  53.136  1.00  0.00     0.017 A 
HETATM    8  C13 UNL     1      25.707   1.279  52.890  1.00  0.00     0.002 A 
HETATM    9  C14 UNL     1      26.598   1.553  51.935  1.00  0.00     0.008 A 
HETATM   10  C15 UNL     1      26.266   2.539  50.901  1.00  0.00     0.060 A 
HETATM   11  S2  UNL     1      24.822   3.244  50.982  1.00  0.00    -0.068 SA
ENDROOT
BRANCH   5  12
HETATM   12  C4  UNL     1      21.431   2.524  52.206  1.00  0.00     0.238 C 
HETATM   13  O1  UNL     1      20.331   2.668  52.841  1.00  0.00    -0.272 OA
HETATM   14  N2  UNL     1      21.448   1.270  51.496  1.00  0.00    -0.326 N 
HETATM   15  H5  UNL     1      22.318   1.048  50.934  1.00  0.00     0.169 HD
BRANCH  14  16
HETATM   16  C5  UNL     1      20.205   0.586  51.739  1.00  0.00     0.034 A 
HETATM   17  C6  UNL     1      19.126   0.636  50.856  1.00  0.00     0.029 A 
HETATM   18  C7  UNL     1      17.963  -0.056  51.168  1.00  0.00     0.002 A 
HETATM   19  C8  UNL     1      17.896  -0.782  52.351  1.00  0.00     0.000 A 
HETATM   20  C9  UNL     1      18.982  -0.816  53.214  1.00  0.00     0.002 A 
HETATM   21  C10 UNL     1      20.156  -0.130  52.919  1.00  0.00     0.029 A 
ENDBRANCH  14  16
ENDBRANCH   5  12
TORSDOF 2
ENDMDL
MODEL 7
REMARK VINA RESULT:      -6.5      3.276      5.499
REMARK  2 active torsions:
REMARK  status: ('A' for Active; 'I' for Inactive)
REMARK    1  A    between atoms: C3_5  and  C4_6 
REMARK       I    between atoms: C4_6  and  N2_8 
REMARK    2  A    between atoms: N2_8  and  C5_9 
ROOT
HETATM    1  C1  UNL     1      20.236   5.133  48.985  1.00  0.00     0.165 C 
HETATM    2  N1  UNL     1      21.467   5.057  49.743  1.00  0.00    -0.321 N 
HETATM    3  C2  UNL     1      21.886   4.525  50.998  1.00  0.00     0.103 A 
HETATM    4  S1  UNL     1      20.786   3.763  51.950  1.00  0.00    -0.063 SA
HETATM    5  C3  UNL     1      23.259   4.648  51.439  1.00  0.00     0.181 A 
HETATM    6  C11 UNL     1      24.092   5.356  50.460  1.00  0.00     0.012 A 
HETATM    7  C12 UNL     1      25.336   5.782  50.238  1.00  0.00     0.017 A 
HETATM    8  C13 UNL     1      25.740   6.508  49.012  1.00  0.00     0.002 A 
HETATM    9  C14 UNL     1      25.041   6.877  47.938  1.00  0.00     0.008 A 
HETATM   10  C15 UNL     1      23.612   6.555  47.862  1.00  0.00     0.060 A 
HETATM   11  S2  UNL     1      22.963   5.761  49.101  1.00  0.00    -0.068 SA
ENDROOT
BRANCH   5  12
HETATM   12  C4  UNL     1      23.957   3.377  51.717  1.00  0.00     0.238 C 
HETATM   13  O1  UNL     1      23.957   2.362  50.939  1.00  0.00    -0.272 OA
HETATM   14  N2  UNL     1      24.731   3.109  52.902  1.00  0.00    -0.326 N 
HETATM   15  H5  UNL     1      24.797   3.887  53.619  1.00  0.00     0.169 HD
BRANCH  14  16
HETATM   16  C5  UNL     1      25.257   1.771  52.818  1.00  0.00     0.034 A 
HETATM   17  C6  UNL     1      24.589   0.660  53.332  1.00  0.00     0.029 A 
HETATM   18  C7  UNL     1      25.168  -0.596  53.206  1.00  0.00     0.002 A 
HETATM   19  C8  UNL     1      26.399  -0.720  52.574  1.00  0.00     0.000 A 
HETATM   20  C9  UNL     1      27.044   0.400  52.071  1.00  0.00     0.002 A 
HETATM   21  C10 UNL     1      26.481   1.667  52.187  1.00  0.00     0.029 A 
ENDBRANCH  14  16
ENDBRANCH   5  12
TORSDOF 2
ENDMDL
MODEL 8
REMARK VINA RESULT:      -6.2      3.139      3.978
REMARK  2 active torsions:
REMARK  status: ('A' for Active; 'I' for Inactive)
REMARK    1  A    between atoms: C3_5  and  C4_6 
REMARK       I    between atoms: C4_6  and  N2_8 
REMARK    2  A    between atoms: N2_8  and  C5_9 
ROOT
HETATM    1  C1  UNL     1      21.988   6.931  50.652  1.00  0.00     0.165 C 
HETATM    2  N1  UNL     1      22.664   5.751  50.156  1.00  0.00    -0.321 N 
HETATM    3  C2  UNL     1      24.010   5.338  49.935  1.00  0.00     0.103 A 
HETATM    4  S1  UNL     1      25.234   6.373  50.297  1.00  0.00    -0.063 SA
HETATM    5  C3  UNL     1      24.310   4.027  49.401  1.00  0.00     0.181 A 
HETATM    6  C11 UNL     1      23.095   3.245  49.141  1.00  0.00     0.012 A 
HETATM    7  C12 UNL     1      22.670   2.065  48.690  1.00  0.00     0.017 A 
HETATM    8  C13 UNL     1      21.239   1.695  48.601  1.00  0.00     0.002 A 
HETATM    9  C14 UNL     1      20.135   2.373  48.917  1.00  0.00     0.008 A 
HETATM   10  C15 UNL     1      20.252   3.733  49.454  1.00  0.00     0.060 A 
HETATM   11  S2  UNL     1      21.733   4.336  49.632  1.00  0.00    -0.068 SA
ENDROOT
BRANCH   5  12
HETATM   12  C4  UNL     1      25.164   3.171  50.249  1.00  0.00     0.238 C 
HETATM   13  O1  UNL     1      26.310   2.720  49.905  1.00  0.00    -0.272 OA
HETATM   14  N2  UNL     1      24.821   2.729  51.576  1.00  0.00    -0.326 N 
HETATM   15  H5  UNL     1      23.886   3.048  51.961  1.00  0.00     0.169 HD
BRANCH  14  16
HETATM   16  C5  UNL     1      25.895   1.916  52.085  1.00  0.00     0.034 A 
HETATM   17  C6  UNL     1      27.061   2.454  52.630  1.00  0.00     0.029 A 
HETATM   18  C7  UNL     1      28.047   1.595  53.098  1.00  0.00     0.002 A 
HETATM   19  C8  UNL     1      27.854   0.222  53.015  1.00  0.00     0.000 A 
HETATM   20  C9  UNL     1      26.686  -0.289  52.468  1.00  0.00     0.002 A 
HETATM   21  C10 UNL     1      25.686   0.554  51.993  1.00  0.00     0.029 A 
ENDBRANCH  14  16
ENDBRANCH   5  12
TORSDOF 2
ENDMDL
MODEL 9
REMARK VINA RESULT:      -6.1      8.689     11.768
REMARK  2 active torsions:
REMARK  status: ('A' for Active; 'I' for Inactive)
REMARK    1  A    between atoms: C3_5  and  C4_6 
REMARK       I    between atoms: C4_6  and  N2_8 
REMARK    2  A    between atoms: N2_8  and  C5_9 
ROOT
HETATM    1  C1  UNL     1      34.211   8.075  44.495  1.00  0.00     0.165 C 
HETATM    2  N1  UNL     1      33.664   7.491  45.701  1.00  0.00    -0.321 N 
HETATM    3  C2  UNL     1      32.904   7.935  46.822  1.00  0.00     0.103 A 
HETATM    4  S1  UNL     1      32.451   9.512  46.906  1.00  0.00    -0.063 SA
HETATM    5  C3  UNL     1      32.529   7.021  47.880  1.00  0.00     0.181 A 
HETATM    6  C11 UNL     1      33.021   5.660  47.632  1.00  0.00     0.012 A 
HETATM    7  C12 UNL     1      33.039   4.430  48.147  1.00  0.00     0.017 A 
HETATM    8  C13 UNL     1      33.711   3.284  47.492  1.00  0.00     0.002 A 
HETATM    9  C14 UNL     1      34.391   3.201  46.348  1.00  0.00     0.008 A 
HETATM   10  C15 UNL     1      34.560   4.400  45.520  1.00  0.00     0.060 A 
HETATM   11  S2  UNL     1      33.903   5.769  46.052  1.00  0.00    -0.068 SA
ENDROOT
BRANCH   5  12
HETATM   12  C4  UNL     1      31.080   6.887  48.125  1.00  0.00     0.238 C 
HETATM   13  O1  UNL     1      30.474   7.323  49.162  1.00  0.00    -0.272 OA
HETATM   14  N2  UNL     1      30.153   6.246  47.227  1.00  0.00    -0.326 N 
HETATM   15  H5  UNL     1      30.552   5.846  46.330  1.00  0.00     0.169 HD
BRANCH  14  16
HETATM   16  C5  UNL     1      28.834   6.309  47.802  1.00  0.00     0.034 A 
HETATM   17  C6  UNL     1      28.068   7.474  47.813  1.00  0.00     0.029 A 
HETATM   18  C7  UNL     1      26.804   7.447  48.389  1.00  0.00     0.002 A 
HETATM   19  C8  UNL     1      26.329   6.263  48.940  1.00  0.00     0.000 A 
HETATM   20  C9  UNL     1      27.111   5.117  48.917  1.00  0.00     0.002 A 
HETATM   21  C10 UNL     1      28.380   5.124  48.345  1.00  0.00     0.029 A 
ENDBRANCH  14  16
ENDBRANCH   5  12
TORSDOF 2
ENDMDL
