MODEL 1
REMARK VINA RESULT:      -8.0      0.000      0.000
REMARK  3 active torsions:
REMARK  status: ('A' for Active; 'I' for Inactive)
REMARK    1  A    between atoms: C6_9  and  C7_10 
REMARK    2  A    between atoms: C10_14  and  N4_15 
REMARK    3  A    between atoms: N4_15  and  C11_16 
ROOT
HETATM    1  N1  UNL     1      19.115   0.587  51.044  1.00  0.00    -0.191 NA
HETATM    2  C1  UNL     1      19.908   0.256  51.842  1.00  0.00     0.103 C 
HETATM    3  C2  UNL     1      20.890  -0.158  52.806  1.00  0.00     0.089 A 
HETATM    4  C3  UNL     1      20.546  -0.786  53.989  1.00  0.00     0.142 A 
HETATM    5  N2  UNL     1      21.459  -1.183  54.906  1.00  0.00    -0.257 NA
HETATM    6  C4  UNL     1      22.784  -0.977  54.701  1.00  0.00     0.086 A 
HETATM    7  C5  UNL     1      23.732  -1.368  55.612  1.00  0.00     0.149 A 
HETATM    8  N3  UNL     1      25.051  -1.144  55.371  1.00  0.00    -0.256 NA
HETATM    9  C6  UNL     1      25.449  -0.531  54.225  1.00  0.00     0.095 A 
HETATM   10  C8  UNL     1      24.516  -0.127  53.293  1.00  0.00     0.051 A 
HETATM   11  C9  UNL     1      23.153  -0.350  53.523  1.00  0.00     0.025 A 
HETATM   12  C10 UNL     1      22.229   0.063  52.573  1.00  0.00     0.067 A 
ENDROOT
BRANCH  12  13
HETATM   13  N4  UNL     1      22.702   0.700  51.393  1.00  0.00    -0.354 N 
HETATM   14  H5  UNL     1      22.826   0.265  50.453  1.00  0.00     0.166 HD
BRANCH  13  15
HETATM   15  C11 UNL     1      23.052   2.078  51.478  1.00  0.00     0.033 A 
HETATM   16  C12 UNL     1      22.409   2.988  52.295  1.00  0.00     0.029 A 
HETATM   17  C13 UNL     1      22.750   4.319  52.373  1.00  0.00     0.004 A 
HETATM   18  C14 UNL     1      23.793   4.795  51.598  1.00  0.00     0.019 A 
HETATM   19  C15 UNL     1      24.472   3.927  50.762  1.00  0.00     0.013 A 
HETATM   20 BR1  UNL     1      25.933   4.454  49.635  1.00  0.00    -0.051 Br
HETATM   21  C16 UNL     1      24.091   2.623  50.724  1.00  0.00     0.048 A 
ENDBRANCH  13  15
ENDBRANCH  12  13
BRANCH   9  22
HETATM   22  C7  UNL     1      26.839  -0.251  53.886  1.00  0.00     0.290 C 
HETATM   23  O1  UNL     1      27.820  -0.514  54.607  1.00  0.00    -0.300 OA
ENDBRANCH   9  22
TORSDOF 3
ENDMDL
MODEL 2
REMARK VINA RESULT:      -7.7      2.380      4.027
REMARK  3 active torsions:
REMARK  status: ('A' for Active; 'I' for Inactive)
REMARK    1  A    between atoms: C6_9  and  C7_10 
REMARK    2  A    between atoms: C10_14  and  N4_15 
REMARK    3  A    between atoms: N4_15  and  C11_16 
ROOT
HETATM    1  N1  UNL     1      27.168   2.351  51.264  1.00  0.00    -0.191 NA
HETATM    2  C1  UNL     1      26.561   1.670  52.001  1.00  0.00     0.103 C 
HETATM    3  C2  UNL     1      25.806   0.849  52.907  1.00  0.00     0.089 A 
HETATM    4  C3  UNL     1      26.381   0.236  54.005  1.00  0.00     0.142 A 
HETATM    5  N2  UNL     1      25.684  -0.539  54.867  1.00  0.00    -0.257 NA
HETATM    6  C4  UNL     1      24.357  -0.756  54.688  1.00  0.00     0.086 A 
HETATM    7  C5  UNL     1      23.624  -1.536  55.545  1.00  0.00     0.149 A 
HETATM    8  N3  UNL     1      22.295  -1.730  55.333  1.00  0.00    -0.256 NA
HETATM    9  C6  UNL     1      21.674  -1.154  54.269  1.00  0.00     0.095 A 
HETATM   10  C8  UNL     1      22.389  -0.365  53.393  1.00  0.00     0.051 A 
HETATM   11  C9  UNL     1      23.757  -0.153  53.595  1.00  0.00     0.025 A 
HETATM   12  C10 UNL     1      24.460   0.645  52.702  1.00  0.00     0.067 A 
ENDROOT
BRANCH  12  13
HETATM   13  N4  UNL     1      23.759   1.223  51.608  1.00  0.00    -0.354 N 
HETATM   14  H5  UNL     1      23.337   0.719  50.797  1.00  0.00     0.166 HD
BRANCH  13  15
HETATM   15  C11 UNL     1      23.604   2.639  51.594  1.00  0.00     0.033 A 
HETATM   16  C12 UNL     1      23.362   3.399  52.721  1.00  0.00     0.029 A 
HETATM   17  C13 UNL     1      23.212   4.767  52.703  1.00  0.00     0.004 A 
HETATM   18  C14 UNL     1      23.305   5.440  51.497  1.00  0.00     0.019 A 
HETATM   19  C15 UNL     1      23.545   4.728  50.336  1.00  0.00     0.013 A 
HETATM   20 BR1  UNL     1      23.696   5.533  48.601  1.00  0.00    -0.051 Br
HETATM   21  C16 UNL     1      23.685   3.378  50.414  1.00  0.00     0.048 A 
ENDBRANCH  13  15
ENDBRANCH  12  13
BRANCH   9  22
HETATM   22  C7  UNL     1      20.256  -1.308  53.965  1.00  0.00     0.290 C 
HETATM   23  O1  UNL     1      19.580  -0.517  53.281  1.00  0.00    -0.300 OA
ENDBRANCH   9  22
TORSDOF 3
ENDMDL
MODEL 3
REMARK VINA RESULT:      -7.6      2.529      5.133
REMARK  3 active torsions:
REMARK  status: ('A' for Active; 'I' for Inactive)
REMARK    1  A    between atoms: C6_9  and  C7_10 
REMARK    2  A    between atoms: C10_14  and  N4_15 
REMARK    3  A    between atoms: N4_15  and  C11_16 
ROOT
HETATM    1  N1  UNL     1      21.934  -1.427  54.970  1.00  0.00    -0.191 NA
HETATM    2  C1  UNL     1      22.039  -0.811  53.977  1.00  0.00     0.103 C 
HETATM    3  C2  UNL     1      22.170  -0.041  52.771  1.00  0.00     0.089 A 
HETATM    4  C3  UNL     1      21.269  -0.143  51.727  1.00  0.00     0.142 A 
HETATM    5  N2  UNL     1      21.378   0.575  50.586  1.00  0.00    -0.257 NA
HETATM    6  C4  UNL     1      22.401   1.448  50.409  1.00  0.00     0.086 A 
HETATM    7  C5  UNL     1      22.537   2.189  49.264  1.00  0.00     0.149 A 
HETATM    8  N3  UNL     1      23.577   3.054  49.124  1.00  0.00    -0.256 NA
HETATM    9  C6  UNL     1      24.495   3.197  50.117  1.00  0.00     0.095 A 
HETATM   10  C8  UNL     1      24.380   2.463  51.278  1.00  0.00     0.051 A 
HETATM   11  C9  UNL     1      23.317   1.568  51.441  1.00  0.00     0.025 A 
HETATM   12  C10 UNL     1      23.219   0.838  52.618  1.00  0.00     0.067 A 
ENDROOT
BRANCH  12  13
HETATM   13  N4  UNL     1      24.207   1.028  53.622  1.00  0.00    -0.354 N 
HETATM   14  H5  UNL     1      24.117   1.601  54.489  1.00  0.00     0.166 HD
BRANCH  13  15
HETATM   15  C11 UNL     1      25.461   0.375  53.449  1.00  0.00     0.033 A 
HETATM   16  C12 UNL     1      25.606  -0.887  52.909  1.00  0.00     0.029 A 
HETATM   17  C13 UNL     1      26.821  -1.513  52.744  1.00  0.00     0.004 A 
HETATM   18  C14 UNL     1      27.976  -0.859  53.136  1.00  0.00     0.019 A 
HETATM   19  C15 UNL     1      27.889   0.408  53.683  1.00  0.00     0.013 A 
HETATM   20 BR1  UNL     1      29.407   1.425  54.268  1.00  0.00    -0.051 Br
HETATM   21  C16 UNL     1      26.663   0.978  53.823  1.00  0.00     0.048 A 
ENDBRANCH  13  15
ENDBRANCH  12  13
BRANCH   9  22
HETATM   22  C7  UNL     1      25.638   4.099  50.052  1.00  0.00     0.290 C 
HETATM   23  O1  UNL     1      26.749   3.815  49.566  1.00  0.00    -0.300 OA
ENDBRANCH   9  22
TORSDOF 3
ENDMDL
MODEL 4
REMARK VINA RESULT:      -7.5      2.837      5.606
REMARK  3 active torsions:
REMARK  status: ('A' for Active; 'I' for Inactive)
REMARK    1  A    between atoms: C6_9  and  C7_10 
REMARK    2  A    between atoms: C10_14  and  N4_15 
REMARK    3  A    between atoms: N4_15  and  C11_16 
ROOT
HETATM    1  N1  UNL     1      27.132   3.235  50.708  1.00  0.00    -0.191 NA
HETATM    2  C1  UNL     1      26.042   2.820  50.832  1.00  0.00     0.103 C 
HETATM    3  C2  UNL     1      24.714   2.293  50.988  1.00  0.00     0.089 A 
HETATM    4  C3  UNL     1      23.736   2.456  50.025  1.00  0.00     0.142 A 
HETATM    5  N2  UNL     1      22.482   1.966  50.157  1.00  0.00    -0.257 NA
HETATM    6  C4  UNL     1      22.118   1.276  51.267  1.00  0.00     0.086 A 
HETATM    7  C5  UNL     1      20.855   0.767  51.429  1.00  0.00     0.149 A 
HETATM    8  N3  UNL     1      20.529   0.081  52.557  1.00  0.00    -0.256 NA
HETATM    9  C6  UNL     1      21.450  -0.111  53.539  1.00  0.00     0.095 A 
HETATM   10  C8  UNL     1      22.727   0.391  53.401  1.00  0.00     0.051 A 
HETATM   11  C9  UNL     1      23.081   1.099  52.247  1.00  0.00     0.025 A 
HETATM   12  C10 UNL     1      24.372   1.596  52.126  1.00  0.00     0.067 A 
ENDROOT
BRANCH  12  13
HETATM   13  N4  UNL     1      25.293   1.365  53.184  1.00  0.00    -0.354 N 
HETATM   14  H5  UNL     1      25.392   1.921  54.062  1.00  0.00     0.166 HD
BRANCH  13  15
HETATM   15  C11 UNL     1      26.188   0.264  53.055  1.00  0.00     0.033 A 
HETATM   16  C12 UNL     1      25.808  -0.992  52.625  1.00  0.00     0.029 A 
HETATM   17  C13 UNL     1      26.676  -2.053  52.502  1.00  0.00     0.004 A 
HETATM   18  C14 UNL     1      28.010  -1.874  52.824  1.00  0.00     0.019 A 
HETATM   19  C15 UNL     1      28.445  -0.636  53.261  1.00  0.00     0.013 A 
HETATM   20 BR1  UNL     1      30.263  -0.251  53.739  1.00  0.00    -0.051 Br
HETATM   21  C16 UNL     1      27.544   0.376  53.363  1.00  0.00     0.048 A 
ENDBRANCH  13  15
ENDBRANCH  12  13
BRANCH   9  22
HETATM   22  C7  UNL     1      21.187  -0.832  54.778  1.00  0.00     0.290 C 
HETATM   23  O1  UNL     1      21.564  -1.993  55.026  1.00  0.00    -0.300 OA
ENDBRANCH   9  22
TORSDOF 3
ENDMDL
MODEL 5
REMARK VINA RESULT:      -7.5      2.220      2.975
REMARK  3 active torsions:
REMARK  status: ('A' for Active; 'I' for Inactive)
REMARK    1  A    between atoms: C6_9  and  C7_10 
REMARK    2  A    between atoms: C10_14  and  N4_15 
REMARK    3  A    between atoms: N4_15  and  C11_16 
ROOT
HETATM    1  N1  UNL     1      20.397   3.354  52.401  1.00  0.00    -0.191 NA
HETATM    2  C1  UNL     1      21.323   2.657  52.583  1.00  0.00     0.103 C 
HETATM    3  C2  UNL     1      22.466   1.811  52.791  1.00  0.00     0.089 A 
HETATM    4  C3  UNL     1      22.358   0.437  52.909  1.00  0.00     0.142 A 
HETATM    5  N2  UNL     1      23.424  -0.372  53.105  1.00  0.00    -0.257 NA
HETATM    6  C4  UNL     1      24.677   0.138  53.197  1.00  0.00     0.086 A 
HETATM    7  C5  UNL     1      25.776  -0.657  53.395  1.00  0.00     0.149 A 
HETATM    8  N3  UNL     1      27.017  -0.107  53.482  1.00  0.00    -0.256 NA
HETATM    9  C6  UNL     1      27.185   1.237  53.373  1.00  0.00     0.095 A 
HETATM   10  C8  UNL     1      26.096   2.060  53.174  1.00  0.00     0.051 A 
HETATM   11  C9  UNL     1      24.811   1.512  53.082  1.00  0.00     0.025 A 
HETATM   12  C10 UNL     1      23.727   2.356  52.881  1.00  0.00     0.067 A 
ENDROOT
BRANCH  12  13
HETATM   13  N4  UNL     1      23.962   3.754  52.775  1.00  0.00    -0.354 N 
HETATM   14  H5  UNL     1      24.099   4.428  53.560  1.00  0.00     0.166 HD
BRANCH  13  15
HETATM   15  C11 UNL     1      24.022   4.319  51.468  1.00  0.00     0.033 A 
HETATM   16  C12 UNL     1      24.313   3.596  50.328  1.00  0.00     0.029 A 
HETATM   17  C13 UNL     1      24.370   4.147  49.068  1.00  0.00     0.004 A 
HETATM   18  C14 UNL     1      24.124   5.500  48.911  1.00  0.00     0.019 A 
HETATM   19  C15 UNL     1      23.827   6.271  50.019  1.00  0.00     0.013 A 
HETATM   20 BR1  UNL     1      23.467   8.154  49.944  1.00  0.00    -0.051 Br
HETATM   21  C16 UNL     1      23.785   5.675  51.240  1.00  0.00     0.048 A 
ENDBRANCH  13  15
ENDBRANCH  12  13
BRANCH   9  22
HETATM   22  C7  UNL     1      28.476   1.911  53.454  1.00  0.00     0.290 C 
HETATM   23  O1  UNL     1      28.916   2.499  54.460  1.00  0.00    -0.300 OA
ENDBRANCH   9  22
TORSDOF 3
ENDMDL
MODEL 6
REMARK VINA RESULT:      -7.4      2.485      4.371
REMARK  3 active torsions:
REMARK  status: ('A' for Active; 'I' for Inactive)
REMARK    1  A    between atoms: C6_9  and  C7_10 
REMARK    2  A    between atoms: C10_14  and  N4_15 
REMARK    3  A    between atoms: N4_15  and  C11_16 
ROOT
HETATM    1  N1  UNL     1      27.471  -0.212  54.374  1.00  0.00    -0.191 NA
HETATM    2  C1  UNL     1      26.313  -0.396  54.402  1.00  0.00     0.103 C 
HETATM    3  C2  UNL     1      24.892  -0.603  54.434  1.00  0.00     0.089 A 
HETATM    4  C3  UNL     1      24.261  -1.249  55.481  1.00  0.00     0.142 A 
HETATM    5  N2  UNL     1      22.925  -1.451  55.526  1.00  0.00    -0.257 NA
HETATM    6  C4  UNL     1      22.123  -1.020  54.520  1.00  0.00     0.086 A 
HETATM    7  C5  UNL     1      20.765  -1.211  54.537  1.00  0.00     0.149 A 
HETATM    8  N3  UNL     1      19.994  -0.764  53.510  1.00  0.00    -0.256 NA
HETATM    9  C6  UNL     1      20.558  -0.122  52.452  1.00  0.00     0.095 A 
HETATM   10  C8  UNL     1      21.921   0.081  52.410  1.00  0.00     0.051 A 
HETATM   11  C9  UNL     1      22.731  -0.371  53.459  1.00  0.00     0.025 A 
HETATM   12  C10 UNL     1      24.101  -0.156  53.399  1.00  0.00     0.067 A 
ENDROOT
BRANCH  12  13
HETATM   13  N4  UNL     1      24.636   0.521  52.269  1.00  0.00    -0.354 N 
HETATM   14  H5  UNL     1      25.237   0.113  51.520  1.00  0.00     0.166 HD
BRANCH  13  15
HETATM   15  C11 UNL     1      24.334   1.906  52.121  1.00  0.00     0.033 A 
HETATM   16  C12 UNL     1      24.283   2.800  53.172  1.00  0.00     0.029 A 
HETATM   17  C13 UNL     1      23.990   4.137  53.024  1.00  0.00     0.004 A 
HETATM   18  C14 UNL     1      23.728   4.634  51.759  1.00  0.00     0.019 A 
HETATM   19  C15 UNL     1      23.766   3.782  50.671  1.00  0.00     0.013 A 
HETATM   20 BR1  UNL     1      23.423   4.339  48.867  1.00  0.00    -0.051 Br
HETATM   21  C16 UNL     1      24.060   2.471  50.876  1.00  0.00     0.048 A 
ENDBRANCH  13  15
ENDBRANCH  12  13
BRANCH   9  22
HETATM   22  C7  UNL     1      19.810   0.389  51.310  1.00  0.00     0.290 C 
HETATM   23  O1  UNL     1      18.662   0.030  50.986  1.00  0.00    -0.300 OA
ENDBRANCH   9  22
TORSDOF 3
ENDMDL
MODEL 7
REMARK VINA RESULT:      -7.3      2.837      4.900
REMARK  3 active torsions:
REMARK  status: ('A' for Active; 'I' for Inactive)
REMARK    1  A    between atoms: C6_9  and  C7_10 
REMARK    2  A    between atoms: C10_14  and  N4_15 
REMARK    3  A    between atoms: N4_15  and  C11_16 
ROOT
HETATM    1  N1  UNL     1      28.367   2.487  54.108  1.00  0.00    -0.191 NA
HETATM    2  C1  UNL     1      27.368   1.897  53.935  1.00  0.00     0.103 C 
HETATM    3  C2  UNL     1      26.135   1.188  53.733  1.00  0.00     0.089 A 
HETATM    4  C3  UNL     1      26.007  -0.163  53.998  1.00  0.00     0.142 A 
HETATM    5  N2  UNL     1      24.853  -0.845  53.814  1.00  0.00    -0.257 NA
HETATM    6  C4  UNL     1      23.742  -0.219  53.350  1.00  0.00     0.086 A 
HETATM    7  C5  UNL     1      22.559  -0.884  53.154  1.00  0.00     0.149 A 
HETATM    8  N3  UNL     1      21.467  -0.221  52.687  1.00  0.00    -0.256 NA
HETATM    9  C6  UNL     1      21.532   1.108  52.409  1.00  0.00     0.095 A 
HETATM   10  C8  UNL     1      22.711   1.799  52.597  1.00  0.00     0.051 A 
HETATM   11  C9  UNL     1      23.845   1.135  53.077  1.00  0.00     0.025 A 
HETATM   12  C10 UNL     1      25.022   1.848  53.261  1.00  0.00     0.067 A 
ENDROOT
BRANCH  12  13
HETATM   13  N4  UNL     1      25.033   3.236  52.954  1.00  0.00    -0.354 N 
HETATM   14  H5  UNL     1      24.877   4.026  53.618  1.00  0.00     0.166 HD
BRANCH  13  15
HETATM   15  C11 UNL     1      25.282   3.614  51.603  1.00  0.00     0.033 A 
HETATM   16  C12 UNL     1      26.269   3.057  50.815  1.00  0.00     0.029 A 
HETATM   17  C13 UNL     1      26.505   3.426  49.511  1.00  0.00     0.004 A 
HETATM   18  C14 UNL     1      25.720   4.410  48.935  1.00  0.00     0.019 A 
HETATM   19  C15 UNL     1      24.716   5.002  49.679  1.00  0.00     0.013 A 
HETATM   20 BR1  UNL     1      23.557   6.375  49.007  1.00  0.00    -0.051 Br
HETATM   21  C16 UNL     1      24.528   4.599  50.964  1.00  0.00     0.048 A 
ENDBRANCH  13  15
ENDBRANCH  12  13
BRANCH   9  22
HETATM   22  C7  UNL     1      20.414   1.896  51.906  1.00  0.00     0.290 C 
HETATM   23  O1  UNL     1      19.721   2.675  52.588  1.00  0.00    -0.300 OA
ENDBRANCH   9  22
TORSDOF 3
ENDMDL
MODEL 8
REMARK VINA RESULT:      -7.3      2.585      4.269
REMARK  3 active torsions:
REMARK  status: ('A' for Active; 'I' for Inactive)
REMARK    1  A    between atoms: C6_9  and  C7_10 
REMARK    2  A    between atoms: C10_14  and  N4_15 
REMARK    3  A    between atoms: N4_15  and  C11_16 
ROOT
HETATM    1  N1  UNL     1      26.504   4.001  49.449  1.00  0.00    -0.191 NA
HETATM    2  C1  UNL     1      26.391   3.248  50.342  1.00  0.00     0.103 C 
HETATM    3  C2  UNL     1      26.237   2.335  51.441  1.00  0.00     0.089 A 
HETATM    4  C3  UNL     1      27.273   2.042  52.309  1.00  0.00     0.142 A 
HETATM    5  N2  UNL     1      27.144   1.186  53.348  1.00  0.00    -0.257 NA
HETATM    6  C4  UNL     1      25.965   0.560  53.591  1.00  0.00     0.086 A 
HETATM    7  C5  UNL     1      25.804  -0.313  54.636  1.00  0.00     0.149 A 
HETATM    8  N3  UNL     1      24.606  -0.921  54.847  1.00  0.00    -0.256 NA
HETATM    9  C6  UNL     1      23.551  -0.671  54.026  1.00  0.00     0.095 A 
HETATM   10  C8  UNL     1      23.687   0.202  52.967  1.00  0.00     0.051 A 
HETATM   11  C9  UNL     1      24.912   0.837  52.735  1.00  0.00     0.025 A 
HETATM   12  C10 UNL     1      25.029   1.714  51.664  1.00  0.00     0.067 A 
ENDROOT
BRANCH  12  13
HETATM   13  N4  UNL     1      23.893   1.936  50.838  1.00  0.00    -0.354 N 
HETATM   14  H5  UNL     1      23.487   1.277  50.139  1.00  0.00     0.166 HD
BRANCH  13  15
HETATM   15  C11 UNL     1      23.220   3.186  50.960  1.00  0.00     0.033 A 
HETATM   16  C12 UNL     1      22.869   3.759  52.167  1.00  0.00     0.029 A 
HETATM   17  C13 UNL     1      22.219   4.966  52.280  1.00  0.00     0.004 A 
HETATM   18  C14 UNL     1      21.887   5.664  51.131  1.00  0.00     0.019 A 
HETATM   19  C15 UNL     1      22.215   5.136  49.896  1.00  0.00     0.013 A 
HETATM   20 BR1  UNL     1      21.814   5.996  48.228  1.00  0.00    -0.051 Br
HETATM   21  C16 UNL     1      22.857   3.939  49.844  1.00  0.00     0.048 A 
ENDBRANCH  13  15
ENDBRANCH  12  13
BRANCH   9  22
HETATM   22  C7  UNL     1      22.234  -1.278  54.177  1.00  0.00     0.290 C 
HETATM   23  O1  UNL     1      21.806  -1.813  55.217  1.00  0.00    -0.300 OA
ENDBRANCH   9  22
TORSDOF 3
ENDMDL
MODEL 9
REMARK VINA RESULT:      -7.1      3.138      4.776
REMARK  3 active torsions:
REMARK  status: ('A' for Active; 'I' for Inactive)
REMARK    1  A    between atoms: C6_9  and  C7_10 
REMARK    2  A    between atoms: C10_14  and  N4_15 
REMARK    3  A    between atoms: N4_15  and  C11_16 
ROOT
HETATM    1  N1  UNL     1      26.889   3.978  49.708  1.00  0.00    -0.191 NA
HETATM    2  C1  UNL     1      26.427   3.155  50.405  1.00  0.00     0.103 C 
HETATM    3  C2  UNL     1      25.855   2.161  51.270  1.00  0.00     0.089 A 
HETATM    4  C3  UNL     1      26.591   1.103  51.769  1.00  0.00     0.142 A 
HETATM    5  N2  UNL     1      26.067   0.159  52.585  1.00  0.00    -0.257 NA
HETATM    6  C4  UNL     1      24.764   0.210  52.959  1.00  0.00     0.086 A 
HETATM    7  C5  UNL     1      24.205  -0.732  53.784  1.00  0.00     0.149 A 
HETATM    8  N3  UNL     1      22.895  -0.647  54.137  1.00  0.00    -0.256 NA
HETATM    9  C6  UNL     1      22.121   0.372  53.678  1.00  0.00     0.095 A 
HETATM   10  C8  UNL     1      22.658   1.331  52.845  1.00  0.00     0.051 A 
HETATM   11  C9  UNL     1      24.006   1.261  52.472  1.00  0.00     0.025 A 
HETATM   12  C10 UNL     1      24.529   2.237  51.634  1.00  0.00     0.067 A 
ENDROOT
BRANCH  12  13
HETATM   13  N4  UNL     1      23.673   3.279  51.184  1.00  0.00    -0.354 N 
HETATM   14  H5  UNL     1      23.394   4.134  51.714  1.00  0.00     0.166 HD
BRANCH  13  15
HETATM   15  C11 UNL     1      23.126   3.168  49.873  1.00  0.00     0.033 A 
HETATM   16  C12 UNL     1      22.692   1.981  49.316  1.00  0.00     0.029 A 
HETATM   17  C13 UNL     1      22.165   1.879  48.049  1.00  0.00     0.004 A 
HETATM   18  C14 UNL     1      22.055   3.018  47.270  1.00  0.00     0.019 A 
HETATM   19  C15 UNL     1      22.474   4.234  47.778  1.00  0.00     0.013 A 
HETATM   20 BR1  UNL     1      22.378   5.887  46.809  1.00  0.00    -0.051 Br
HETATM   21  C16 UNL     1      22.987   4.276  49.037  1.00  0.00     0.048 A 
ENDBRANCH  13  15
ENDBRANCH  12  13
BRANCH   9  22
HETATM   22  C7  UNL     1      20.710   0.540  54.003  1.00  0.00     0.290 C 
HETATM   23  O1  UNL     1      19.800  -0.248  53.683  1.00  0.00    -0.300 OA
ENDBRANCH   9  22
TORSDOF 3
ENDMDL
